@<TRIPOS>MOLECULE
am_c3_9H2O_c0_0_nunpairedes_0_charge_3 Charge: 3 Unpaired_Electrons: 2 XTB_Unpaired_Electrons: 0 XTB_Charge: 3
   358   363     1     0     0
SMALL
NoCharges
****
Generated from Architector

@<TRIPOS>ATOM
     1 Pr1      -0.2115    0.0781   -0.1977   Pr        1 RES1   0.0000
     2 C1        2.9750   -1.0566   -7.1014   C.3       1 RES1   0.0000
     3 C2        1.6531   -1.0322   -6.3438   C.3       1 RES1   0.0000
     4 C3        0.4869   -1.3379   -7.2809   C.3       1 RES1   0.0000
     5 C4       -0.8890   -1.3197   -6.6113   C.3       1 RES1   0.0000
     6 C5       -1.3390    0.0781   -6.1654   C.3       1 RES1   0.0000
     7 C6       -2.8537    0.2504   -6.2838   C.3       1 RES1   0.0000
     8 C7       -3.3649    1.6704   -6.0249   C.3       1 RES1   0.0000
     9 C8       -3.4595    2.1750   -4.5758   C.3       1 RES1   0.0000
    10 N1       -2.2063    2.2617   -3.8353   N.am      1 RES1   0.0000
    11 C9       -1.2305    3.1876   -4.4022   C.3       1 RES1   0.0000
    12 C10      -1.7072    4.6486   -4.3986   C.3       1 RES1   0.0000
    13 C11      -1.9760    5.2222   -3.0040   C.3       1 RES1   0.0000
    14 C12      -3.3478    4.9594   -2.3709   C.3       1 RES1   0.0000
    15 C13      -4.5045    5.8365   -2.8890   C.3       1 RES1   0.0000
    16 C14      -5.5174    5.1368   -3.7968   C.3       1 RES1   0.0000
    17 C15      -6.2709    4.0019   -3.1052   C.3       1 RES1   0.0000
    18 C16      -7.1512    3.2133   -4.0647   C.3       1 RES1   0.0000
    19 C17      -1.9313    1.6325   -2.6968   C.2       1 RES1   0.0000
    20 O1       -0.7906    1.5663   -2.1933   O.2       1 RES1   0.0000
    21 C18      -3.0490    0.8738   -1.9460   C.3       1 RES1   0.0000
    22 C19      -3.2133   -0.4665   -2.6562   C.3       1 RES1   0.0000
    23 O2       -2.5819    0.6274   -0.6056   O.3       1 RES1   0.0000
    24 C20      -3.3689    1.1792    0.4552   C.3       1 RES1   0.0000
    25 C21      -4.5531    0.2557    0.7798   C.3       1 RES1   0.0000
    26 C22      -2.4214    1.3027    1.6633   C.2       1 RES1   0.0000
    27 O3       -1.3839    0.6091    1.6717   O.2       1 RES1   0.0000
    28 N2       -2.7241    2.1085    2.6793   N.am      1 RES1   0.0000
    29 C23      -1.6490    2.4685    3.6113   C.3       1 RES1   0.0000
    30 C24      -1.8341    2.4014    5.1356   C.3       1 RES1   0.0000
    31 C25      -1.7031    1.0722    5.8848   C.3       1 RES1   0.0000
    32 C26      -2.9374    0.1833    5.8107   C.3       1 RES1   0.0000
    33 C27      -2.8446   -0.9936    6.7802   C.3       1 RES1   0.0000
    34 C28      -4.0483   -1.9307    6.6917   C.3       1 RES1   0.0000
    35 C29      -4.1193   -2.7002    5.3748   C.3       1 RES1   0.0000
    36 C30      -5.2320   -3.7420    5.3711   C.3       1 RES1   0.0000
    37 C31      -3.8925    2.9777    2.7034   C.3       1 RES1   0.0000
    38 C32      -3.7269    4.2290    1.8335   C.3       1 RES1   0.0000
    39 C33      -5.0072    5.0614    1.7825   C.3       1 RES1   0.0000
    40 C34      -6.1252    4.4326    0.9545   C.3       1 RES1   0.0000
    41 C35      -7.4470    5.1591    1.2105   C.3       1 RES1   0.0000
    42 C36      -8.5456    4.8535    0.1937   C.3       1 RES1   0.0000
    43 C37      -8.8782    3.3737   -0.0008   C.3       1 RES1   0.0000
    44 C38      -9.4242    2.7026    1.2553   C.3       1 RES1   0.0000
    45 H1        3.8167   -0.8802   -6.4362   H         1 RES1   0.0000
    46 H2        2.9881   -0.2917   -7.8726   H         1 RES1   0.0000
    47 H3        3.1197   -2.0188   -7.5836   H         1 RES1   0.0000
    48 H4        1.5151   -0.0505   -5.8874   H         1 RES1   0.0000
    49 H5        1.6765   -1.7740   -5.5418   H         1 RES1   0.0000
    50 H6        0.6432   -2.3256   -7.7175   H         1 RES1   0.0000
    51 H7        0.4871   -0.6174   -8.1013   H         1 RES1   0.0000
    52 H8       -0.8909   -1.9998   -5.7553   H         1 RES1   0.0000
    53 H9       -1.6122   -1.7060   -7.3327   H         1 RES1   0.0000
    54 H10      -0.8595    0.8186   -6.8082   H         1 RES1   0.0000
    55 H11      -1.0098    0.2634   -5.1426   H         1 RES1   0.0000
    56 H12      -3.3694   -0.4665   -5.6409   H         1 RES1   0.0000
    57 H13      -3.1283   -0.0019   -7.3100   H         1 RES1   0.0000
    58 H14      -4.3909    1.7204   -6.3982   H         1 RES1   0.0000
    59 H15      -2.7752    2.3678   -6.6160   H         1 RES1   0.0000
    60 H16      -4.1646    1.5560   -4.0355   H         1 RES1   0.0000
    61 H17      -3.8824    3.1802   -4.6364   H         1 RES1   0.0000
    62 H18      -1.0135    2.8914   -5.4306   H         1 RES1   0.0000
    63 H19      -0.3145    3.0872   -3.8140   H         1 RES1   0.0000
    64 H20      -2.5708    4.7805   -5.0496   H         1 RES1   0.0000
    65 H21      -0.8890    5.2210   -4.8357   H         1 RES1   0.0000
    66 H22      -1.8299    6.3031   -3.0386   H         1 RES1   0.0000
    67 H23      -1.2126    4.8186   -2.3348   H         1 RES1   0.0000
    68 H24      -3.2279    5.1637   -1.3044   H         1 RES1   0.0000
    69 H25      -3.6015    3.9019   -2.4606   H         1 RES1   0.0000
    70 H26      -4.0973    6.6958   -3.4233   H         1 RES1   0.0000
    71 H27      -5.0558    6.2269   -2.0325   H         1 RES1   0.0000
    72 H28      -5.0295    4.7675   -4.6996   H         1 RES1   0.0000
    73 H29      -6.2468    5.8797   -4.1192   H         1 RES1   0.0000
    74 H30      -6.8920    4.4245   -2.3166   H         1 RES1   0.0000
    75 H31      -5.5695    3.3122   -2.6275   H         1 RES1   0.0000
    76 H32      -7.8427    3.8758   -4.5744   H         1 RES1   0.0000
    77 H33      -7.7333    2.4661   -3.5301   H         1 RES1   0.0000
    78 H34      -6.5489    2.7096   -4.8176   H         1 RES1   0.0000
    79 H35      -3.9802    1.4516   -1.9165   H         1 RES1   0.0000
    80 H36      -2.2231   -0.8436   -2.9267   H         1 RES1   0.0000
    81 H37      -3.7927   -0.3785   -3.5698   H         1 RES1   0.0000
    82 H38      -3.7044   -1.1752   -1.9969   H         1 RES1   0.0000
    83 H39      -3.7248    2.1742    0.1674   H         1 RES1   0.0000
    84 H40      -4.3298   -0.3813    1.6322   H         1 RES1   0.0000
    85 H41      -4.7428   -0.3840   -0.0786   H         1 RES1   0.0000
    86 H42      -5.4686    0.8085    0.9705   H         1 RES1   0.0000
    87 H43      -1.4209    3.5173    3.3974   H         1 RES1   0.0000
    88 H44      -0.7974    1.8575    3.3301   H         1 RES1   0.0000
    89 H45      -2.7689    2.8716    5.4360   H         1 RES1   0.0000
    90 H46      -1.0254    3.0345    5.5127   H         1 RES1   0.0000
    91 H47      -1.5317    1.3253    6.9342   H         1 RES1   0.0000
    92 H48      -0.8182    0.5289    5.5547   H         1 RES1   0.0000
    93 H49      -3.0624   -0.1678    4.7850   H         1 RES1   0.0000
    94 H50      -3.8134    0.7729    6.0749   H         1 RES1   0.0000
    95 H51      -2.7783   -0.6056    7.7982   H         1 RES1   0.0000
    96 H52      -1.9285   -1.5556    6.5904   H         1 RES1   0.0000
    97 H53      -4.9675   -1.3579    6.8187   H         1 RES1   0.0000
    98 H54      -3.9959   -2.6475    7.5103   H         1 RES1   0.0000
    99 H55      -3.1670   -3.2108    5.2011   H         1 RES1   0.0000
   100 H56      -4.2901   -2.0026    4.5518   H         1 RES1   0.0000
   101 H57      -5.0442   -4.4973    6.1303   H         1 RES1   0.0000
   102 H58      -5.3024   -4.2388    4.4030   H         1 RES1   0.0000
   103 H59      -6.1902   -3.2762    5.5868   H         1 RES1   0.0000
   104 H60      -4.0504    3.2839    3.7409   H         1 RES1   0.0000
   105 H61      -4.7714    2.4118    2.4015   H         1 RES1   0.0000
   106 H62      -3.4324    3.9566    0.8192   H         1 RES1   0.0000
   107 H63      -2.9349    4.8529    2.2446   H         1 RES1   0.0000
   108 H64      -4.7802    6.0401    1.3535   H         1 RES1   0.0000
   109 H65      -5.3599    5.2263    2.8024   H         1 RES1   0.0000
   110 H66      -6.2452    3.3775    1.2123   H         1 RES1   0.0000
   111 H67      -5.8553    4.4916   -0.1030   H         1 RES1   0.0000
   112 H68      -7.2638    6.2349    1.1866   H         1 RES1   0.0000
   113 H69      -7.7962    4.9111    2.2139   H         1 RES1   0.0000
   114 H70      -8.2585    5.2714   -0.7730   H         1 RES1   0.0000
   115 H71      -9.4477    5.3761    0.5116   H         1 RES1   0.0000
   116 H72      -7.9920    2.8364   -0.3523   H         1 RES1   0.0000
   117 H73      -9.6323    3.3043   -0.7874   H         1 RES1   0.0000
   118 H74      -8.6774    2.6746    2.0468   H         1 RES1   0.0000
   119 H75      -9.7359    1.6820    1.0361   H         1 RES1   0.0000
   120 H76     -10.2908    3.2456    1.6229   H         1 RES1   0.0000
   121 C39      -6.4522    4.2807    5.9101   C.3       1 RES1   0.0000
   122 C40      -5.0351    4.4624    6.4347   C.3       1 RES1   0.0000
   123 C41      -4.3965    5.7539    5.9277   C.3       1 RES1   0.0000
   124 C42      -2.8745    5.8375    6.1491   C.3       1 RES1   0.0000
   125 C43      -2.1618    6.1339    4.8278   C.3       1 RES1   0.0000
   126 C44      -0.6372    5.9834    4.8204   C.3       1 RES1   0.0000
   127 C45      -0.0591    6.2316    3.4059   C.3       1 RES1   0.0000
   128 C46       0.8145    5.1043    2.7892   C.3       1 RES1   0.0000
   129 N3        0.2720    4.4802    1.5724   N.am      1 RES1   0.0000
   130 C47      -0.4161    5.3338    0.5977   C.3       1 RES1   0.0000
   131 C48       0.4567    6.5002    0.1076   C.3       1 RES1   0.0000
   132 C49       1.3816    6.1840   -1.0745   C.3       1 RES1   0.0000
   133 C50       2.5599    5.2350   -0.8118   C.3       1 RES1   0.0000
   134 C51       3.8880    5.9494   -0.5459   C.3       1 RES1   0.0000
   135 C52       3.8725    6.8140    0.7110   C.3       1 RES1   0.0000
   136 C53       5.2453    7.3977    1.0314   C.3       1 RES1   0.0000
   137 C54       5.2039    8.2846    2.2688   C.3       1 RES1   0.0000
   138 C55       0.4783    3.2075    1.2080   C.2       1 RES1   0.0000
   139 O4       -0.2766    2.6397    0.3997   O.2       1 RES1   0.0000
   140 C56       1.7452    2.4249    1.6375   C.3       1 RES1   0.0000
   141 C57       1.6271    1.6666    2.9635   C.3       1 RES1   0.0000
   142 O5        1.8791    1.4735    0.5750   O.3       1 RES1   0.0000
   143 C58       3.1703    1.2256    0.0281   C.3       1 RES1   0.0000
   144 C59       4.0407    0.4838    1.0559   C.3       1 RES1   0.0000
   145 C60       2.8945    0.3557   -1.2213   C.2       1 RES1   0.0000
   146 O6        1.7384   -0.0787   -1.4099   O.2       1 RES1   0.0000
   147 N4        3.8952    0.0749   -2.0443   N.am      1 RES1   0.0000
   148 C61       3.6651   -0.8802   -3.1350   C.3       1 RES1   0.0000
   149 C62       4.6351   -2.0652   -3.0583   C.3       1 RES1   0.0000
   150 C63       4.0414   -3.3837   -3.5641   C.3       1 RES1   0.0000
   151 C64       4.9108   -4.5537   -3.0829   C.3       1 RES1   0.0000
   152 C65       4.2011   -5.9058   -3.0048   C.3       1 RES1   0.0000
   153 C66       5.0388   -6.9445   -2.2513   C.3       1 RES1   0.0000
   154 C67       5.3684   -6.5474   -0.8073   C.3       1 RES1   0.0000
   155 C68       5.6883   -7.7548    0.0658   C.3       1 RES1   0.0000
   156 C69       5.2413    0.6172   -1.9381   C.3       1 RES1   0.0000
   157 C70       5.6039    1.7168   -2.9405   C.3       1 RES1   0.0000
   158 C71       7.0664    2.1153   -2.7066   C.3       1 RES1   0.0000
   159 C72       7.2514    3.0342   -1.4980   C.3       1 RES1   0.0000
   160 C73       8.6909    3.0284   -0.9861   C.3       1 RES1   0.0000
   161 C74       8.8565    3.6935    0.3799   C.3       1 RES1   0.0000
   162 C75       8.1609    2.9689    1.5355   C.3       1 RES1   0.0000
   163 C76       8.6063    1.5213    1.7078   C.3       1 RES1   0.0000
   164 H77      -6.8506    3.3153    6.2061   H         1 RES1   0.0000
   165 H78      -6.4671    4.3394    4.8234   H         1 RES1   0.0000
   166 H79      -7.1105    5.0481    6.2986   H         1 RES1   0.0000
   167 H80      -4.4412    3.6024    6.1195   H         1 RES1   0.0000
   168 H81      -5.0452    4.4691    7.5222   H         1 RES1   0.0000
   169 H82      -4.8869    6.5987    6.4080   H         1 RES1   0.0000
   170 H83      -4.6051    5.8554    4.8582   H         1 RES1   0.0000
   171 H84      -2.5007    4.9047    6.5716   H         1 RES1   0.0000
   172 H85      -2.6482    6.6151    6.8710   H         1 RES1   0.0000
   173 H86      -2.4138    7.1516    4.5293   H         1 RES1   0.0000
   174 H87      -2.5765    5.4598    4.0810   H         1 RES1   0.0000
   175 H88      -0.3591    4.9892    5.1688   H         1 RES1   0.0000
   176 H89      -0.2131    6.6996    5.5232   H         1 RES1   0.0000
   177 H90       0.5419    7.1372    3.4398   H         1 RES1   0.0000
   178 H91      -0.8970    6.4525    2.7523   H         1 RES1   0.0000
   179 H92       0.9385    4.3129    3.5270   H         1 RES1   0.0000
   180 H93       1.8036    5.5148    2.5747   H         1 RES1   0.0000
   181 H94      -1.3322    5.7346    1.0321   H         1 RES1   0.0000
   182 H95      -0.6950    4.6889   -0.2371   H         1 RES1   0.0000
   183 H96       1.0238    6.9133    0.9401   H         1 RES1   0.0000
   184 H97      -0.2297    7.2785   -0.2322   H         1 RES1   0.0000
   185 H98       1.7804    7.1332   -1.4345   H         1 RES1   0.0000
   186 H99       0.7674    5.7798   -1.8793   H         1 RES1   0.0000
   187 H100      2.6919    4.6114   -1.6985   H         1 RES1   0.0000
   188 H101      2.3276    4.5715    0.0215   H         1 RES1   0.0000
   189 H102      4.1350    6.5756   -1.4048   H         1 RES1   0.0000
   190 H103      4.6883    5.2075   -0.4567   H         1 RES1   0.0000
   191 H104      3.5343    6.2123    1.5607   H         1 RES1   0.0000
   192 H105      3.1666    7.6323    0.5754   H         1 RES1   0.0000
   193 H106      5.5893    7.9864    0.1804   H         1 RES1   0.0000
   194 H107      5.9600    6.5857    1.1801   H         1 RES1   0.0000
   195 H108      4.5225    9.1176    2.1130   H         1 RES1   0.0000
   196 H109      6.1896    8.6883    2.4777   H         1 RES1   0.0000
   197 H110      4.8701    7.7249    3.1410   H         1 RES1   0.0000
   198 H111      2.6005    3.1117    1.6491   H         1 RES1   0.0000
   199 H112      0.9653    0.8122    2.7946   H         1 RES1   0.0000
   200 H113      1.2314    2.2879    3.7629   H         1 RES1   0.0000
   201 H114      2.5946    1.2981    3.2968   H         1 RES1   0.0000
   202 H115      3.6345    2.1687   -0.2930   H         1 RES1   0.0000
   203 H116      4.8382   -0.1046    0.6123   H         1 RES1   0.0000
   204 H117      3.3730   -0.1872    1.5923   H         1 RES1   0.0000
   205 H118      4.4858    1.1823    1.7614   H         1 RES1   0.0000
   206 H119      3.7502   -0.3632   -4.0921   H         1 RES1   0.0000
   207 H120      2.6388   -1.2350   -3.0214   H         1 RES1   0.0000
   208 H121      4.9228   -2.2094   -2.0145   H         1 RES1   0.0000
   209 H122      5.5367   -1.8619   -3.6341   H         1 RES1   0.0000
   210 H123      3.9916   -3.3745   -4.6519   H         1 RES1   0.0000
   211 H124      3.0192   -3.4900   -3.1898   H         1 RES1   0.0000
   212 H125      5.2827   -4.3121   -2.0864   H         1 RES1   0.0000
   213 H126      5.7743   -4.6492   -3.7419   H         1 RES1   0.0000
   214 H127      4.0048   -6.2767   -4.0109   H         1 RES1   0.0000
   215 H128      3.2348   -5.7936   -2.5016   H         1 RES1   0.0000
   216 H129      5.9664   -7.1174   -2.7966   H         1 RES1   0.0000
   217 H130      4.4865   -7.8863   -2.2428   H         1 RES1   0.0000
   218 H131      4.5221   -6.0125   -0.3671   H         1 RES1   0.0000
   219 H132      6.2264   -5.8734   -0.7916   H         1 RES1   0.0000
   220 H133      4.8436   -8.4376    0.1053   H         1 RES1   0.0000
   221 H134      5.9258   -7.4409    1.0809   H         1 RES1   0.0000
   222 H135      6.5438   -8.2932   -0.3308   H         1 RES1   0.0000
   223 H136      5.9431   -0.2044   -2.0872   H         1 RES1   0.0000
   224 H137      5.4065    1.0147   -0.9418   H         1 RES1   0.0000
   225 H138      4.9585    2.5872   -2.8210   H         1 RES1   0.0000
   226 H139      5.4951    1.3521   -3.9591   H         1 RES1   0.0000
   227 H140      7.4617    2.6120   -3.5922   H         1 RES1   0.0000
   228 H141      7.6525    1.2049   -2.5637   H         1 RES1   0.0000
   229 H142      6.5903    2.7191   -0.6882   H         1 RES1   0.0000
   230 H143      6.9642    4.0492   -1.7743   H         1 RES1   0.0000
   231 H144      9.3258    3.5491   -1.7031   H         1 RES1   0.0000
   232 H145      9.0485    2.0016   -0.9251   H         1 RES1   0.0000
   233 H146      8.4818    4.7182    0.3318   H         1 RES1   0.0000
   234 H147      9.9226    3.7471    0.6042   H         1 RES1   0.0000
   235 H148      7.0756    3.0012    1.4020   H         1 RES1   0.0000
   236 H149      8.3894    3.5185    2.4495   H         1 RES1   0.0000
   237 H150      8.3028    0.9109    0.8619   H         1 RES1   0.0000
   238 H151      8.1710    1.0954    2.6092   H         1 RES1   0.0000
   239 H152      9.6869    1.4649    1.7961   H         1 RES1   0.0000
   240 C77       5.4722    4.3071    4.1637   C.3       1 RES1   0.0000
   241 C78       4.6904    3.0029    4.2570   C.3       1 RES1   0.0000
   242 C79       5.3465    2.0109    5.2232   C.3       1 RES1   0.0000
   243 C80       4.4079    0.9050    5.7297   C.3       1 RES1   0.0000
   244 C81       4.3697   -0.3718    4.8822   C.3       1 RES1   0.0000
   245 C82       3.2074   -1.2764    5.3099   C.3       1 RES1   0.0000
   246 C83       3.3555   -2.7524    4.8970   C.3       1 RES1   0.0000
   247 C84       2.2617   -3.3041    3.9703   C.3       1 RES1   0.0000
   248 N5        2.2672   -2.7030    2.6433   N.am      1 RES1   0.0000
   249 C85       3.4667   -2.9829    1.8517   C.3       1 RES1   0.0000
   250 C86       3.2881   -3.0681    0.3319   C.3       1 RES1   0.0000
   251 C87       2.0290   -3.7138   -0.2861   C.3       1 RES1   0.0000
   252 C88       1.1988   -4.7491    0.4850   C.3       1 RES1   0.0000
   253 C89       1.6919   -6.2027    0.5122   C.3       1 RES1   0.0000
   254 C90       2.1099   -6.6912    1.8984   C.3       1 RES1   0.0000
   255 C91       0.9677   -6.7646    2.9130   C.3       1 RES1   0.0000
   256 C92       1.4456   -7.3275    4.2480   C.3       1 RES1   0.0000
   257 C93       1.2239   -2.0324    2.1475   C.2       1 RES1   0.0000
   258 O7        1.3211   -1.2215    1.2076   O.2       1 RES1   0.0000
   259 C94      -0.1953   -2.3843    2.6535   C.3       1 RES1   0.0000
   260 C95      -0.6584   -1.5560    3.8513   C.3       1 RES1   0.0000
   261 O8       -1.0486   -2.1236    1.5339   O.3       1 RES1   0.0000
   262 C96      -1.8535   -3.2156    1.0965   C.3       1 RES1   0.0000
   263 C97      -3.2319   -3.2053    1.7819   C.3       1 RES1   0.0000
   264 C98      -1.9214   -3.0736   -0.4440   C.2       1 RES1   0.0000
   265 O9       -1.3859   -2.0629   -0.9523   O.2       1 RES1   0.0000
   266 N6       -2.5274   -4.0164   -1.1629   N.am      1 RES1   0.0000
   267 C99      -2.6005   -3.8982   -2.6261   C.3       1 RES1   0.0000
   268 C100     -3.9363   -4.2960   -3.2723   C.3       1 RES1   0.0000
   269 C101     -5.0726   -3.2763   -3.2086   C.3       1 RES1   0.0000
   270 C102     -5.6896   -3.0272   -1.8279   C.3       1 RES1   0.0000
   271 C103     -6.6094   -1.8023   -1.8660   C.3       1 RES1   0.0000
   272 C104     -7.7230   -1.7752   -0.8148   C.3       1 RES1   0.0000
   273 C105     -7.3063   -2.2314    0.5841   C.3       1 RES1   0.0000
   274 C106     -8.2756   -1.7103    1.6395   C.3       1 RES1   0.0000
   275 C107     -3.0036   -5.2851   -0.6233   C.3       1 RES1   0.0000
   276 C108     -2.4156   -6.5200   -1.3157   C.3       1 RES1   0.0000
   277 C109     -3.0931   -7.7876   -0.7864   C.3       1 RES1   0.0000
   278 C110     -2.6322   -8.1938    0.6138   C.3       1 RES1   0.0000
   279 C111     -3.6078   -9.1755    1.2616   C.3       1 RES1   0.0000
   280 C112     -3.2311   -9.5540    2.6938   C.3       1 RES1   0.0000
   281 C113     -3.1845   -8.3750    3.6667   C.3       1 RES1   0.0000
   282 C114     -4.4851   -7.5802    3.7151   C.3       1 RES1   0.0000
   283 H153      5.0386    4.9695    3.4183   H         1 RES1   0.0000
   284 H154      6.5038    4.1185    3.8858   H         1 RES1   0.0000
   285 H155      5.4665    4.8255    5.1176   H         1 RES1   0.0000
   286 H156      4.6177    2.5644    3.2573   H         1 RES1   0.0000
   287 H157      3.6773    3.2250    4.5991   H         1 RES1   0.0000
   288 H158      5.7018    2.5712    6.0896   H         1 RES1   0.0000
   289 H159      6.2245    1.5648    4.7525   H         1 RES1   0.0000
   290 H160      3.3990    1.3119    5.8204   H         1 RES1   0.0000
   291 H161      4.7247    0.6176    6.7326   H         1 RES1   0.0000
   292 H162      5.3106   -0.9004    5.0176   H         1 RES1   0.0000
   293 H163      4.2799   -0.1289    3.8232   H         1 RES1   0.0000
   294 H164      2.2796   -0.8671    4.9046   H         1 RES1   0.0000
   295 H165      3.1319   -1.2204    6.3973   H         1 RES1   0.0000
   296 H166      3.3202   -3.3698    5.7924   H         1 RES1   0.0000
   297 H167      4.3330   -2.9073    4.4498   H         1 RES1   0.0000
   298 H168      1.2975   -3.1342    4.4401   H         1 RES1   0.0000
   299 H169      2.4175   -4.3826    3.8805   H         1 RES1   0.0000
   300 H170      3.8400   -3.9407    2.2171   H         1 RES1   0.0000
   301 H171      4.2447   -2.2408    2.0501   H         1 RES1   0.0000
   302 H172      4.1710   -3.5958   -0.0267   H         1 RES1   0.0000
   303 H173      3.3270   -2.0598   -0.0787   H         1 RES1   0.0000
   304 H174      2.3329   -4.1682   -1.2309   H         1 RES1   0.0000
   305 H175      1.3420   -2.8959   -0.5461   H         1 RES1   0.0000
   306 H176      0.2210   -4.7388   -0.0006   H         1 RES1   0.0000
   307 H177      1.0607   -4.4159    1.5085   H         1 RES1   0.0000
   308 H178      2.5298   -6.3263   -0.1685   H         1 RES1   0.0000
   309 H179      0.8929   -6.8493    0.1502   H         1 RES1   0.0000
   310 H180      2.9023   -6.0512    2.2882   H         1 RES1   0.0000
   311 H181      2.5274   -7.6921    1.7930   H         1 RES1   0.0000
   312 H182      0.1781   -7.4060    2.5204   H         1 RES1   0.0000
   313 H183      0.5274   -5.7760    3.0808   H         1 RES1   0.0000
   314 H184      1.7615   -8.3586    4.1264   H         1 RES1   0.0000
   315 H185      0.6540   -7.3020    4.9925   H         1 RES1   0.0000
   316 H186      2.2920   -6.7627    4.6291   H         1 RES1   0.0000
   317 H187     -0.2181   -3.4566    2.9002   H         1 RES1   0.0000
   318 H188     -1.0187   -0.5990    3.4895   H         1 RES1   0.0000
   319 H189      0.1394   -1.3932    4.5690   H         1 RES1   0.0000
   320 H190     -1.4725   -2.0682    4.3556   H         1 RES1   0.0000
   321 H191     -1.3427   -4.1590    1.3331   H         1 RES1   0.0000
   322 H192     -3.9788   -2.6892    1.1915   H         1 RES1   0.0000
   323 H193     -3.1539   -2.6990    2.7379   H         1 RES1   0.0000
   324 H194     -3.5877   -4.2137    1.9808   H         1 RES1   0.0000
   325 H195     -1.8210   -4.5276   -3.0602   H         1 RES1   0.0000
   326 H196     -2.3714   -2.8660   -2.8822   H         1 RES1   0.0000
   327 H197     -4.2964   -5.2504   -2.8998   H         1 RES1   0.0000
   328 H198     -3.7150   -4.4313   -4.3313   H         1 RES1   0.0000
   329 H199     -5.8695   -3.6339   -3.8632   H         1 RES1   0.0000
   330 H200     -4.7187   -2.3366   -3.6331   H         1 RES1   0.0000
   331 H201     -4.9109   -2.8815   -1.0738   H         1 RES1   0.0000
   332 H202     -6.2665   -3.9034   -1.5377   H         1 RES1   0.0000
   333 H203     -7.0794   -1.7490   -2.8481   H         1 RES1   0.0000
   334 H204     -5.9971   -0.9026   -1.7652   H         1 RES1   0.0000
   335 H205     -8.5511   -2.3989   -1.1517   H         1 RES1   0.0000
   336 H206     -8.0997   -0.7517   -0.7579   H         1 RES1   0.0000
   337 H207     -6.3028   -1.8739    0.8269   H         1 RES1   0.0000
   338 H208     -7.2839   -3.3205    0.6195   H         1 RES1   0.0000
   339 H209     -8.2434   -0.6232    1.6753   H         1 RES1   0.0000
   340 H210     -8.0241   -2.0918    2.6277   H         1 RES1   0.0000
   341 H211     -9.2927   -2.0113    1.4007   H         1 RES1   0.0000
   342 H212     -4.0925   -5.3243   -0.6992   H         1 RES1   0.0000
   343 H213     -2.7508   -5.3493    0.4283   H         1 RES1   0.0000
   344 H214     -1.3412   -6.5655   -1.1405   H         1 RES1   0.0000
   345 H215     -2.5815   -6.4739   -2.3892   H         1 RES1   0.0000
   346 H216     -2.8959   -8.6098   -1.4762   H         1 RES1   0.0000
   347 H217     -4.1740   -7.6230   -0.7777   H         1 RES1   0.0000
   348 H218     -2.5494   -7.3089    1.2441   H         1 RES1   0.0000
   349 H219     -1.6441   -8.6509    0.5537   H         1 RES1   0.0000
   350 H220     -3.6472  -10.0822    0.6582   H         1 RES1   0.0000
   351 H221     -4.6105   -8.7459    1.2616   H         1 RES1   0.0000
   352 H222     -2.2555  -10.0438    2.6903   H         1 RES1   0.0000
   353 H223     -3.9647  -10.2768    3.0572   H         1 RES1   0.0000
   354 H224     -2.3609   -7.7058    3.4056   H         1 RES1   0.0000
   355 H225     -2.9736   -8.7685    4.6610   H         1 RES1   0.0000
   356 H226     -4.6469   -7.0276    2.7906   H         1 RES1   0.0000
   357 H227     -4.4622   -6.8662    4.5365   H         1 RES1   0.0000
   358 H228     -5.3331   -8.2446    3.8637   H         1 RES1   0.0000
@<TRIPOS>BOND
     1     1    20    1
     2     1    23    1
     3     1    27    1
     4     1   139    1
     5     1   142    1
     6     1   146    1
     7     1   258    1
     8     1   261    1
     9     1   265    1
    10     2     3    1
    11     2    45    1
    12     2    46    1
    13     2    47    1
    14     3     4    1
    15     3    48    1
    16     3    49    1
    17     4     5    1
    18     4    50    1
    19     4    51    1
    20     5     6    1
    21     5    52    1
    22     5    53    1
    23     6     7    1
    24     6    54    1
    25     6    55    1
    26     7     8    1
    27     7    56    1
    28     7    57    1
    29     8     9    1
    30     8    58    1
    31     8    59    1
    32     9    10    1
    33     9    60    1
    34     9    61    1
    35    10    11    1
    36    10    19    1
    37    11    12    1
    38    11    62    1
    39    11    63    1
    40    12    13    1
    41    12    64    1
    42    12    65    1
    43    13    14    1
    44    13    66    1
    45    13    67    1
    46    14    15    1
    47    14    68    1
    48    14    69    1
    49    15    16    1
    50    15    70    1
    51    15    71    1
    52    16    17    1
    53    16    72    1
    54    16    73    1
    55    17    18    1
    56    17    74    1
    57    17    75    1
    58    18    76    1
    59    18    77    1
    60    18    78    1
    61    19    20    2
    62    19    21    1
    63    21    22    1
    64    21    23    1
    65    21    79    1
    66    22    80    1
    67    22    81    1
    68    22    82    1
    69    23    24    1
    70    24    25    1
    71    24    26    1
    72    24    83    1
    73    25    84    1
    74    25    85    1
    75    25    86    1
    76    26    27    2
    77    26    28    1
    78    28    29    1
    79    28    37    1
    80    29    30    1
    81    29    87    1
    82    29    88    1
    83    30    31    1
    84    30    89    1
    85    30    90    1
    86    31    32    1
    87    31    91    1
    88    31    92    1
    89    32    33    1
    90    32    93    1
    91    32    94    1
    92    33    34    1
    93    33    95    1
    94    33    96    1
    95    34    35    1
    96    34    97    1
    97    34    98    1
    98    35    36    1
    99    35    99    1
   100    35   100    1
   101    36   101    1
   102    36   102    1
   103    36   103    1
   104    37    38    1
   105    37   104    1
   106    37   105    1
   107    38    39    1
   108    38   106    1
   109    38   107    1
   110    39    40    1
   111    39   108    1
   112    39   109    1
   113    40    41    1
   114    40   110    1
   115    40   111    1
   116    41    42    1
   117    41   112    1
   118    41   113    1
   119    42    43    1
   120    42   114    1
   121    42   115    1
   122    43    44    1
   123    43   116    1
   124    43   117    1
   125    44   118    1
   126    44   119    1
   127    44   120    1
   128   121   122    1
   129   121   164    1
   130   121   165    1
   131   121   166    1
   132   122   123    1
   133   122   167    1
   134   122   168    1
   135   123   124    1
   136   123   169    1
   137   123   170    1
   138   124   125    1
   139   124   171    1
   140   124   172    1
   141   125   126    1
   142   125   173    1
   143   125   174    1
   144   126   127    1
   145   126   175    1
   146   126   176    1
   147   127   128    1
   148   127   177    1
   149   127   178    1
   150   128   129    1
   151   128   179    1
   152   128   180    1
   153   129   130    1
   154   129   138    1
   155   130   131    1
   156   130   181    1
   157   130   182    1
   158   131   132    1
   159   131   183    1
   160   131   184    1
   161   132   133    1
   162   132   185    1
   163   132   186    1
   164   133   134    1
   165   133   187    1
   166   133   188    1
   167   134   135    1
   168   134   189    1
   169   134   190    1
   170   135   136    1
   171   135   191    1
   172   135   192    1
   173   136   137    1
   174   136   193    1
   175   136   194    1
   176   137   195    1
   177   137   196    1
   178   137   197    1
   179   138   139    2
   180   138   140    1
   181   140   141    1
   182   140   142    1
   183   140   198    1
   184   141   199    1
   185   141   200    1
   186   141   201    1
   187   142   143    1
   188   143   144    1
   189   143   145    1
   190   143   202    1
   191   144   203    1
   192   144   204    1
   193   144   205    1
   194   145   146    2
   195   145   147    1
   196   147   148    1
   197   147   156    1
   198   148   149    1
   199   148   206    1
   200   148   207    1
   201   149   150    1
   202   149   208    1
   203   149   209    1
   204   150   151    1
   205   150   210    1
   206   150   211    1
   207   151   152    1
   208   151   212    1
   209   151   213    1
   210   152   153    1
   211   152   214    1
   212   152   215    1
   213   153   154    1
   214   153   216    1
   215   153   217    1
   216   154   155    1
   217   154   218    1
   218   154   219    1
   219   155   220    1
   220   155   221    1
   221   155   222    1
   222   156   157    1
   223   156   223    1
   224   156   224    1
   225   157   158    1
   226   157   225    1
   227   157   226    1
   228   158   159    1
   229   158   227    1
   230   158   228    1
   231   159   160    1
   232   159   229    1
   233   159   230    1
   234   160   161    1
   235   160   231    1
   236   160   232    1
   237   161   162    1
   238   161   233    1
   239   161   234    1
   240   162   163    1
   241   162   235    1
   242   162   236    1
   243   163   237    1
   244   163   238    1
   245   163   239    1
   246   240   241    1
   247   240   283    1
   248   240   284    1
   249   240   285    1
   250   241   242    1
   251   241   286    1
   252   241   287    1
   253   242   243    1
   254   242   288    1
   255   242   289    1
   256   243   244    1
   257   243   290    1
   258   243   291    1
   259   244   245    1
   260   244   292    1
   261   244   293    1
   262   245   246    1
   263   245   294    1
   264   245   295    1
   265   246   247    1
   266   246   296    1
   267   246   297    1
   268   247   248    1
   269   247   298    1
   270   247   299    1
   271   248   249    1
   272   248   257    1
   273   249   250    1
   274   249   300    1
   275   249   301    1
   276   250   251    1
   277   250   302    1
   278   250   303    1
   279   251   252    1
   280   251   304    1
   281   251   305    1
   282   252   253    1
   283   252   306    1
   284   252   307    1
   285   253   254    1
   286   253   308    1
   287   253   309    1
   288   254   255    1
   289   254   310    1
   290   254   311    1
   291   255   256    1
   292   255   312    1
   293   255   313    1
   294   256   314    1
   295   256   315    1
   296   256   316    1
   297   257   258    2
   298   257   259    1
   299   259   260    1
   300   259   261    1
   301   259   317    1
   302   260   318    1
   303   260   319    1
   304   260   320    1
   305   261   262    1
   306   262   263    1
   307   262   264    1
   308   262   321    1
   309   263   322    1
   310   263   323    1
   311   263   324    1
   312   264   265    2
   313   264   266    1
   314   266   267    1
   315   266   275    1
   316   267   268    1
   317   267   325    1
   318   267   326    1
   319   268   269    1
   320   268   327    1
   321   268   328    1
   322   269   270    1
   323   269   329    1
   324   269   330    1
   325   270   271    1
   326   270   331    1
   327   270   332    1
   328   271   272    1
   329   271   333    1
   330   271   334    1
   331   272   273    1
   332   272   335    1
   333   272   336    1
   334   273   274    1
   335   273   337    1
   336   273   338    1
   337   274   339    1
   338   274   340    1
   339   274   341    1
   340   275   276    1
   341   275   342    1
   342   275   343    1
   343   276   277    1
   344   276   344    1
   345   276   345    1
   346   277   278    1
   347   277   346    1
   348   277   347    1
   349   278   279    1
   350   278   348    1
   351   278   349    1
   352   279   280    1
   353   279   350    1
   354   279   351    1
   355   280   281    1
   356   280   352    1
   357   280   353    1
   358   281   282    1
   359   281   354    1
   360   281   355    1
   361   282   356    1
   362   282   357    1
   363   282   358    1
@<TRIPOS>SUBSTRUCTURE
     1 RES1      358 GROUP             0 ****  ****    0  
