@<TRIPOS>MOLECULE
cn9_YICLED_0_nunpairedes_0_charge_3 Charge: 3 Unpaired_Electrons: 2 XTB_Unpaired_Electrons: 0 XTB_Charge: 3
   358   363     1     0     0
SMALL
NoCharges
****
Generated from Architector

@<TRIPOS>ATOM
     1 Pr1       0.2303    0.0825    0.0467   Pr        1 RES1   0.0000
     2 C1        8.3755   -1.3673    4.9745   C.3       1 RES1   0.0000
     3 C2        8.4585   -0.4655    3.7483   C.3       1 RES1   0.0000
     4 C3        7.2761    0.4960    3.6587   C.3       1 RES1   0.0000
     5 C4        7.3392    1.5546    4.7534   C.3       1 RES1   0.0000
     6 C5        6.2187    2.5968    4.7096   C.3       1 RES1   0.0000
     7 C6        5.0046    2.2625    5.5872   C.3       1 RES1   0.0000
     8 C7        3.8523    1.4678    4.9699   C.3       1 RES1   0.0000
     9 C8        3.1025    2.1941    3.8444   C.3       1 RES1   0.0000
    10 N1        1.6448    2.1496    3.9683   N.am      1 RES1   0.0000
    11 C9        1.0492    3.2758    4.7048   C.3       1 RES1   0.0000
    12 C10       1.6324    3.5439    6.0931   C.3       1 RES1   0.0000
    13 C11       1.0408    2.6345    7.1680   C.3       1 RES1   0.0000
    14 C12       1.9567    2.5611    8.3891   C.3       1 RES1   0.0000
    15 C13       1.7211    1.3116    9.2387   C.3       1 RES1   0.0000
    16 C14       2.1583    0.0058    8.5653   C.3       1 RES1   0.0000
    17 C15       3.6766   -0.1633    8.4986   C.3       1 RES1   0.0000
    18 C16       4.0769   -1.2879    7.5483   C.3       1 RES1   0.0000
    19 C17       0.9751    1.3452    3.1491   C.2       1 RES1   0.0000
    20 O1        1.5075    0.5438    2.3558   O.2       1 RES1   0.0000
    21 C18      -0.5367    1.5498    3.0113   C.3       1 RES1   0.0000
    22 C19      -0.5841    2.7948    2.1349   C.3       1 RES1   0.0000
    23 O2       -1.1647    0.4779    2.2730   O.3       1 RES1   0.0000
    24 C20      -1.4026   -0.7249    3.0303   C.3       1 RES1   0.0000
    25 C21      -2.7690   -0.7876    3.6833   C.3       1 RES1   0.0000
    26 C22      -1.0056   -1.9295    2.1635   C.2       1 RES1   0.0000
    27 O3       -0.0932   -1.7198    1.3356   O.2       1 RES1   0.0000
    28 N2       -1.3986   -3.1850    2.4431   N.am      1 RES1   0.0000
    29 C23      -2.7682   -3.6885    2.5953   C.3       1 RES1   0.0000
    30 C24      -3.7087   -3.3623    1.4016   C.3       1 RES1   0.0000
    31 C25      -4.0137   -4.5632    0.4852   C.3       1 RES1   0.0000
    32 C26      -5.2051   -4.4070   -0.4911   C.3       1 RES1   0.0000
    33 C27      -4.7985   -4.4345   -1.9715   C.3       1 RES1   0.0000
    34 C28      -5.9809   -4.3063   -2.9378   C.3       1 RES1   0.0000
    35 C29      -6.5488   -2.8843   -3.0304   C.3       1 RES1   0.0000
    36 C30      -7.1213   -2.6064   -4.4150   C.3       1 RES1   0.0000
    37 C31      -0.2810   -4.1402    2.4688   C.3       1 RES1   0.0000
    38 C32       0.5547   -3.9393    3.7446   C.3       1 RES1   0.0000
    39 C33      -0.2192   -4.3237    5.0116   C.3       1 RES1   0.0000
    40 C34       0.4415   -3.8999    6.3310   C.3       1 RES1   0.0000
    41 C35      -0.0801   -4.7145    7.5221   C.3       1 RES1   0.0000
    42 C36      -1.5713   -4.5258    7.8135   C.3       1 RES1   0.0000
    43 C37      -1.9419   -5.0944    9.1861   C.3       1 RES1   0.0000
    44 C38      -3.4181   -4.9265    9.5364   C.3       1 RES1   0.0000
    45 H1        9.1474   -2.1295    4.9219   H         1 RES1   0.0000
    46 H2        8.5250   -0.8000    5.8904   H         1 RES1   0.0000
    47 H3        7.4000   -1.8520    5.0258   H         1 RES1   0.0000
    48 H4        9.3834    0.1115    3.7828   H         1 RES1   0.0000
    49 H5        8.4972   -1.0774    2.8450   H         1 RES1   0.0000
    50 H6        7.3031    0.9998    2.6881   H         1 RES1   0.0000
    51 H7        6.3418   -0.0677    3.7352   H         1 RES1   0.0000
    52 H8        7.3304    1.0748    5.7299   H         1 RES1   0.0000
    53 H9        8.2912    2.0772    4.6621   H         1 RES1   0.0000
    54 H10       6.6216    3.5265    5.1115   H         1 RES1   0.0000
    55 H11       5.9485    2.7927    3.6691   H         1 RES1   0.0000
    56 H12       5.3637    1.6726    6.4336   H         1 RES1   0.0000
    57 H13       4.6215    3.2034    5.9834   H         1 RES1   0.0000
    58 H14       4.2420    0.5189    4.6069   H         1 RES1   0.0000
    59 H15       3.1481    1.2310    5.7697   H         1 RES1   0.0000
    60 H16       3.3899    3.2438    3.8299   H         1 RES1   0.0000
    61 H17       3.3522    1.7435    2.8835   H         1 RES1   0.0000
    62 H18       1.2261    4.1750    4.1062   H         1 RES1   0.0000
    63 H19      -0.0264    3.1437    4.8145   H         1 RES1   0.0000
    64 H20       2.7132    3.4497    6.0709   H         1 RES1   0.0000
    65 H21       1.4216    4.5893    6.3336   H         1 RES1   0.0000
    66 H22       0.0537    3.0078    7.4515   H         1 RES1   0.0000
    67 H23       0.9091    1.6315    6.7630   H         1 RES1   0.0000
    68 H24       2.9968    2.5878    8.0628   H         1 RES1   0.0000
    69 H25       1.7959    3.4474    8.9992   H         1 RES1   0.0000
    70 H26       2.2763    1.4225   10.1705   H         1 RES1   0.0000
    71 H27       0.6620    1.2546    9.4967   H         1 RES1   0.0000
    72 H28       1.7435   -0.8284    9.1312   H         1 RES1   0.0000
    73 H29       1.7466   -0.0623    7.5508   H         1 RES1   0.0000
    74 H30       4.1402    0.7685    8.1727   H         1 RES1   0.0000
    75 H31       4.0581   -0.3785    9.4968   H         1 RES1   0.0000
    76 H32       3.6662   -1.1099    6.5526   H         1 RES1   0.0000
    77 H33       5.1591   -1.3622    7.4718   H         1 RES1   0.0000
    78 H34       3.7006   -2.2442    7.9037   H         1 RES1   0.0000
    79 H35      -1.0525    1.6764    3.9693   H         1 RES1   0.0000
    80 H36      -0.0670    2.5634    1.1962   H         1 RES1   0.0000
    81 H37      -1.6055    3.0592    1.8964   H         1 RES1   0.0000
    82 H38      -0.0872    3.6320    2.6059   H         1 RES1   0.0000
    83 H39      -0.6231   -0.7627    3.8113   H         1 RES1   0.0000
    84 H40      -3.5416   -1.0004    2.9559   H         1 RES1   0.0000
    85 H41      -2.7612   -1.5489    4.4570   H         1 RES1   0.0000
    86 H42      -2.9881    0.1491    4.1839   H         1 RES1   0.0000
    87 H43      -2.6930   -4.7663    2.7135   H         1 RES1   0.0000
    88 H44      -3.2160   -3.3263    3.5194   H         1 RES1   0.0000
    89 H45      -4.6489   -2.9991    1.8167   H         1 RES1   0.0000
    90 H46      -3.2592   -2.5521    0.8240   H         1 RES1   0.0000
    91 H47      -3.1181   -4.7888   -0.0947   H         1 RES1   0.0000
    92 H48      -4.2098   -5.4290    1.1154   H         1 RES1   0.0000
    93 H49      -5.8818   -5.2510   -0.3619   H         1 RES1   0.0000
    94 H50      -5.7826   -3.5038   -0.2832   H         1 RES1   0.0000
    95 H51      -4.1021   -3.6270   -2.2103   H         1 RES1   0.0000
    96 H52      -4.2831   -5.3791   -2.1741   H         1 RES1   0.0000
    97 H53      -5.6449   -4.6101   -3.9319   H         1 RES1   0.0000
    98 H54      -6.7676   -4.9992   -2.6489   H         1 RES1   0.0000
    99 H55      -7.3200   -2.7314   -2.2727   H         1 RES1   0.0000
   100 H56      -5.7451   -2.1643   -2.8409   H         1 RES1   0.0000
   101 H57      -7.9084   -3.3170   -4.6539   H         1 RES1   0.0000
   102 H58      -7.5320   -1.6008   -4.4622   H         1 RES1   0.0000
   103 H59      -6.3409   -2.6949   -5.1697   H         1 RES1   0.0000
   104 H60      -0.6727   -5.1503    2.4541   H         1 RES1   0.0000
   105 H61       0.3399   -3.9886    1.5846   H         1 RES1   0.0000
   106 H62       1.4426   -4.5769    3.6790   H         1 RES1   0.0000
   107 H63       0.8983   -2.9002    3.7996   H         1 RES1   0.0000
   108 H64      -1.2221   -3.8979    4.9672   H         1 RES1   0.0000
   109 H65      -0.3135   -5.4096    5.0201   H         1 RES1   0.0000
   110 H66       1.5247   -4.0380    6.2709   H         1 RES1   0.0000
   111 H67       0.2499   -2.8400    6.5299   H         1 RES1   0.0000
   112 H68       0.1211   -5.7742    7.3506   H         1 RES1   0.0000
   113 H69       0.4764   -4.4149    8.4140   H         1 RES1   0.0000
   114 H70      -1.8066   -3.4593    7.7968   H         1 RES1   0.0000
   115 H71      -2.1722   -5.0137    7.0416   H         1 RES1   0.0000
   116 H72      -1.6920   -6.1560    9.2098   H         1 RES1   0.0000
   117 H73      -1.3410   -4.5959    9.9506   H         1 RES1   0.0000
   118 H74      -4.0524   -5.4804    8.8474   H         1 RES1   0.0000
   119 H75      -3.6036   -5.3057   10.5384   H         1 RES1   0.0000
   120 H76      -3.7111   -3.8779    9.5092   H         1 RES1   0.0000
   121 C39       4.9128    5.1089   -5.7266   C.3       1 RES1   0.0000
   122 C40       4.6201    4.6471   -4.3041   C.3       1 RES1   0.0000
   123 C41       3.7504    3.3882   -4.2433   C.3       1 RES1   0.0000
   124 C42       4.4636    2.1416   -4.7580   C.3       1 RES1   0.0000
   125 C43       3.5935    0.8855   -4.7173   C.3       1 RES1   0.0000
   126 C44       2.4101    0.9312   -5.7015   C.3       1 RES1   0.0000
   127 C45       1.0239    0.9208   -5.0449   C.3       1 RES1   0.0000
   128 C46       0.7181   -0.4597   -4.4629   C.3       1 RES1   0.0000
   129 N3       -0.6564   -0.7205   -4.0180   N.am      1 RES1   0.0000
   130 C47      -1.4827   -1.5108   -4.9214   C.3       1 RES1   0.0000
   131 C48      -1.8607   -0.7304   -6.1777   C.3       1 RES1   0.0000
   132 C49      -2.8752    0.3721   -5.8854   C.3       1 RES1   0.0000
   133 C50      -3.3377    1.0193   -7.1876   C.3       1 RES1   0.0000
   134 C51      -4.4621    2.0389   -7.0139   C.3       1 RES1   0.0000
   135 C52      -4.0251    3.3628   -6.3867   C.3       1 RES1   0.0000
   136 C53      -3.1958    4.2516   -7.3128   C.3       1 RES1   0.0000
   137 C54      -3.1621    5.6826   -6.7855   C.3       1 RES1   0.0000
   138 C55      -0.9632   -0.3781   -2.7764   C.2       1 RES1   0.0000
   139 O4       -0.2112    0.3585   -2.1032   O.2       1 RES1   0.0000
   140 C56      -2.1620   -1.0179   -2.0540   C.3       1 RES1   0.0000
   141 C57      -1.7579   -2.4447   -1.6807   C.3       1 RES1   0.0000
   142 O5       -2.3951   -0.3401   -0.8149   O.3       1 RES1   0.0000
   143 C58      -3.5509    0.5287   -0.8249   C.3       1 RES1   0.0000
   144 C59      -4.8156   -0.2754   -0.5559   C.3       1 RES1   0.0000
   145 C60      -3.1480    1.7661    0.0110   C.2       1 RES1   0.0000
   146 O6       -1.9415    2.0454   -0.0907   O.2       1 RES1   0.0000
   147 N4       -4.0331    2.5715    0.6252   N.am      1 RES1   0.0000
   148 C61      -5.1899    2.1336    1.4048   C.3       1 RES1   0.0000
   149 C62      -4.7562    1.6816    2.8172   C.3       1 RES1   0.0000
   150 C63      -4.9745    2.6596    3.9820   C.3       1 RES1   0.0000
   151 C64      -4.7424    1.9911    5.3577   C.3       1 RES1   0.0000
   152 C65      -3.3414    2.1576    5.9575   C.3       1 RES1   0.0000
   153 C66      -3.1888    1.5518    7.3606   C.3       1 RES1   0.0000
   154 C67      -3.3581    0.0307    7.4605   C.3       1 RES1   0.0000
   155 C68      -2.7070   -0.5083    8.7373   C.3       1 RES1   0.0000
   156 C69      -3.7072    4.0002    0.7657   C.3       1 RES1   0.0000
   157 C70      -3.5467    4.6702   -0.5940   C.3       1 RES1   0.0000
   158 C71      -4.8397    4.5680   -1.3975   C.3       1 RES1   0.0000
   159 C72      -4.6755    5.0605   -2.8310   C.3       1 RES1   0.0000
   160 C73      -6.0093    5.1338   -3.5778   C.3       1 RES1   0.0000
   161 C74      -6.7177    3.7854   -3.7181   C.3       1 RES1   0.0000
   162 C75      -7.8269    3.8442   -4.7644   C.3       1 RES1   0.0000
   163 C76      -8.5228    2.5031   -4.9400   C.3       1 RES1   0.0000
   164 H77       5.4155    6.0712   -5.7083   H         1 RES1   0.0000
   165 H78       5.5577    4.4082   -6.2466   H         1 RES1   0.0000
   166 H79       3.9902    5.2127   -6.2909   H         1 RES1   0.0000
   167 H80       5.5644    4.4710   -3.7832   H         1 RES1   0.0000
   168 H81       4.1068    5.4539   -3.7749   H         1 RES1   0.0000
   169 H82       3.4369    3.2079   -3.2067   H         1 RES1   0.0000
   170 H83       2.8477    3.5603   -4.8331   H         1 RES1   0.0000
   171 H84       4.7967    2.3037   -5.7814   H         1 RES1   0.0000
   172 H85       5.3465    1.9596   -4.1449   H         1 RES1   0.0000
   173 H86       4.2225    0.0222   -4.9473   H         1 RES1   0.0000
   174 H87       3.2220    0.7422   -3.6984   H         1 RES1   0.0000
   175 H88       2.4880    1.8255   -6.3201   H         1 RES1   0.0000
   176 H89       2.4706    0.0753   -6.3771   H         1 RES1   0.0000
   177 H90       0.9726    1.6716   -4.2572   H         1 RES1   0.0000
   178 H91       0.2851    1.1764   -5.8037   H         1 RES1   0.0000
   179 H92       0.9527   -1.2162   -5.2115   H         1 RES1   0.0000
   180 H93       1.3540   -0.6051   -3.5855   H         1 RES1   0.0000
   181 H94      -0.9152   -2.4052   -5.2017   H         1 RES1   0.0000
   182 H95      -2.3987   -1.8291   -4.4263   H         1 RES1   0.0000
   183 H96      -0.9682   -0.3038   -6.6348   H         1 RES1   0.0000
   184 H97      -2.2920   -1.4328   -6.8937   H         1 RES1   0.0000
   185 H98      -3.7401   -0.0606   -5.3782   H         1 RES1   0.0000
   186 H99      -2.4284    1.1140   -5.2225   H         1 RES1   0.0000
   187 H100     -2.4894    1.4900   -7.6835   H         1 RES1   0.0000
   188 H101     -3.6967    0.2243   -7.8427   H         1 RES1   0.0000
   189 H102     -4.8947    2.2457   -7.9950   H         1 RES1   0.0000
   190 H103     -5.2565    1.6012   -6.4031   H         1 RES1   0.0000
   191 H104     -4.9251    3.9161   -6.1195   H         1 RES1   0.0000
   192 H105     -3.4640    3.1812   -5.4647   H         1 RES1   0.0000
   193 H106     -2.1780    3.8655   -7.4045   H         1 RES1   0.0000
   194 H107     -3.6372    4.2528   -8.3107   H         1 RES1   0.0000
   195 H108     -2.7745    5.7108   -5.7684   H         1 RES1   0.0000
   196 H109     -2.5426    6.3190   -7.4122   H         1 RES1   0.0000
   197 H110     -4.1682    6.0959   -6.7772   H         1 RES1   0.0000
   198 H111     -3.0781   -1.0015   -2.6520   H         1 RES1   0.0000
   199 H112     -0.8409   -2.3956   -1.0853   H         1 RES1   0.0000
   200 H113     -2.5461   -2.8894   -1.0820   H         1 RES1   0.0000
   201 H114     -1.5784   -3.0625   -2.5559   H         1 RES1   0.0000
   202 H115     -3.6137    0.9744   -1.8310   H         1 RES1   0.0000
   203 H116     -4.8859   -0.5756    0.4829   H         1 RES1   0.0000
   204 H117     -5.6985    0.2811   -0.8553   H         1 RES1   0.0000
   205 H118     -4.8046   -1.1811   -1.1594   H         1 RES1   0.0000
   206 H119     -5.9013    2.9555    1.4656   H         1 RES1   0.0000
   207 H120     -5.6871    1.3122    0.9029   H         1 RES1   0.0000
   208 H121     -5.3138    0.7749    3.0668   H         1 RES1   0.0000
   209 H122     -3.6959    1.4410    2.7436   H         1 RES1   0.0000
   210 H123     -4.3343    3.5372    3.8807   H         1 RES1   0.0000
   211 H124     -6.0125    2.9941    3.9476   H         1 RES1   0.0000
   212 H125     -5.4345    2.4253    6.0779   H         1 RES1   0.0000
   213 H126     -4.9870    0.9316    5.2715   H         1 RES1   0.0000
   214 H127     -2.5758    1.7181    5.3042   H         1 RES1   0.0000
   215 H128     -3.1218    3.2275    6.0311   H         1 RES1   0.0000
   216 H129     -2.1872    1.8019    7.7202   H         1 RES1   0.0000
   217 H130     -3.9044    2.0203    8.0354   H         1 RES1   0.0000
   218 H131     -4.4182   -0.2340    7.4552   H         1 RES1   0.0000
   219 H132     -2.8882   -0.4592    6.6006   H         1 RES1   0.0000
   220 H133     -3.0958    0.0059    9.6156   H         1 RES1   0.0000
   221 H134     -2.9168   -1.5724    8.8517   H         1 RES1   0.0000
   222 H135     -1.6262   -0.3606    8.6946   H         1 RES1   0.0000
   223 H136     -4.5300    4.4687    1.2988   H         1 RES1   0.0000
   224 H137     -2.8029    4.1513    1.3516   H         1 RES1   0.0000
   225 H138     -3.2732    5.7132   -0.4260   H         1 RES1   0.0000
   226 H139     -2.7250    4.1927   -1.1277   H         1 RES1   0.0000
   227 H140     -5.1614    3.5261   -1.4101   H         1 RES1   0.0000
   228 H141     -5.6170    5.1552   -0.9051   H         1 RES1   0.0000
   229 H142     -4.2308    6.0581   -2.8164   H         1 RES1   0.0000
   230 H143     -3.9972    4.3934   -3.3761   H         1 RES1   0.0000
   231 H144     -6.6664    5.8362   -3.0595   H         1 RES1   0.0000
   232 H145     -5.8209    5.5463   -4.5720   H         1 RES1   0.0000
   233 H146     -5.9872    3.0252   -4.0082   H         1 RES1   0.0000
   234 H147     -7.1442    3.4934   -2.7564   H         1 RES1   0.0000
   235 H148     -8.5580    4.5979   -4.4727   H         1 RES1   0.0000
   236 H149     -7.4031    4.1500   -5.7211   H         1 RES1   0.0000
   237 H150     -9.0265    2.2051   -4.0251   H         1 RES1   0.0000
   238 H151     -9.2616    2.5619   -5.7317   H         1 RES1   0.0000
   239 H152     -7.8093    1.7259   -5.2033   H         1 RES1   0.0000
   240 C77      -0.0434    4.7938   -4.8274   C.3       1 RES1   0.0000
   241 C78      -0.7246    4.0116   -3.7113   C.3       1 RES1   0.0000
   242 C79       0.0337    4.1239   -2.3877   C.3       1 RES1   0.0000
   243 C80       0.1080    5.5773   -1.9138   C.3       1 RES1   0.0000
   244 C81       0.4788    5.7587   -0.4366   C.3       1 RES1   0.0000
   245 C82       1.9485    6.1067   -0.1822   C.3       1 RES1   0.0000
   246 C83       2.9629    5.0172   -0.5460   C.3       1 RES1   0.0000
   247 C84       2.7604    3.8159    0.3728   C.3       1 RES1   0.0000
   248 N5        3.6863    2.6786    0.2377   N.am      1 RES1   0.0000
   249 C85       5.0861    3.0199    0.4611   C.3       1 RES1   0.0000
   250 C86       5.9047    3.2443   -0.8206   C.3       1 RES1   0.0000
   251 C87       6.7787    2.0591   -1.2530   C.3       1 RES1   0.0000
   252 C88       8.0806    2.5474   -1.8921   C.3       1 RES1   0.0000
   253 C89       8.9175    1.4363   -2.5284   C.3       1 RES1   0.0000
   254 C90       8.3785    0.9452   -3.8724   C.3       1 RES1   0.0000
   255 C91       8.4141    2.0117   -4.9667   C.3       1 RES1   0.0000
   256 C92       8.0778    1.4159   -6.3268   C.3       1 RES1   0.0000
   257 C93       3.1358    1.4877    0.0229   C.2       1 RES1   0.0000
   258 O7        1.9186    1.4285   -0.2717   O.2       1 RES1   0.0000
   259 C94       3.8766    0.1271    0.1283   C.3       1 RES1   0.0000
   260 C95       4.6837   -0.1418    1.4007   C.3       1 RES1   0.0000
   261 O8        2.7878   -0.8058    0.0695   O.3       1 RES1   0.0000
   262 C96       3.0545   -2.2014    0.2344   C.3       1 RES1   0.0000
   263 C97       2.8868   -2.6314    1.6946   C.3       1 RES1   0.0000
   264 C98       2.0088   -2.8419   -0.7015   C.2       1 RES1   0.0000
   265 O9        1.1937   -2.0606   -1.2271   O.2       1 RES1   0.0000
   266 N6        2.0159   -4.1438   -1.0052   N.am      1 RES1   0.0000
   267 C99       2.7459   -5.2235   -0.3446   C.3       1 RES1   0.0000
   268 C100      1.8836   -6.2154    0.4910   C.3       1 RES1   0.0000
   269 C101      0.4923   -6.5706   -0.0666   C.3       1 RES1   0.0000
   270 C102     -0.0562   -7.9282    0.3857   C.3       1 RES1   0.0000
   271 C103     -0.4277   -7.9997    1.8695   C.3       1 RES1   0.0000
   272 C104     -1.9124   -7.7528    2.1369   C.3       1 RES1   0.0000
   273 C105     -2.1820   -7.5249    3.6275   C.3       1 RES1   0.0000
   274 C106     -3.6724   -7.4783    3.9392   C.3       1 RES1   0.0000
   275 C107      1.4283   -4.5369   -2.2923   C.3       1 RES1   0.0000
   276 C108      2.2325   -3.9506   -3.4511   C.3       1 RES1   0.0000
   277 C109      3.7298   -4.2315   -3.3302   C.3       1 RES1   0.0000
   278 C110      4.5348   -3.1944   -4.1056   C.3       1 RES1   0.0000
   279 C111      6.0411   -3.3306   -3.8904   C.3       1 RES1   0.0000
   280 C112      6.5154   -2.9037   -2.5008   C.3       1 RES1   0.0000
   281 C113      8.0409   -2.9101   -2.4355   C.3       1 RES1   0.0000
   282 C114      8.5890   -2.5431   -1.0628   C.3       1 RES1   0.0000
   283 H153     -0.4784    4.5599   -5.7954   H         1 RES1   0.0000
   284 H154     -0.1485    5.8618   -4.6621   H         1 RES1   0.0000
   285 H155      1.0168    4.5544   -4.8580   H         1 RES1   0.0000
   286 H156     -1.7428    4.3818   -3.5798   H         1 RES1   0.0000
   287 H157     -0.7960    2.9572   -3.9854   H         1 RES1   0.0000
   288 H158     -0.4740    3.5137   -1.6296   H         1 RES1   0.0000
   289 H159      1.0320    3.7020   -2.5238   H         1 RES1   0.0000
   290 H160      0.8160    6.1336   -2.5262   H         1 RES1   0.0000
   291 H161     -0.8724    6.0233   -2.0815   H         1 RES1   0.0000
   292 H162     -0.1164    6.5744   -0.0257   H         1 RES1   0.0000
   293 H163      0.1985    4.8647    0.1226   H         1 RES1   0.0000
   294 H164      2.1943    7.0048   -0.7451   H         1 RES1   0.0000
   295 H165      2.0714    6.3552    0.8746   H         1 RES1   0.0000
   296 H166      2.8406    4.7327   -1.5896   H         1 RES1   0.0000
   297 H167      3.9678    5.4207   -0.4258   H         1 RES1   0.0000
   298 H168      2.8397    4.1582    1.4103   H         1 RES1   0.0000
   299 H169      1.7540    3.4360    0.2014   H         1 RES1   0.0000
   300 H170      5.0705    3.9414    1.0458   H         1 RES1   0.0000
   301 H171      5.5794    2.2659    1.0691   H         1 RES1   0.0000
   302 H172      5.2365    3.5216   -1.6340   H         1 RES1   0.0000
   303 H173      6.5577    4.0979   -0.6380   H         1 RES1   0.0000
   304 H174      7.0386    1.4437   -0.3900   H         1 RES1   0.0000
   305 H175      6.2307    1.4291   -1.9528   H         1 RES1   0.0000
   306 H176      7.8566    3.3032   -2.6445   H         1 RES1   0.0000
   307 H177      8.6787    3.0231   -1.1142   H         1 RES1   0.0000
   308 H178      9.9282    1.8151   -2.6862   H         1 RES1   0.0000
   309 H179      8.9966    0.5905   -1.8399   H         1 RES1   0.0000
   310 H180      8.9977    0.1060   -4.1968   H         1 RES1   0.0000
   311 H181      7.3555    0.5733   -3.7582   H         1 RES1   0.0000
   312 H182      7.7087    2.8142   -4.7436   H         1 RES1   0.0000
   313 H183      9.4107    2.4517   -5.0025   H         1 RES1   0.0000
   314 H184      7.0825    0.9771   -6.3167   H         1 RES1   0.0000
   315 H185      8.1142    2.1761   -7.1013   H         1 RES1   0.0000
   316 H186      8.7901    0.6372   -6.5847   H         1 RES1   0.0000
   317 H187      4.5184    0.0211   -0.7665   H         1 RES1   0.0000
   318 H188      5.2338   -1.0724    1.2836   H         1 RES1   0.0000
   319 H189      3.9901   -0.2423    2.2335   H         1 RES1   0.0000
   320 H190      5.4076    0.6287    1.6420   H         1 RES1   0.0000
   321 H191      4.0553   -2.4385   -0.1468   H         1 RES1   0.0000
   322 H192      2.1335   -1.9812    2.1382   H         1 RES1   0.0000
   323 H193      2.5526   -3.6598    1.7628   H         1 RES1   0.0000
   324 H194      3.8084   -2.5495    2.2623   H         1 RES1   0.0000
   325 H195      3.2570   -5.7970   -1.1218   H         1 RES1   0.0000
   326 H196      3.5146   -4.8100    0.3081   H         1 RES1   0.0000
   327 H197      2.4732   -7.1335    0.5623   H         1 RES1   0.0000
   328 H198      1.7843   -5.8418    1.5116   H         1 RES1   0.0000
   329 H199     -0.2197   -5.7892    0.2028   H         1 RES1   0.0000
   330 H200      0.5297   -6.6170   -1.1486   H         1 RES1   0.0000
   331 H201     -0.9503   -8.1403   -0.2040   H         1 RES1   0.0000
   332 H202      0.6771   -8.6952    0.1388   H         1 RES1   0.0000
   333 H203     -0.1781   -8.9879    2.2561   H         1 RES1   0.0000
   334 H204      0.1701   -7.2729    2.4255   H         1 RES1   0.0000
   335 H205     -2.2573   -6.8997    1.5415   H         1 RES1   0.0000
   336 H206     -2.4853   -8.6243    1.8222   H         1 RES1   0.0000
   337 H207     -1.7309   -8.3375    4.2018   H         1 RES1   0.0000
   338 H208     -1.7109   -6.5942    3.9591   H         1 RES1   0.0000
   339 H209     -4.1208   -8.4497    3.7567   H         1 RES1   0.0000
   340 H210     -3.8408   -7.2176    4.9811   H         1 RES1   0.0000
   341 H211     -4.1835   -6.7450    3.3174   H         1 RES1   0.0000
   342 H212      1.4628   -5.6196   -2.3552   H         1 RES1   0.0000
   343 H213      0.3909   -4.2112   -2.3412   H         1 RES1   0.0000
   344 H214      1.8449   -4.3651   -4.3795   H         1 RES1   0.0000
   345 H215      2.0763   -2.8738   -3.4612   H         1 RES1   0.0000
   346 H216      4.0298   -4.1627   -2.2847   H         1 RES1   0.0000
   347 H217      3.9693   -5.2357   -3.6827   H         1 RES1   0.0000
   348 H218      4.3080   -3.2869   -5.1687   H         1 RES1   0.0000
   349 H219      4.2135   -2.2013   -3.7758   H         1 RES1   0.0000
   350 H220      6.3360   -4.3656   -4.0688   H         1 RES1   0.0000
   351 H221      6.5501   -2.7090   -4.6278   H         1 RES1   0.0000
   352 H222      6.1442   -1.8967   -2.2825   H         1 RES1   0.0000
   353 H223      6.1209   -3.5804   -1.7383   H         1 RES1   0.0000
   354 H224      8.3990   -3.9035   -2.7055   H         1 RES1   0.0000
   355 H225      8.4229   -2.2077   -3.1771   H         1 RES1   0.0000
   356 H226      8.2882   -3.2716   -0.3132   H         1 RES1   0.0000
   357 H227      9.6739   -2.5232   -1.0945   H         1 RES1   0.0000
   358 H228      8.2405   -1.5598   -0.7521   H         1 RES1   0.0000
@<TRIPOS>BOND
     1     1    20    1
     2     1    23    1
     3     1    27    1
     4     1   139    1
     5     1   142    1
     6     1   146    1
     7     1   258    1
     8     1   261    1
     9     1   265    1
    10     2     3    1
    11     2    45    1
    12     2    46    1
    13     2    47    1
    14     3     4    1
    15     3    48    1
    16     3    49    1
    17     4     5    1
    18     4    50    1
    19     4    51    1
    20     5     6    1
    21     5    52    1
    22     5    53    1
    23     6     7    1
    24     6    54    1
    25     6    55    1
    26     7     8    1
    27     7    56    1
    28     7    57    1
    29     8     9    1
    30     8    58    1
    31     8    59    1
    32     9    10    1
    33     9    60    1
    34     9    61    1
    35    10    11    1
    36    10    19    1
    37    11    12    1
    38    11    62    1
    39    11    63    1
    40    12    13    1
    41    12    64    1
    42    12    65    1
    43    13    14    1
    44    13    66    1
    45    13    67    1
    46    14    15    1
    47    14    68    1
    48    14    69    1
    49    15    16    1
    50    15    70    1
    51    15    71    1
    52    16    17    1
    53    16    72    1
    54    16    73    1
    55    17    18    1
    56    17    74    1
    57    17    75    1
    58    18    76    1
    59    18    77    1
    60    18    78    1
    61    19    20    2
    62    19    21    1
    63    21    22    1
    64    21    23    1
    65    21    79    1
    66    22    80    1
    67    22    81    1
    68    22    82    1
    69    23    24    1
    70    24    25    1
    71    24    26    1
    72    24    83    1
    73    25    84    1
    74    25    85    1
    75    25    86    1
    76    26    27    2
    77    26    28    1
    78    28    29    1
    79    28    37    1
    80    29    30    1
    81    29    87    1
    82    29    88    1
    83    30    31    1
    84    30    89    1
    85    30    90    1
    86    31    32    1
    87    31    91    1
    88    31    92    1
    89    32    33    1
    90    32    93    1
    91    32    94    1
    92    33    34    1
    93    33    95    1
    94    33    96    1
    95    34    35    1
    96    34    97    1
    97    34    98    1
    98    35    36    1
    99    35    99    1
   100    35   100    1
   101    36   101    1
   102    36   102    1
   103    36   103    1
   104    37    38    1
   105    37   104    1
   106    37   105    1
   107    38    39    1
   108    38   106    1
   109    38   107    1
   110    39    40    1
   111    39   108    1
   112    39   109    1
   113    40    41    1
   114    40   110    1
   115    40   111    1
   116    41    42    1
   117    41   112    1
   118    41   113    1
   119    42    43    1
   120    42   114    1
   121    42   115    1
   122    43    44    1
   123    43   116    1
   124    43   117    1
   125    44   118    1
   126    44   119    1
   127    44   120    1
   128   121   122    1
   129   121   164    1
   130   121   165    1
   131   121   166    1
   132   122   123    1
   133   122   167    1
   134   122   168    1
   135   123   124    1
   136   123   169    1
   137   123   170    1
   138   124   125    1
   139   124   171    1
   140   124   172    1
   141   125   126    1
   142   125   173    1
   143   125   174    1
   144   126   127    1
   145   126   175    1
   146   126   176    1
   147   127   128    1
   148   127   177    1
   149   127   178    1
   150   128   129    1
   151   128   179    1
   152   128   180    1
   153   129   130    1
   154   129   138    1
   155   130   131    1
   156   130   181    1
   157   130   182    1
   158   131   132    1
   159   131   183    1
   160   131   184    1
   161   132   133    1
   162   132   185    1
   163   132   186    1
   164   133   134    1
   165   133   187    1
   166   133   188    1
   167   134   135    1
   168   134   189    1
   169   134   190    1
   170   135   136    1
   171   135   191    1
   172   135   192    1
   173   136   137    1
   174   136   193    1
   175   136   194    1
   176   137   195    1
   177   137   196    1
   178   137   197    1
   179   138   139    2
   180   138   140    1
   181   140   141    1
   182   140   142    1
   183   140   198    1
   184   141   199    1
   185   141   200    1
   186   141   201    1
   187   142   143    1
   188   143   144    1
   189   143   145    1
   190   143   202    1
   191   144   203    1
   192   144   204    1
   193   144   205    1
   194   145   146    2
   195   145   147    1
   196   147   148    1
   197   147   156    1
   198   148   149    1
   199   148   206    1
   200   148   207    1
   201   149   150    1
   202   149   208    1
   203   149   209    1
   204   150   151    1
   205   150   210    1
   206   150   211    1
   207   151   152    1
   208   151   212    1
   209   151   213    1
   210   152   153    1
   211   152   214    1
   212   152   215    1
   213   153   154    1
   214   153   216    1
   215   153   217    1
   216   154   155    1
   217   154   218    1
   218   154   219    1
   219   155   220    1
   220   155   221    1
   221   155   222    1
   222   156   157    1
   223   156   223    1
   224   156   224    1
   225   157   158    1
   226   157   225    1
   227   157   226    1
   228   158   159    1
   229   158   227    1
   230   158   228    1
   231   159   160    1
   232   159   229    1
   233   159   230    1
   234   160   161    1
   235   160   231    1
   236   160   232    1
   237   161   162    1
   238   161   233    1
   239   161   234    1
   240   162   163    1
   241   162   235    1
   242   162   236    1
   243   163   237    1
   244   163   238    1
   245   163   239    1
   246   240   241    1
   247   240   283    1
   248   240   284    1
   249   240   285    1
   250   241   242    1
   251   241   286    1
   252   241   287    1
   253   242   243    1
   254   242   288    1
   255   242   289    1
   256   243   244    1
   257   243   290    1
   258   243   291    1
   259   244   245    1
   260   244   292    1
   261   244   293    1
   262   245   246    1
   263   245   294    1
   264   245   295    1
   265   246   247    1
   266   246   296    1
   267   246   297    1
   268   247   248    1
   269   247   298    1
   270   247   299    1
   271   248   249    1
   272   248   257    1
   273   249   250    1
   274   249   300    1
   275   249   301    1
   276   250   251    1
   277   250   302    1
   278   250   303    1
   279   251   252    1
   280   251   304    1
   281   251   305    1
   282   252   253    1
   283   252   306    1
   284   252   307    1
   285   253   254    1
   286   253   308    1
   287   253   309    1
   288   254   255    1
   289   254   310    1
   290   254   311    1
   291   255   256    1
   292   255   312    1
   293   255   313    1
   294   256   314    1
   295   256   315    1
   296   256   316    1
   297   257   258    2
   298   257   259    1
   299   259   260    1
   300   259   261    1
   301   259   317    1
   302   260   318    1
   303   260   319    1
   304   260   320    1
   305   261   262    1
   306   262   263    1
   307   262   264    1
   308   262   321    1
   309   263   322    1
   310   263   323    1
   311   263   324    1
   312   264   265    2
   313   264   266    1
   314   266   267    1
   315   266   275    1
   316   267   268    1
   317   267   325    1
   318   267   326    1
   319   268   269    1
   320   268   327    1
   321   268   328    1
   322   269   270    1
   323   269   329    1
   324   269   330    1
   325   270   271    1
   326   270   331    1
   327   270   332    1
   328   271   272    1
   329   271   333    1
   330   271   334    1
   331   272   273    1
   332   272   335    1
   333   272   336    1
   334   273   274    1
   335   273   337    1
   336   273   338    1
   337   274   339    1
   338   274   340    1
   339   274   341    1
   340   275   276    1
   341   275   342    1
   342   275   343    1
   343   276   277    1
   344   276   344    1
   345   276   345    1
   346   277   278    1
   347   277   346    1
   348   277   347    1
   349   278   279    1
   350   278   348    1
   351   278   349    1
   352   279   280    1
   353   279   350    1
   354   279   351    1
   355   280   281    1
   356   280   352    1
   357   280   353    1
   358   281   282    1
   359   281   354    1
   360   281   355    1
   361   282   356    1
   362   282   357    1
   363   282   358    1
@<TRIPOS>SUBSTRUCTURE
     1 RES1      358 GROUP             0 ****  ****    0  
