@<TRIPOS>MOLECULE
cn9_YICLED_0_nunpairedes_0_charge_3 Charge: 3 Unpaired_Electrons: 2 XTB_Unpaired_Electrons: 0 XTB_Charge: 3
   361   369     1     0     0
SMALL
NoCharges
****
Generated from Architector

@<TRIPOS>ATOM
     1 Pr1      -0.1922   -0.0642    0.0579   Pr        1 RES1   0.0000
     2 C1        2.4144   -4.6408    6.9757   C.3       1 RES1   0.0000
     3 C2        2.5614   -3.5131    7.9911   C.3       1 RES1   0.0000
     4 C3        2.9013   -2.1794    7.3275   C.3       1 RES1   0.0000
     5 C4        2.8596   -1.0292    8.3285   C.3       1 RES1   0.0000
     6 C5        3.3502    0.3048    7.7616   C.3       1 RES1   0.0000
     7 C6        2.4753    0.9132    6.6470   C.3       1 RES1   0.0000
     8 C7        3.1481    0.8007    5.2700   C.3       1 RES1   0.0000
     9 C8        2.2790    1.2548    4.0792   C.3       1 RES1   0.0000
    10 P1        2.0911    0.1779    2.5657   P.3       1 RES1   0.0000
    11 O1        1.0933    0.8451    1.6694   O.2       1 RES1   0.0000
    12 C9        3.8455    0.3711    1.7700   C.3       1 RES1   0.0000
    13 C10       4.2137   -0.0679    0.3424   C.3       1 RES1   0.0000
    14 C11       5.7167   -0.0641   -0.0772   C.3       1 RES1   0.0000
    15 C12       6.6819   -1.3123   -0.0530   C.3       1 RES1   0.0000
    16 C13       6.2626   -2.7931   -0.3021   C.3       1 RES1   0.0000
    17 C14       6.8636   -3.6023   -1.4711   C.3       1 RES1   0.0000
    18 C15       6.6610   -5.1004   -1.1819   C.3       1 RES1   0.0000
    19 C16       6.5255   -5.9209   -2.4586   C.3       1 RES1   0.0000
    20 C17       1.3184   -1.2966    3.5486   C.3       1 RES1   0.0000
    21 C18      -0.1422   -1.3961    3.8408   C.ar      1 RES1   0.0000
    22 C19      -0.5920   -1.4471    5.1506   C.ar      1 RES1   0.0000
    23 C20      -1.8637   -1.8945    5.4591   C.ar      1 RES1   0.0000
    24 C21      -2.6921   -2.2849    4.4238   C.ar      1 RES1   0.0000
    25 C22      -2.2616   -2.1583    3.1151   C.ar      1 RES1   0.0000
    26 C23      -3.0871   -2.5579    1.9417   C.3       1 RES1   0.0000
    27 P2       -3.8005   -1.0176    1.1431   P.3       1 RES1   0.0000
    28 O2       -2.7718   -0.2305    0.4030   O.2       1 RES1   0.0000
    29 C24      -4.4377   -0.1581    2.6218   C.3       1 RES1   0.0000
    30 C25      -5.1473    1.1599    2.3244   C.3       1 RES1   0.0000
    31 C26      -4.5903    2.3086    3.1659   C.3       1 RES1   0.0000
    32 C27      -4.8257    2.2052    4.6806   C.3       1 RES1   0.0000
    33 C28      -3.7254    1.5419    5.5237   C.3       1 RES1   0.0000
    34 C29      -2.5888    2.4629    5.9806   C.3       1 RES1   0.0000
    35 C30      -1.6913    2.9822    4.8554   C.3       1 RES1   0.0000
    36 C31      -0.4365    3.6614    5.4027   C.3       1 RES1   0.0000
    37 C32      -5.1941   -1.2389   -0.0423   C.3       1 RES1   0.0000
    38 C33      -6.5218   -1.9185    0.2843   C.3       1 RES1   0.0000
    39 C34      -6.6496   -3.3739   -0.1740   C.3       1 RES1   0.0000
    40 C35      -5.9067   -4.3524    0.7339   C.3       1 RES1   0.0000
    41 C36      -6.3965   -5.8043    0.6394   C.3       1 RES1   0.0000
    42 C37      -5.7296   -6.6593   -0.4419   C.3       1 RES1   0.0000
    43 C38      -4.2458   -6.9606   -0.1998   C.3       1 RES1   0.0000
    44 C39      -4.0105   -7.7305    1.0955   C.3       1 RES1   0.0000
    45 N1       -1.0158   -1.6922    2.8481   N.ar      1 RES1   0.0000
    46 O3       -0.6325   -1.6320    1.6207   O.co2     1 RES1   0.0000
    47 H1        2.2320   -5.5837    7.4844   H         1 RES1   0.0000
    48 H2        3.3203   -4.7492    6.3811   H         1 RES1   0.0000
    49 H3        1.5787   -4.4480    6.3028   H         1 RES1   0.0000
    50 H4        3.3466   -3.7690    8.7031   H         1 RES1   0.0000
    51 H5        1.6318   -3.4137    8.5559   H         1 RES1   0.0000
    52 H6        2.1902   -1.9954    6.5176   H         1 RES1   0.0000
    53 H7        3.9005   -2.2399    6.8870   H         1 RES1   0.0000
    54 H8        3.4987   -1.2961    9.1710   H         1 RES1   0.0000
    55 H9        1.8481   -0.9238    8.7257   H         1 RES1   0.0000
    56 H10       4.3610    0.1600    7.3796   H         1 RES1   0.0000
    57 H11       3.4189    1.0079    8.5904   H         1 RES1   0.0000
    58 H12       2.2939    1.9670    6.8609   H         1 RES1   0.0000
    59 H13       1.5020    0.4202    6.6373   H         1 RES1   0.0000
    60 H14       3.4805   -0.2303    5.1516   H         1 RES1   0.0000
    61 H15       4.0413    1.4281    5.3001   H         1 RES1   0.0000
    62 H16       2.6166    2.2356    3.7446   H         1 RES1   0.0000
    63 H17       1.2471    1.4071    4.4079   H         1 RES1   0.0000
    64 H18       4.5661   -0.0148    2.4716   H         1 RES1   0.0000
    65 H19       3.9275    1.4621    1.8251   H         1 RES1   0.0000
    66 H20       3.6773    0.6030   -0.3295   H         1 RES1   0.0000
    67 H21       3.8325   -1.0607    0.1674   H         1 RES1   0.0000
    68 H22       6.2300    0.6960    0.5171   H         1 RES1   0.0000
    69 H23       5.7269    0.3028   -1.1046   H         1 RES1   0.0000
    70 H24       7.1987   -1.3102    0.9079   H         1 RES1   0.0000
    71 H25       7.4493   -1.0715   -0.7911   H         1 RES1   0.0000
    72 H26       5.1858   -2.8853   -0.3723   H         1 RES1   0.0000
    73 H27       6.5654   -3.3595    0.5782   H         1 RES1   0.0000
    74 H28       7.9206   -3.3792   -1.6086   H         1 RES1   0.0000
    75 H29       6.3819   -3.4169   -2.4346   H         1 RES1   0.0000
    76 H30       5.7471   -5.2329   -0.5931   H         1 RES1   0.0000
    77 H31       7.4820   -5.4854   -0.5796   H         1 RES1   0.0000
    78 H32       5.6164   -5.6359   -2.9875   H         1 RES1   0.0000
    79 H33       6.4712   -6.9811   -2.2228   H         1 RES1   0.0000
    80 H34       7.3706   -5.7642   -3.1229   H         1 RES1   0.0000
    81 H35       1.7926   -1.2503    4.5248   H         1 RES1   0.0000
    82 H36       1.5834   -2.2300    3.0502   H         1 RES1   0.0000
    83 H37       0.0771   -1.1912    5.9531   H         1 RES1   0.0000
    84 H38      -2.1806   -1.9893    6.4834   H         1 RES1   0.0000
    85 H39      -3.6646   -2.6968    4.6375   H         1 RES1   0.0000
    86 H40      -3.8996   -3.2063    2.2609   H         1 RES1   0.0000
    87 H41      -2.4703   -3.0621    1.1911   H         1 RES1   0.0000
    88 H42      -3.5270    0.0569    3.1823   H         1 RES1   0.0000
    89 H43      -5.0638   -0.8353    3.2032   H         1 RES1   0.0000
    90 H44      -6.2197    1.0550    2.4911   H         1 RES1   0.0000
    91 H45      -5.0002    1.4243    1.2703   H         1 RES1   0.0000
    92 H46      -5.0726    3.2202    2.8136   H         1 RES1   0.0000
    93 H47      -3.5281    2.3738    2.9423   H         1 RES1   0.0000
    94 H48      -5.7655    1.6750    4.8446   H         1 RES1   0.0000
    95 H49      -4.9706    3.2113    5.0753   H         1 RES1   0.0000
    96 H50      -3.2887    0.6916    4.9991   H         1 RES1   0.0000
    97 H51      -4.1942    1.1493    6.4278   H         1 RES1   0.0000
    98 H52      -1.9701    1.9003    6.6864   H         1 RES1   0.0000
    99 H53      -3.0067    3.3114    6.5266   H         1 RES1   0.0000
   100 H54      -2.2493    3.7108    4.2634   H         1 RES1   0.0000
   101 H55      -1.4064    2.1586    4.1859   H         1 RES1   0.0000
   102 H56      -0.6992    4.5367    5.9948   H         1 RES1   0.0000
   103 H57       0.2097    3.9724    4.5830   H         1 RES1   0.0000
   104 H58       0.1254    2.9822    6.0413   H         1 RES1   0.0000
   105 H59      -4.7526   -1.6250   -0.9592   H         1 RES1   0.0000
   106 H60      -5.3848   -0.1750   -0.2267   H         1 RES1   0.0000
   107 H61      -7.3010   -1.3395   -0.2194   H         1 RES1   0.0000
   108 H62      -6.7224   -1.8549    1.3547   H         1 RES1   0.0000
   109 H63      -6.3161   -3.4644   -1.2098   H         1 RES1   0.0000
   110 H64      -7.7103   -3.6232   -0.1513   H         1 RES1   0.0000
   111 H65      -6.0645   -4.0152    1.7618   H         1 RES1   0.0000
   112 H66      -4.8380   -4.3128    0.5186   H         1 RES1   0.0000
   113 H67      -7.4751   -5.8062    0.4706   H         1 RES1   0.0000
   114 H68      -6.2301   -6.2884    1.6010   H         1 RES1   0.0000
   115 H69      -5.8583   -6.1805   -1.4163   H         1 RES1   0.0000
   116 H70      -6.2586   -7.6137   -0.4823   H         1 RES1   0.0000
   117 H71      -3.6647   -6.0325   -0.1899   H         1 RES1   0.0000
   118 H72      -3.8823   -7.5625   -1.0368   H         1 RES1   0.0000
   119 H73      -4.2570   -7.1225    1.9623   H         1 RES1   0.0000
   120 H74      -2.9692   -8.0314    1.1788   H         1 RES1   0.0000
   121 H75      -4.6265   -8.6258    1.1136   H         1 RES1   0.0000
   122 C40      -3.8704    8.8444   -2.3588   C.3       1 RES1   0.0000
   123 C41      -4.2369    7.4938   -1.7554   C.3       1 RES1   0.0000
   124 C42      -5.7302    7.4266   -1.4308   C.3       1 RES1   0.0000
   125 C43      -6.2437    6.0455   -1.0006   C.3       1 RES1   0.0000
   126 C44      -6.2158    5.7553    0.5064   C.3       1 RES1   0.0000
   127 C45      -4.8458    5.7176    1.1831   C.3       1 RES1   0.0000
   128 C46      -3.9487    4.6448    0.5753   C.3       1 RES1   0.0000
   129 C47      -2.6272    4.5214    1.3165   C.3       1 RES1   0.0000
   130 P3       -1.4974    3.2126    0.6536   P.3       1 RES1   0.0000
   131 O4       -1.5399    1.8509    1.2612   O.2       1 RES1   0.0000
   132 C48       0.2119    3.8440    0.9090   C.3       1 RES1   0.0000
   133 C49       0.8539    4.8172   -0.0728   C.3       1 RES1   0.0000
   134 C50       0.4203    6.2785    0.1036   C.3       1 RES1   0.0000
   135 C51      -0.3926    6.8249   -1.0722   C.3       1 RES1   0.0000
   136 C52       0.3909    6.9041   -2.3835   C.3       1 RES1   0.0000
   137 C53       1.5299    7.9213   -2.3704   C.3       1 RES1   0.0000
   138 C54       2.4454    7.8065   -3.5920   C.3       1 RES1   0.0000
   139 C55       1.7618    8.1556   -4.9075   C.3       1 RES1   0.0000
   140 C56      -1.8838    3.0806   -1.1839   C.3       1 RES1   0.0000
   141 C57      -2.7916    2.0160   -1.7076   C.ar      1 RES1   0.0000
   142 C58      -4.1462    2.1951   -1.9379   C.ar      1 RES1   0.0000
   143 C59      -4.8898    1.2363   -2.6047   C.ar      1 RES1   0.0000
   144 C60      -4.2430    0.1112   -3.0912   C.ar      1 RES1   0.0000
   145 C61      -2.8876   -0.0545   -2.8771   C.ar      1 RES1   0.0000
   146 C62      -2.0680   -1.1497   -3.4859   C.3       1 RES1   0.0000
   147 P4       -1.6486   -2.5119   -2.2774   P.3       1 RES1   0.0000
   148 O5       -1.3130   -1.9788   -0.9274   O.2       1 RES1   0.0000
   149 C63      -3.2494   -3.4314   -2.2200   C.3       1 RES1   0.0000
   150 C64      -3.4360   -4.7245   -3.0106   C.3       1 RES1   0.0000
   151 C65      -3.5714   -4.5843   -4.5306   C.3       1 RES1   0.0000
   152 C66      -2.2424   -4.6305   -5.2827   C.3       1 RES1   0.0000
   153 C67      -2.3638   -4.8583   -6.7940   C.3       1 RES1   0.0000
   154 C68      -0.9749   -4.9181   -7.4348   C.3       1 RES1   0.0000
   155 C69      -0.9819   -5.2408   -8.9255   C.3       1 RES1   0.0000
   156 C70       0.4306   -5.2888   -9.4897   C.3       1 RES1   0.0000
   157 C71      -0.2938   -3.6725   -2.7623   C.3       1 RES1   0.0000
   158 C72       0.7192   -3.3476   -3.8579   C.3       1 RES1   0.0000
   159 C73       1.6060   -4.5768   -4.0725   C.3       1 RES1   0.0000
   160 C74       2.9120   -4.3199   -4.8255   C.3       1 RES1   0.0000
   161 C75       2.7551   -3.8298   -6.2725   C.3       1 RES1   0.0000
   162 C76       2.9310   -2.3172   -6.4037   C.3       1 RES1   0.0000
   163 C77       2.6166   -1.7881   -7.8016   C.3       1 RES1   0.0000
   164 C78       2.8406   -0.2824   -7.8935   C.3       1 RES1   0.0000
   165 N2       -2.2199    0.8581   -2.1312   N.ar      1 RES1   0.0000
   166 O6       -0.9502    0.6795   -1.9563   O.co2     1 RES1   0.0000
   167 H76      -2.7997    8.9095   -2.5351   H         1 RES1   0.0000
   168 H77      -4.1639    9.6493   -1.6909   H         1 RES1   0.0000
   169 H78      -4.3835    8.9832   -3.3059   H         1 RES1   0.0000
   170 H79      -3.6421    7.3317   -0.8546   H         1 RES1   0.0000
   171 H80      -3.9866    6.7033   -2.4729   H         1 RES1   0.0000
   172 H81      -6.2682    7.7278   -2.3315   H         1 RES1   0.0000
   173 H82      -5.9711    8.1574   -0.6584   H         1 RES1   0.0000
   174 H83      -5.7033    5.2704   -1.5528   H         1 RES1   0.0000
   175 H84      -7.2916    5.9699   -1.3022   H         1 RES1   0.0000
   176 H85      -6.7040    4.7880    0.6697   H         1 RES1   0.0000
   177 H86      -6.8231    6.5105    1.0053   H         1 RES1   0.0000
   178 H87      -4.9994    5.5103    2.2432   H         1 RES1   0.0000
   179 H88      -4.3495    6.6840    1.1076   H         1 RES1   0.0000
   180 H89      -3.7481    4.9305   -0.4566   H         1 RES1   0.0000
   181 H90      -4.4673    3.6836    0.5802   H         1 RES1   0.0000
   182 H91      -2.7999    4.3308    2.3745   H         1 RES1   0.0000
   183 H92      -2.0972    5.4689    1.2368   H         1 RES1   0.0000
   184 H93       0.8001    2.9231    0.9623   H         1 RES1   0.0000
   185 H94       0.1959    4.2738    1.9178   H         1 RES1   0.0000
   186 H95       0.6370    4.4767   -1.0835   H         1 RES1   0.0000
   187 H96       1.9350    4.7306    0.0470   H         1 RES1   0.0000
   188 H97       1.2983    6.9087    0.2483   H         1 RES1   0.0000
   189 H98      -0.1759    6.3565    1.0144   H         1 RES1   0.0000
   190 H99      -0.7509    7.8205   -0.8115   H         1 RES1   0.0000
   191 H100     -1.2736    6.1921   -1.2194   H         1 RES1   0.0000
   192 H101     -0.3038    7.1571   -3.1847   H         1 RES1   0.0000
   193 H102      0.8169    5.9225   -2.6070   H         1 RES1   0.0000
   194 H103      2.1424    7.7623   -1.4812   H         1 RES1   0.0000
   195 H104      1.1177    8.9303   -2.3208   H         1 RES1   0.0000
   196 H105      2.8513    6.7903   -3.6491   H         1 RES1   0.0000
   197 H106      3.2880    8.4848   -3.4486   H         1 RES1   0.0000
   198 H107      0.9686    7.4493   -5.1414   H         1 RES1   0.0000
   199 H108      2.4879    8.1381   -5.7156   H         1 RES1   0.0000
   200 H109      1.3356    9.1536   -4.8585   H         1 RES1   0.0000
   201 H110     -0.8798    2.8757   -1.5608   H         1 RES1   0.0000
   202 H111     -2.2257    4.0483   -1.5539   H         1 RES1   0.0000
   203 H112     -4.5960    3.1231   -1.6289   H         1 RES1   0.0000
   204 H113     -5.9395    1.3914   -2.7868   H         1 RES1   0.0000
   205 H114     -4.7714   -0.6135   -3.6881   H         1 RES1   0.0000
   206 H115     -1.1248   -0.7456   -3.8532   H         1 RES1   0.0000
   207 H116     -2.6077   -1.5936   -4.3195   H         1 RES1   0.0000
   208 H117     -4.0219   -2.7194   -2.5201   H         1 RES1   0.0000
   209 H118     -3.3955   -3.6481   -1.1587   H         1 RES1   0.0000
   210 H119     -4.3529   -5.1791   -2.6332   H         1 RES1   0.0000
   211 H120     -2.6330   -5.4214   -2.7710   H         1 RES1   0.0000
   212 H121     -4.1079   -3.6631   -4.7619   H         1 RES1   0.0000
   213 H122     -4.1775   -5.4163   -4.8861   H         1 RES1   0.0000
   214 H123     -1.6468   -5.4546   -4.8830   H         1 RES1   0.0000
   215 H124     -1.6880   -3.7059   -5.1053   H         1 RES1   0.0000
   216 H125     -2.9608   -4.0694   -7.2552   H         1 RES1   0.0000
   217 H126     -2.8830   -5.7990   -6.9730   H         1 RES1   0.0000
   218 H127     -0.3828   -5.6779   -6.9186   H         1 RES1   0.0000
   219 H128     -0.4800   -3.9555   -7.2907   H         1 RES1   0.0000
   220 H129     -1.5615   -4.4908   -9.4625   H         1 RES1   0.0000
   221 H130     -1.4646   -6.2029   -9.0871   H         1 RES1   0.0000
   222 H131      0.9299   -4.3310   -9.3800   H         1 RES1   0.0000
   223 H132      0.4119   -5.5443  -10.5424   H         1 RES1   0.0000
   224 H133      1.0266   -6.0390   -8.9813   H         1 RES1   0.0000
   225 H134     -0.7468   -4.6315   -3.0112   H         1 RES1   0.0000
   226 H135      0.2170   -3.7958   -1.7989   H         1 RES1   0.0000
   227 H136      1.3337   -2.5021   -3.5703   H         1 RES1   0.0000
   228 H137      0.2163   -3.0935   -4.7901   H         1 RES1   0.0000
   229 H138      1.0243   -5.3331   -4.5974   H         1 RES1   0.0000
   230 H139      1.8611   -4.9934   -3.0945   H         1 RES1   0.0000
   231 H140      3.4586   -5.2634   -4.8282   H         1 RES1   0.0000
   232 H141      3.5101   -3.5981   -4.2624   H         1 RES1   0.0000
   233 H142      1.7829   -4.1320   -6.6616   H         1 RES1   0.0000
   234 H143      3.5120   -4.3090   -6.8937   H         1 RES1   0.0000
   235 H144      3.9664   -2.0641   -6.1625   H         1 RES1   0.0000
   236 H145      2.2958   -1.8034   -5.6781   H         1 RES1   0.0000
   237 H146      1.5807   -2.0192   -8.0602   H         1 RES1   0.0000
   238 H147      3.2552   -2.2924   -8.5265   H         1 RES1   0.0000
   239 H148      2.1920    0.2454   -7.1939   H         1 RES1   0.0000
   240 H149      2.6202    0.0757   -8.8952   H         1 RES1   0.0000
   241 H150      3.8737   -0.0345   -7.6600   H         1 RES1   0.0000
   242 C79      -1.8327   -1.1413   -7.2831   C.3       1 RES1   0.0000
   243 C80      -2.8822   -0.0941   -6.9383   C.3       1 RES1   0.0000
   244 C81      -3.0134    1.0087   -7.9938   C.3       1 RES1   0.0000
   245 C82      -1.7443    1.7919   -8.3562   C.3       1 RES1   0.0000
   246 C83      -1.2487    2.8412   -7.3533   C.3       1 RES1   0.0000
   247 C84      -0.5684    2.2539   -6.1121   C.3       1 RES1   0.0000
   248 C85       0.2341    3.3066   -5.3226   C.3       1 RES1   0.0000
   249 C86       0.0066    3.2544   -3.8004   C.3       1 RES1   0.0000
   250 P5        1.3167    2.3134   -2.8626   P.3       1 RES1   0.0000
   251 O7        1.1535    2.0129   -1.4056   O.2       1 RES1   0.0000
   252 C87       2.8597    3.2737   -3.1731   C.3       1 RES1   0.0000
   253 C88       3.9193    3.0840   -2.0896   C.3       1 RES1   0.0000
   254 C89       4.8705    4.2808   -1.9833   C.3       1 RES1   0.0000
   255 C90       5.5503    4.7464   -3.2766   C.3       1 RES1   0.0000
   256 C91       6.7108    3.8887   -3.7954   C.3       1 RES1   0.0000
   257 C92       6.3546    2.6456   -4.6247   C.3       1 RES1   0.0000
   258 C93       6.1878    2.8699   -6.1370   C.3       1 RES1   0.0000
   259 C94       4.8260    3.3970   -6.5874   C.3       1 RES1   0.0000
   260 C95       1.3461    0.7602   -3.8652   C.3       1 RES1   0.0000
   261 C96       2.4955   -0.0361   -3.4203   C.ar      1 RES1   0.0000
   262 C97       3.6965    0.0889   -4.0924   C.ar      1 RES1   0.0000
   263 C98       4.7962   -0.6052   -3.6472   C.ar      1 RES1   0.0000
   264 C99       4.5953   -1.4868   -2.6044   C.ar      1 RES1   0.0000
   265 C100      3.3646   -1.6765   -1.9985   C.ar      1 RES1   0.0000
   266 C101      3.0413   -2.8452   -1.1170   C.3       1 RES1   0.0000
   267 P6        2.9225   -2.7296    0.7991   P.3       1 RES1   0.0000
   268 O8        1.9063   -1.6348    0.9745   O.2       1 RES1   0.0000
   269 C102      2.2234   -4.4160    1.1129   C.3       1 RES1   0.0000
   270 C103      2.4214   -5.0184    2.5176   C.3       1 RES1   0.0000
   271 C104      3.1329   -6.3832    2.5383   C.3       1 RES1   0.0000
   272 C105      4.6047   -6.3628    2.1031   C.3       1 RES1   0.0000
   273 C106      5.5839   -5.9821    3.2195   C.3       1 RES1   0.0000
   274 C107      6.9623   -5.6072    2.6724   C.3       1 RES1   0.0000
   275 C108      7.9923   -5.3155    3.7670   C.3       1 RES1   0.0000
   276 C109      8.5820   -6.5766    4.3801   C.3       1 RES1   0.0000
   277 C110      4.4430   -2.6403    1.9410   C.3       1 RES1   0.0000
   278 C111      4.4243   -2.2924    3.4373   C.3       1 RES1   0.0000
   279 C112      5.8451   -1.9775    3.9785   C.3       1 RES1   0.0000
   280 C113      6.3758   -0.5528    3.7582   C.3       1 RES1   0.0000
   281 C114      7.7656   -0.2933    4.3662   C.3       1 RES1   0.0000
   282 C115      8.9634   -0.6665    3.4741   C.3       1 RES1   0.0000
   283 C116      9.6648    0.5206    2.7931   C.3       1 RES1   0.0000
   284 C117      8.9202    1.1113    1.5980   C.3       1 RES1   0.0000
   285 N3        2.3427   -0.8520   -2.3489   N.ar      1 RES1   0.0000
   286 O9        1.1941   -0.9467   -1.7415   O.co2     1 RES1   0.0000
   287 H151     -1.9319   -2.0038   -6.6331   H         1 RES1   0.0000
   288 H152     -0.8283   -0.7471   -7.1765   H         1 RES1   0.0000
   289 H153     -1.9584   -1.4758   -8.3073   H         1 RES1   0.0000
   290 H154     -2.6714    0.3456   -5.9611   H         1 RES1   0.0000
   291 H155     -3.8542   -0.5885   -6.8667   H         1 RES1   0.0000
   292 H156     -3.7909    1.7106   -7.6785   H         1 RES1   0.0000
   293 H157     -3.3667    0.5342   -8.9122   H         1 RES1   0.0000
   294 H158     -1.9601    2.3239   -9.2850   H         1 RES1   0.0000
   295 H159     -0.9321    1.0969   -8.5716   H         1 RES1   0.0000
   296 H160     -2.0804    3.4800   -7.0470   H         1 RES1   0.0000
   297 H161     -0.5222    3.4728   -7.8719   H         1 RES1   0.0000
   298 H162      0.0822    1.4398   -6.4386   H         1 RES1   0.0000
   299 H163     -1.3332    1.8255   -5.4636   H         1 RES1   0.0000
   300 H164     -0.0661    4.2959   -5.6716   H         1 RES1   0.0000
   301 H165      1.2971    3.2194   -5.5501   H         1 RES1   0.0000
   302 H166     -0.9755    2.8209   -3.6111   H         1 RES1   0.0000
   303 H167      0.0002    4.2747   -3.4098   H         1 RES1   0.0000
   304 H168      2.5542    4.3241   -3.1861   H         1 RES1   0.0000
   305 H169      3.2614    3.0372   -4.1567   H         1 RES1   0.0000
   306 H170      4.4840    2.1667   -2.2665   H         1 RES1   0.0000
   307 H171      3.4085    2.9652   -1.1294   H         1 RES1   0.0000
   308 H172      5.6409    4.0401   -1.2478   H         1 RES1   0.0000
   309 H173      4.2974    5.1257   -1.5922   H         1 RES1   0.0000
   310 H174      5.9648    5.7301   -3.0530   H         1 RES1   0.0000
   311 H175      4.8127    4.8900   -4.0637   H         1 RES1   0.0000
   312 H176      7.3162    3.5809   -2.9389   H         1 RES1   0.0000
   313 H177      7.3511    4.5223   -4.4124   H         1 RES1   0.0000
   314 H178      5.4590    2.1724   -4.2230   H         1 RES1   0.0000
   315 H179      7.1781    1.9371   -4.5057   H         1 RES1   0.0000
   316 H180      6.3546    1.9117   -6.6402   H         1 RES1   0.0000
   317 H181      6.9679    3.5506   -6.4858   H         1 RES1   0.0000
   318 H182      4.0250    2.7106   -6.3006   H         1 RES1   0.0000
   319 H183      4.8151    3.4797   -7.6727   H         1 RES1   0.0000
   320 H184      4.6179    4.3817   -6.1749   H         1 RES1   0.0000
   321 H185      1.4356    0.9929   -4.9226   H         1 RES1   0.0000
   322 H186      0.4042    0.2682   -3.6310   H         1 RES1   0.0000
   323 H187      3.7447    0.7281   -4.9570   H         1 RES1   0.0000
   324 H188      5.7601   -0.4962   -4.1163   H         1 RES1   0.0000
   325 H189      5.4382   -2.0465   -2.2727   H         1 RES1   0.0000
   326 H190      3.6329   -3.6990   -1.4454   H         1 RES1   0.0000
   327 H191      1.9762   -3.0620   -1.2791   H         1 RES1   0.0000
   328 H192      2.6475   -5.0938    0.3712   H         1 RES1   0.0000
   329 H193      1.1611   -4.2992    0.8894   H         1 RES1   0.0000
   330 H194      1.4445   -5.1396    2.9920   H         1 RES1   0.0000
   331 H195      2.9867   -4.3399    3.1501   H         1 RES1   0.0000
   332 H196      2.5721   -7.0866    1.9173   H         1 RES1   0.0000
   333 H197      3.0925   -6.7541    3.5637   H         1 RES1   0.0000
   334 H198      4.7259   -5.6807    1.2579   H         1 RES1   0.0000
   335 H199      4.8733   -7.3552    1.7422   H         1 RES1   0.0000
   336 H200      5.6871   -6.8219    3.9059   H         1 RES1   0.0000
   337 H201      5.1923   -5.1415    3.7960   H         1 RES1   0.0000
   338 H202      6.8612   -4.7146    2.0478   H         1 RES1   0.0000
   339 H203      7.3392   -6.4088    2.0344   H         1 RES1   0.0000
   340 H204      7.5313   -4.7134    4.5529   H         1 RES1   0.0000
   341 H205      8.8076   -4.7280    3.3392   H         1 RES1   0.0000
   342 H206      7.8210   -7.1591    4.8889   H         1 RES1   0.0000
   343 H207      9.3529   -6.3194    5.1004   H         1 RES1   0.0000
   344 H208      9.0311   -7.1978    3.6111   H         1 RES1   0.0000
   345 H209      5.1192   -1.9351    1.4845   H         1 RES1   0.0000
   346 H210      4.8790   -3.6317    1.8565   H         1 RES1   0.0000
   347 H211      4.0538   -3.1336    4.0238   H         1 RES1   0.0000
   348 H212      3.7626   -1.4565    3.6448   H         1 RES1   0.0000
   349 H213      6.5636   -2.6934    3.5799   H         1 RES1   0.0000
   350 H214      5.8018   -2.1396    5.0581   H         1 RES1   0.0000
   351 H215      5.6838    0.1466    4.2329   H         1 RES1   0.0000
   352 H216      6.4463   -0.3168    2.6973   H         1 RES1   0.0000
   353 H217      7.8353   -0.8336    5.3100   H         1 RES1   0.0000
   354 H218      7.8463    0.7697    4.6045   H         1 RES1   0.0000
   355 H219      8.6548   -1.3891    2.7149   H         1 RES1   0.0000
   356 H220      9.7133   -1.1562    4.0973   H         1 RES1   0.0000
   357 H221     10.6423    0.1752    2.4461   H         1 RES1   0.0000
   358 H222      9.8470    1.3066    3.5314   H         1 RES1   0.0000
   359 H223      8.8077    0.3675    0.8116   H         1 RES1   0.0000
   360 H224      9.4875    1.9448    1.1895   H         1 RES1   0.0000
   361 H225      7.9359    1.4785    1.8852   H         1 RES1   0.0000
@<TRIPOS>BOND
     1     1    11    1
     2     1    28    1
     3     1    46    1
     4     1   131    1
     5     1   148    1
     6     1   166    1
     7     1   251    1
     8     1   268    1
     9     1   286    1
    10     2     3    1
    11     2    47    1
    12     2    48    1
    13     2    49    1
    14     3     4    1
    15     3    50    1
    16     3    51    1
    17     4     5    1
    18     4    52    1
    19     4    53    1
    20     5     6    1
    21     5    54    1
    22     5    55    1
    23     6     7    1
    24     6    56    1
    25     6    57    1
    26     7     8    1
    27     7    58    1
    28     7    59    1
    29     8     9    1
    30     8    60    1
    31     8    61    1
    32     9    10    1
    33     9    62    1
    34     9    63    1
    35    10    11    2
    36    10    12    1
    37    10    20    1
    38    12    13    1
    39    12    64    1
    40    12    65    1
    41    13    14    1
    42    13    66    1
    43    13    67    1
    44    14    15    1
    45    14    68    1
    46    14    69    1
    47    15    16    1
    48    15    70    1
    49    15    71    1
    50    16    17    1
    51    16    72    1
    52    16    73    1
    53    17    18    1
    54    17    74    1
    55    17    75    1
    56    18    19    1
    57    18    76    1
    58    18    77    1
    59    19    78    1
    60    19    79    1
    61    19    80    1
    62    20    21    1
    63    20    81    1
    64    20    82    1
    65    21    22    1
    66    21    45    2
    67    22    23    2
    68    22    83    1
    69    23    24    1
    70    23    84    1
    71    24    25    2
    72    24    85    1
    73    25    26    1
    74    25    45    1
    75    26    27    1
    76    26    86    1
    77    26    87    1
    78    27    28    2
    79    27    29    1
    80    27    37    1
    81    29    30    1
    82    29    88    1
    83    29    89    1
    84    30    31    1
    85    30    90    1
    86    30    91    1
    87    31    32    1
    88    31    92    1
    89    31    93    1
    90    32    33    1
    91    32    94    1
    92    32    95    1
    93    33    34    1
    94    33    96    1
    95    33    97    1
    96    34    35    1
    97    34    98    1
    98    34    99    1
    99    35    36    1
   100    35   100    1
   101    35   101    1
   102    36   102    1
   103    36   103    1
   104    36   104    1
   105    37    38    1
   106    37   105    1
   107    37   106    1
   108    38    39    1
   109    38   107    1
   110    38   108    1
   111    39    40    1
   112    39   109    1
   113    39   110    1
   114    40    41    1
   115    40   111    1
   116    40   112    1
   117    41    42    1
   118    41   113    1
   119    41   114    1
   120    42    43    1
   121    42   115    1
   122    42   116    1
   123    43    44    1
   124    43   117    1
   125    43   118    1
   126    44   119    1
   127    44   120    1
   128    44   121    1
   129    45    46    1
   130   122   123    1
   131   122   167    1
   132   122   168    1
   133   122   169    1
   134   123   124    1
   135   123   170    1
   136   123   171    1
   137   124   125    1
   138   124   172    1
   139   124   173    1
   140   125   126    1
   141   125   174    1
   142   125   175    1
   143   126   127    1
   144   126   176    1
   145   126   177    1
   146   127   128    1
   147   127   178    1
   148   127   179    1
   149   128   129    1
   150   128   180    1
   151   128   181    1
   152   129   130    1
   153   129   182    1
   154   129   183    1
   155   130   131    2
   156   130   132    1
   157   130   140    1
   158   132   133    1
   159   132   184    1
   160   132   185    1
   161   133   134    1
   162   133   186    1
   163   133   187    1
   164   134   135    1
   165   134   188    1
   166   134   189    1
   167   135   136    1
   168   135   190    1
   169   135   191    1
   170   136   137    1
   171   136   192    1
   172   136   193    1
   173   137   138    1
   174   137   194    1
   175   137   195    1
   176   138   139    1
   177   138   196    1
   178   138   197    1
   179   139   198    1
   180   139   199    1
   181   139   200    1
   182   140   141    1
   183   140   201    1
   184   140   202    1
   185   141   142    1
   186   141   165    2
   187   142   143    2
   188   142   203    1
   189   143   144    1
   190   143   204    1
   191   144   145    2
   192   144   205    1
   193   145   146    1
   194   145   165    1
   195   146   147    1
   196   146   206    1
   197   146   207    1
   198   147   148    2
   199   147   149    1
   200   147   157    1
   201   149   150    1
   202   149   208    1
   203   149   209    1
   204   150   151    1
   205   150   210    1
   206   150   211    1
   207   151   152    1
   208   151   212    1
   209   151   213    1
   210   152   153    1
   211   152   214    1
   212   152   215    1
   213   153   154    1
   214   153   216    1
   215   153   217    1
   216   154   155    1
   217   154   218    1
   218   154   219    1
   219   155   156    1
   220   155   220    1
   221   155   221    1
   222   156   222    1
   223   156   223    1
   224   156   224    1
   225   157   158    1
   226   157   225    1
   227   157   226    1
   228   158   159    1
   229   158   227    1
   230   158   228    1
   231   159   160    1
   232   159   229    1
   233   159   230    1
   234   160   161    1
   235   160   231    1
   236   160   232    1
   237   161   162    1
   238   161   233    1
   239   161   234    1
   240   162   163    1
   241   162   235    1
   242   162   236    1
   243   163   164    1
   244   163   237    1
   245   163   238    1
   246   164   239    1
   247   164   240    1
   248   164   241    1
   249   165   166    1
   250   242   243    1
   251   242   287    1
   252   242   288    1
   253   242   289    1
   254   243   244    1
   255   243   290    1
   256   243   291    1
   257   244   245    1
   258   244   292    1
   259   244   293    1
   260   245   246    1
   261   245   294    1
   262   245   295    1
   263   246   247    1
   264   246   296    1
   265   246   297    1
   266   247   248    1
   267   247   298    1
   268   247   299    1
   269   248   249    1
   270   248   300    1
   271   248   301    1
   272   249   250    1
   273   249   302    1
   274   249   303    1
   275   250   251    2
   276   250   252    1
   277   250   260    1
   278   252   253    1
   279   252   304    1
   280   252   305    1
   281   253   254    1
   282   253   306    1
   283   253   307    1
   284   254   255    1
   285   254   308    1
   286   254   309    1
   287   255   256    1
   288   255   310    1
   289   255   311    1
   290   256   257    1
   291   256   312    1
   292   256   313    1
   293   257   258    1
   294   257   314    1
   295   257   315    1
   296   258   259    1
   297   258   316    1
   298   258   317    1
   299   259   318    1
   300   259   319    1
   301   259   320    1
   302   260   261    1
   303   260   321    1
   304   260   322    1
   305   261   262    1
   306   261   285    2
   307   262   263    2
   308   262   323    1
   309   263   264    1
   310   263   324    1
   311   264   265    2
   312   264   325    1
   313   265   266    1
   314   265   285    1
   315   266   267    1
   316   266   326    1
   317   266   327    1
   318   267   268    2
   319   267   269    1
   320   267   277    1
   321   269   270    1
   322   269   328    1
   323   269   329    1
   324   270   271    1
   325   270   330    1
   326   270   331    1
   327   271   272    1
   328   271   332    1
   329   271   333    1
   330   272   273    1
   331   272   334    1
   332   272   335    1
   333   273   274    1
   334   273   336    1
   335   273   337    1
   336   274   275    1
   337   274   338    1
   338   274   339    1
   339   275   276    1
   340   275   340    1
   341   275   341    1
   342   276   342    1
   343   276   343    1
   344   276   344    1
   345   277   278    1
   346   277   345    1
   347   277   346    1
   348   278   279    1
   349   278   347    1
   350   278   348    1
   351   279   280    1
   352   279   349    1
   353   279   350    1
   354   280   281    1
   355   280   351    1
   356   280   352    1
   357   281   282    1
   358   281   353    1
   359   281   354    1
   360   282   283    1
   361   282   355    1
   362   282   356    1
   363   283   284    1
   364   283   357    1
   365   283   358    1
   366   284   359    1
   367   284   360    1
   368   284   361    1
   369   285   286    1
@<TRIPOS>SUBSTRUCTURE
     1 RES1      361 GROUP             0 ****  ****    0  
