@<TRIPOS>MOLECULE
am_c3_9H2O_c0_0_nunpairedes_0_charge_3 Charge: 3 Unpaired_Electrons: 2 XTB_Unpaired_Electrons: 0 XTB_Charge: 3
   286   291     1     0     0
SMALL
NoCharges
****
Generated from Architector

@<TRIPOS>ATOM
     1 Pr1      -0.2559    0.1055    0.3356   Pr        1 RES1   0.0000
     2 C1        0.4502    3.7373   -7.0318   C.3       1 RES1   0.0000
     3 C2        1.2688    3.8753   -5.7461   C.3       1 RES1   0.0000
     4 C3        0.8316    2.7612   -4.7944   C.3       1 RES1   0.0000
     5 C4        1.0843    5.2766   -5.1510   C.3       1 RES1   0.0000
     6 C5        2.1856    5.7816   -4.2087   C.3       1 RES1   0.0000
     7 C6        2.1324    5.1819   -2.7988   C.3       1 RES1   0.0000
     8 C7        2.8247    6.0133   -1.6998   C.3       1 RES1   0.0000
     9 C8        4.2581    5.5613   -1.4316   C.3       1 RES1   0.0000
    10 C9        2.0114    5.9605   -0.3935   C.3       1 RES1   0.0000
    11 C10       0.9135    7.0200   -0.3895   C.3       1 RES1   0.0000
    12 C11      -0.0537    6.9417    0.7908   C.3       1 RES1   0.0000
    13 C12      -1.1095    5.8296    0.6832   C.3       1 RES1   0.0000
    14 N1       -0.7567    4.5050    1.2012   N.am      1 RES1   0.0000
    15 C13      -0.2811    4.4995    2.5735   C.3       1 RES1   0.0000
    16 C14      -1.0131    3.3488    0.6064   C.2       1 RES1   0.0000
    17 O1       -0.9004    2.2401    1.1748   O.2       1 RES1   0.0000
    18 C15      -1.4685    3.3515   -0.8620   C.3       1 RES1   0.0000
    19 O2       -1.5255    1.9999   -1.2972   O.3       1 RES1   0.0000
    20 C16      -2.7631    1.5961   -1.8645   C.3       1 RES1   0.0000
    21 C17      -2.9643    0.1228   -1.5088   C.2       1 RES1   0.0000
    22 O3       -2.2038   -0.4097   -0.6758   O.2       1 RES1   0.0000
    23 N2       -3.8899   -0.5722   -2.1565   N.am      1 RES1   0.0000
    24 C18      -3.9086   -2.0074   -1.9179   C.3       1 RES1   0.0000
    25 C19      -5.0691    0.0092   -2.7844   C.3       1 RES1   0.0000
    26 C20      -6.1994    0.1080   -1.7474   C.3       1 RES1   0.0000
    27 C21      -5.9191    1.1630   -0.6747   C.3       1 RES1   0.0000
    28 C22      -7.1669    1.6324    0.0766   C.3       1 RES1   0.0000
    29 C23      -7.8564    0.6360    1.0209   C.3       1 RES1   0.0000
    30 C24      -9.2836    1.1306    1.2490   C.3       1 RES1   0.0000
    31 C25      -7.0673    0.5176    2.3331   C.3       1 RES1   0.0000
    32 C26      -7.6828   -0.4289    3.3658   C.3       1 RES1   0.0000
    33 C27      -6.8514   -0.5393    4.6560   C.3       1 RES1   0.0000
    34 C28      -7.4537    0.1775    5.8724   C.3       1 RES1   0.0000
    35 C29      -6.6213   -0.1149    7.1192   C.3       1 RES1   0.0000
    36 C30      -7.5318    1.6892    5.6815   C.3       1 RES1   0.0000
    37 H1        0.5937    2.7551   -7.4788   H         1 RES1   0.0000
    38 H2       -0.6094    3.8627   -6.8145   H         1 RES1   0.0000
    39 H3        0.7423    4.4819   -7.7663   H         1 RES1   0.0000
    40 H4        2.3265    3.7322   -5.9894   H         1 RES1   0.0000
    41 H5       -0.2419    2.8223   -4.6142   H         1 RES1   0.0000
    42 H6        1.0429    1.8017   -5.2586   H         1 RES1   0.0000
    43 H7        1.3434    2.8078   -3.8369   H         1 RES1   0.0000
    44 H8        1.0334    5.9761   -5.9841   H         1 RES1   0.0000
    45 H9        0.1197    5.3193   -4.6410   H         1 RES1   0.0000
    46 H10       3.1611    5.5958   -4.6598   H         1 RES1   0.0000
    47 H11       2.0660    6.8635   -4.1293   H         1 RES1   0.0000
    48 H12       1.0757    5.0618   -2.5363   H         1 RES1   0.0000
    49 H13       2.5881    4.1903   -2.8202   H         1 RES1   0.0000
    50 H14       2.8641    7.0564   -2.0268   H         1 RES1   0.0000
    51 H15       4.2795    4.6015   -0.9171   H         1 RES1   0.0000
    52 H16       4.8267    5.4760   -2.3497   H         1 RES1   0.0000
    53 H17       4.7607    6.2847   -0.7977   H         1 RES1   0.0000
    54 H18       1.5772    4.9645   -0.2552   H         1 RES1   0.0000
    55 H19       2.6796    6.1501    0.4475   H         1 RES1   0.0000
    56 H20       1.3945    7.9970   -0.3558   H         1 RES1   0.0000
    57 H21       0.3482    6.9717   -1.3228   H         1 RES1   0.0000
    58 H22       0.5006    6.9027    1.7275   H         1 RES1   0.0000
    59 H23      -0.6214    7.8736    0.8058   H         1 RES1   0.0000
    60 H24      -1.9743    6.1616    1.2646   H         1 RES1   0.0000
    61 H25      -1.3942    5.7564   -0.3655   H         1 RES1   0.0000
    62 H26      -0.9164    5.1255    3.2000   H         1 RES1   0.0000
    63 H27      -0.2720    3.4819    2.9595   H         1 RES1   0.0000
    64 H28       0.7292    4.9021    2.5922   H         1 RES1   0.0000
    65 H29      -2.4440    3.8481   -0.9362   H         1 RES1   0.0000
    66 H30      -0.7547    3.8979   -1.4941   H         1 RES1   0.0000
    67 H31      -3.5912    2.1915   -1.4671   H         1 RES1   0.0000
    68 H32      -2.7357    1.7096   -2.9574   H         1 RES1   0.0000
    69 H33      -3.0453   -2.4706   -2.4026   H         1 RES1   0.0000
    70 H34      -3.8463   -2.2127   -0.8470   H         1 RES1   0.0000
    71 H35      -4.8143   -2.4404   -2.3340   H         1 RES1   0.0000
    72 H36      -4.8313    0.9951   -3.1870   H         1 RES1   0.0000
    73 H37      -5.3627   -0.6334   -3.6217   H         1 RES1   0.0000
    74 H38      -7.1192    0.3574   -2.2744   H         1 RES1   0.0000
    75 H39      -6.3319   -0.8681   -1.2785   H         1 RES1   0.0000
    76 H40      -5.1639    0.7834    0.0191   H         1 RES1   0.0000
    77 H41      -5.5139    2.0540   -1.1667   H         1 RES1   0.0000
    78 H42      -6.8787    2.5042    0.6661   H         1 RES1   0.0000
    79 H43      -7.8848    1.9736   -0.6715   H         1 RES1   0.0000
    80 H44      -7.9051   -0.3480    0.5454   H         1 RES1   0.0000
    81 H45      -9.2763    2.1010    1.7386   H         1 RES1   0.0000
    82 H46      -9.7973    1.2342    0.2962   H         1 RES1   0.0000
    83 H47      -9.8534    0.4419    1.8623   H         1 RES1   0.0000
    84 H48      -6.0568    0.1633    2.0996   H         1 RES1   0.0000
    85 H49      -6.9771    1.5132    2.7698   H         1 RES1   0.0000
    86 H50      -8.6834   -0.0878    3.6272   H         1 RES1   0.0000
    87 H51      -7.7828   -1.4164    2.9087   H         1 RES1   0.0000
    88 H52      -6.7346   -1.5935    4.9157   H         1 RES1   0.0000
    89 H53      -5.8516   -0.1382    4.4867   H         1 RES1   0.0000
    90 H54      -8.4646   -0.2072    6.0347   H         1 RES1   0.0000
    91 H55      -5.6150    0.2838    7.0003   H         1 RES1   0.0000
    92 H56      -7.0725    0.3531    7.9904   H         1 RES1   0.0000
    93 H57      -6.5498   -1.1833    7.3048   H         1 RES1   0.0000
    94 H58      -6.5351    2.0952    5.5139   H         1 RES1   0.0000
    95 H59      -8.1663    1.9566    4.8414   H         1 RES1   0.0000
    96 H60      -7.9405    2.1538    6.5761   H         1 RES1   0.0000
    97 C31      -4.8380    5.1226    4.9803   C.3       1 RES1   0.0000
    98 C32      -4.9347    4.8652    3.4801   C.3       1 RES1   0.0000
    99 C33      -4.0809    5.8733    2.7168   C.3       1 RES1   0.0000
   100 C34      -4.6281    3.4023    3.1203   C.3       1 RES1   0.0000
   101 C35      -3.2710    2.8006    3.5433   C.3       1 RES1   0.0000
   102 C36      -3.5137    1.4916    4.2942   C.3       1 RES1   0.0000
   103 C37      -2.3571    0.4927    4.4504   C.3       1 RES1   0.0000
   104 C38      -2.9330   -0.6609    5.2838   C.3       1 RES1   0.0000
   105 C39      -1.0991    1.0829    5.1067   C.3       1 RES1   0.0000
   106 C40      -0.1555   -0.0191    5.5955   C.3       1 RES1   0.0000
   107 C41       1.2617    0.4567    5.9279   C.3       1 RES1   0.0000
   108 C42       2.2870    0.1238    4.8373   C.3       1 RES1   0.0000
   109 N3        2.4910    1.1962    3.8751   N.am      1 RES1   0.0000
   110 C43       3.2940    2.3079    4.3437   C.3       1 RES1   0.0000
   111 C44       1.9396    1.1426    2.6716   C.2       1 RES1   0.0000
   112 O4        1.1700    0.2348    2.3042   O.2       1 RES1   0.0000
   113 C45       2.3427    2.2647    1.7061   C.3       1 RES1   0.0000
   114 O5        1.5793    2.2170    0.5042   O.3       1 RES1   0.0000
   115 C46       2.3359    2.1010   -0.6815   C.3       1 RES1   0.0000
   116 C47       2.5679    0.6254   -1.0150   C.2       1 RES1   0.0000
   117 O6        1.9867   -0.2259   -0.3177   O.2       1 RES1   0.0000
   118 N4        3.3995    0.3572   -2.0054   N.am      1 RES1   0.0000
   119 C48       3.7674    1.4006   -2.9413   C.3       1 RES1   0.0000
   120 C49       3.6570   -1.0159   -2.4536   C.3       1 RES1   0.0000
   121 C50       4.0004   -2.0399   -1.3648   C.3       1 RES1   0.0000
   122 C51       4.1580   -3.4595   -1.9429   C.3       1 RES1   0.0000
   123 C52       4.2741   -4.5140   -0.8295   C.3       1 RES1   0.0000
   124 C53       3.7447   -5.9396   -1.1097   C.3       1 RES1   0.0000
   125 C54       3.9855   -6.7554    0.1643   C.3       1 RES1   0.0000
   126 C55       2.2516   -5.9459   -1.4835   C.3       1 RES1   0.0000
   127 C56       1.5456   -7.3070   -1.6356   C.3       1 RES1   0.0000
   128 C57       1.6056   -7.9231   -3.0313   C.3       1 RES1   0.0000
   129 C58       0.8737   -9.2739   -3.1337   C.3       1 RES1   0.0000
   130 C59       1.5531  -10.3642   -2.3060   C.3       1 RES1   0.0000
   131 C60      -0.6082   -9.1744   -2.7609   C.3       1 RES1   0.0000
   132 H61      -5.2024    6.1181    5.2161   H         1 RES1   0.0000
   133 H62      -5.4378    4.4064    5.5339   H         1 RES1   0.0000
   134 H63      -3.8089    5.0544    5.3249   H         1 RES1   0.0000
   135 H64      -5.9753    5.0286    3.1772   H         1 RES1   0.0000
   136 H65      -3.0718    5.8955    3.1245   H         1 RES1   0.0000
   137 H66      -4.0489    5.6187    1.6573   H         1 RES1   0.0000
   138 H67      -4.5071    6.8690    2.8172   H         1 RES1   0.0000
   139 H68      -5.4177    2.8194    3.5944   H         1 RES1   0.0000
   140 H69      -4.7506    3.2798    2.0410   H         1 RES1   0.0000
   141 H70      -2.6590    2.5910    2.6627   H         1 RES1   0.0000
   142 H71      -2.7248    3.4943    4.1808   H         1 RES1   0.0000
   143 H72      -3.8961    1.7347    5.2888   H         1 RES1   0.0000
   144 H73      -4.3037    0.9583    3.7593   H         1 RES1   0.0000
   145 H74      -2.0606    0.1219    3.4476   H         1 RES1   0.0000
   146 H75      -3.3053   -0.2724    6.2290   H         1 RES1   0.0000
   147 H76      -3.7691   -1.1210    4.7620   H         1 RES1   0.0000
   148 H77      -2.2062   -1.4333    5.5068   H         1 RES1   0.0000
   149 H78      -0.5764    1.7083    4.3766   H         1 RES1   0.0000
   150 H79      -1.3956    1.7082    5.9496   H         1 RES1   0.0000
   151 H80      -0.5792   -0.4587    6.4954   H         1 RES1   0.0000
   152 H81      -0.0959   -0.8004    4.8335   H         1 RES1   0.0000
   153 H82       1.2611    1.5305    6.1122   H         1 RES1   0.0000
   154 H83       1.5955   -0.0259    6.8464   H         1 RES1   0.0000
   155 H84       3.2546   -0.0883    5.2967   H         1 RES1   0.0000
   156 H85       1.9704   -0.7598    4.2823   H         1 RES1   0.0000
   157 H86       3.6463    2.0773    5.3477   H         1 RES1   0.0000
   158 H87       4.1651    2.4725    3.7094   H         1 RES1   0.0000
   159 H88       2.7061    3.2250    4.3950   H         1 RES1   0.0000
   160 H89       2.1874    3.2521    2.1553   H         1 RES1   0.0000
   161 H90       3.4141    2.1602    1.4977   H         1 RES1   0.0000
   162 H91       1.7435    2.5815   -1.4710   H         1 RES1   0.0000
   163 H92       3.2940    2.6214   -0.5748   H         1 RES1   0.0000
   164 H93       3.8027    2.3854   -2.4900   H         1 RES1   0.0000
   165 H94       4.7513    1.1880   -3.3485   H         1 RES1   0.0000
   166 H95       3.0467    1.4293   -3.7585   H         1 RES1   0.0000
   167 H96       2.7809   -1.3509   -3.0119   H         1 RES1   0.0000
   168 H97       4.5009   -0.9610   -3.1448   H         1 RES1   0.0000
   169 H98       4.9374   -1.7511   -0.8875   H         1 RES1   0.0000
   170 H99       3.2252   -2.0325   -0.5975   H         1 RES1   0.0000
   171 H100      3.3160   -3.6904   -2.5979   H         1 RES1   0.0000
   172 H101      5.0576   -3.4979   -2.5600   H         1 RES1   0.0000
   173 H102      5.3302   -4.6096   -0.5848   H         1 RES1   0.0000
   174 H103      3.7777   -4.1418    0.0727   H         1 RES1   0.0000
   175 H104      4.3179   -6.3855   -1.9254   H         1 RES1   0.0000
   176 H105      3.3997   -6.3446    0.9887   H         1 RES1   0.0000
   177 H106      3.7121   -7.7982    0.0303   H         1 RES1   0.0000
   178 H107      5.0352   -6.7315    0.4487   H         1 RES1   0.0000
   179 H108      1.7298   -5.3934   -0.6948   H         1 RES1   0.0000
   180 H109      2.1162   -5.4073   -2.4253   H         1 RES1   0.0000
   181 H110      1.9378   -8.0183   -0.9141   H         1 RES1   0.0000
   182 H111      0.4906   -7.1454   -1.4012   H         1 RES1   0.0000
   183 H112      1.1482   -7.2316   -3.7450   H         1 RES1   0.0000
   184 H113      2.6418   -8.0691   -3.3352   H         1 RES1   0.0000
   185 H114      0.9278   -9.5731   -4.1859   H         1 RES1   0.0000
   186 H115      1.4303  -10.1866   -1.2392   H         1 RES1   0.0000
   187 H116      1.1120  -11.3320   -2.5320   H         1 RES1   0.0000
   188 H117      2.6163  -10.4158   -2.5306   H         1 RES1   0.0000
   189 H118     -0.7472   -9.1343   -1.6815   H         1 RES1   0.0000
   190 H119     -1.0660   -8.2934   -3.2091   H         1 RES1   0.0000
   191 H120     -1.1408  -10.0497   -3.1254   H         1 RES1   0.0000
   192 C61       9.1223   -0.2808   -1.4761   C.3       1 RES1   0.0000
   193 C62       7.9497    0.1949   -2.3319   C.3       1 RES1   0.0000
   194 C63       6.8245    0.5682   -1.3630   C.3       1 RES1   0.0000
   195 C64       7.5089   -0.9031   -3.3357   C.3       1 RES1   0.0000
   196 C65       7.5694   -0.5452   -4.8316   C.3       1 RES1   0.0000
   197 C66       6.3455    0.2254   -5.3716   C.3       1 RES1   0.0000
   198 C67       5.4849   -0.4525   -6.4692   C.3       1 RES1   0.0000
   199 C68       5.4740    0.4287   -7.7227   C.3       1 RES1   0.0000
   200 C69       4.0147   -0.7177   -6.0436   C.3       1 RES1   0.0000
   201 C70       3.6918   -2.1799   -5.7001   C.3       1 RES1   0.0000
   202 C71       2.2088   -2.5703   -5.9172   C.3       1 RES1   0.0000
   203 C72       1.2143   -2.8052   -4.7508   C.3       1 RES1   0.0000
   204 N5        0.6388   -1.6297   -4.0936   N.am      1 RES1   0.0000
   205 C73       0.0362   -0.6694   -4.9987   C.3       1 RES1   0.0000
   206 C74       0.4009   -1.4881   -2.7833   C.2       1 RES1   0.0000
   207 O7        0.0411   -0.4018   -2.2913   O.2       1 RES1   0.0000
   208 C75       0.5327   -2.6966   -1.8552   C.3       1 RES1   0.0000
   209 O8        0.1482   -2.2543   -0.5616   O.3       1 RES1   0.0000
   210 C76       0.4998   -3.1691    0.4622   C.3       1 RES1   0.0000
   211 C77      -0.3180   -2.7711    1.6997   C.2       1 RES1   0.0000
   212 O9       -0.9779   -1.7125    1.6611   O.2       1 RES1   0.0000
   213 N6       -0.3340   -3.6017    2.7264   N.am      1 RES1   0.0000
   214 C78      -1.3135   -3.4023    3.7799   C.3       1 RES1   0.0000
   215 C79       0.5532   -4.7446    2.9054   C.3       1 RES1   0.0000
   216 C80      -0.1930   -6.0742    2.7939   C.3       1 RES1   0.0000
   217 C81      -0.8705   -6.2471    1.4350   C.3       1 RES1   0.0000
   218 C82      -2.0180   -7.2561    1.4852   C.3       1 RES1   0.0000
   219 C83      -3.3093   -6.7040    2.1112   C.3       1 RES1   0.0000
   220 C84      -4.2556   -7.8719    2.3904   C.3       1 RES1   0.0000
   221 C85      -3.9347   -5.6444    1.1868   C.3       1 RES1   0.0000
   222 C86      -5.2869   -5.1224    1.6750   C.3       1 RES1   0.0000
   223 C87      -5.9292   -4.0808    0.7473   C.3       1 RES1   0.0000
   224 C88      -6.9055   -4.6743   -0.2778   C.3       1 RES1   0.0000
   225 C89      -7.6854   -3.5696   -0.9889   C.3       1 RES1   0.0000
   226 C90      -6.2069   -5.5432   -1.3220   C.3       1 RES1   0.0000
   227 H121      9.3221    0.4420   -0.6895   H         1 RES1   0.0000
   228 H122      8.8824   -1.2342   -1.0105   H         1 RES1   0.0000
   229 H123     10.0326   -0.3913   -2.0518   H         1 RES1   0.0000
   230 H124      8.2550    1.0943   -2.8769   H         1 RES1   0.0000
   231 H125      6.3792   -0.3343   -0.9448   H         1 RES1   0.0000
   232 H126      7.2240    1.1585   -0.5405   H         1 RES1   0.0000
   233 H127      6.0526    1.1559   -1.8457   H         1 RES1   0.0000
   234 H128      8.1508   -1.7749   -3.1861   H         1 RES1   0.0000
   235 H129      6.4905   -1.2287   -3.0947   H         1 RES1   0.0000
   236 H130      8.4704    0.0466   -4.9953   H         1 RES1   0.0000
   237 H131      7.6935   -1.4719   -5.3946   H         1 RES1   0.0000
   238 H132      6.6939    1.1825   -5.7654   H         1 RES1   0.0000
   239 H133      5.7082    0.4539   -4.5197   H         1 RES1   0.0000
   240 H134      5.9444   -1.4030   -6.7568   H         1 RES1   0.0000
   241 H135      4.9318    1.3532   -7.5352   H         1 RES1   0.0000
   242 H136      6.4838    0.6852   -8.0285   H         1 RES1   0.0000
   243 H137      4.9980   -0.0883   -8.5516   H         1 RES1   0.0000
   244 H138      3.7520   -0.0707   -5.2060   H         1 RES1   0.0000
   245 H139      3.3709   -0.4307   -6.8788   H         1 RES1   0.0000
   246 H140      4.2724   -2.7983   -6.3861   H         1 RES1   0.0000
   247 H141      4.0306   -2.4343   -4.6967   H         1 RES1   0.0000
   248 H142      1.7662   -1.8673   -6.6215   H         1 RES1   0.0000
   249 H143      2.2249   -3.5398   -6.4184   H         1 RES1   0.0000
   250 H144      0.3802   -3.3547   -5.2051   H         1 RES1   0.0000
   251 H145      1.6771   -3.4538   -4.0082   H         1 RES1   0.0000
   252 H146     -0.6343   -1.1985   -5.6782   H         1 RES1   0.0000
   253 H147     -0.5349    0.0599   -4.4292   H         1 RES1   0.0000
   254 H148      0.7969   -0.1641   -5.5854   H         1 RES1   0.0000
   255 H149     -0.1412   -3.4982   -2.2039   H         1 RES1   0.0000
   256 H150      1.5553   -3.0841   -1.8307   H         1 RES1   0.0000
   257 H151      0.2158   -4.1882    0.1621   H         1 RES1   0.0000
   258 H152      1.5831   -3.1269    0.6573   H         1 RES1   0.0000
   259 H153     -1.7334   -2.4033    3.6960   H         1 RES1   0.0000
   260 H154     -2.1215   -4.1319    3.6784   H         1 RES1   0.0000
   261 H155     -0.8524   -3.5372    4.7555   H         1 RES1   0.0000
   262 H156      1.3677   -4.6979    2.1832   H         1 RES1   0.0000
   263 H157      0.9905   -4.6556    3.9046   H         1 RES1   0.0000
   264 H158      0.5184   -6.8806    2.9634   H         1 RES1   0.0000
   265 H159     -0.9367   -6.1272    3.5867   H         1 RES1   0.0000
   266 H160     -1.2721   -5.2835    1.1153   H         1 RES1   0.0000
   267 H161     -0.1305   -6.5771    0.7025   H         1 RES1   0.0000
   268 H162     -2.2458   -7.5754    0.4673   H         1 RES1   0.0000
   269 H163     -1.6882   -8.1344    2.0431   H         1 RES1   0.0000
   270 H164     -3.0744   -6.2294    3.0712   H         1 RES1   0.0000
   271 H165     -4.6404   -8.2873    1.4624   H         1 RES1   0.0000
   272 H166     -3.7233   -8.6581    2.9211   H         1 RES1   0.0000
   273 H167     -5.0940   -7.5688    3.0104   H         1 RES1   0.0000
   274 H168     -3.2534   -4.7876    1.1083   H         1 RES1   0.0000
   275 H169     -4.0358   -6.0752    0.1907   H         1 RES1   0.0000
   276 H170     -5.9823   -5.9527    1.7847   H         1 RES1   0.0000
   277 H171     -5.1360   -4.6792    2.6638   H         1 RES1   0.0000
   278 H172     -6.4815   -3.3686    1.3647   H         1 RES1   0.0000
   279 H173     -5.1484   -3.5177    0.2291   H         1 RES1   0.0000
   280 H174     -7.6239   -5.2941    0.2655   H         1 RES1   0.0000
   281 H175     -7.0436   -3.0446   -1.6952   H         1 RES1   0.0000
   282 H176     -8.5142   -4.0010   -1.5433   H         1 RES1   0.0000
   283 H177     -8.0955   -2.8544   -0.2798   H         1 RES1   0.0000
   284 H178     -5.3148   -5.0446   -1.7006   H         1 RES1   0.0000
   285 H179     -5.9230   -6.5069   -0.9117   H         1 RES1   0.0000
   286 H180     -6.8729   -5.7258   -2.1613   H         1 RES1   0.0000
@<TRIPOS>BOND
     1     1    17    1
     2     1    19    1
     3     1    22    1
     4     1   112    1
     5     1   114    1
     6     1   117    1
     7     1   207    1
     8     1   209    1
     9     1   212    1
    10     2     3    1
    11     2    37    1
    12     2    38    1
    13     2    39    1
    14     3     4    1
    15     3     5    1
    16     3    40    1
    17     4    41    1
    18     4    42    1
    19     4    43    1
    20     5     6    1
    21     5    44    1
    22     5    45    1
    23     6     7    1
    24     6    46    1
    25     6    47    1
    26     7     8    1
    27     7    48    1
    28     7    49    1
    29     8     9    1
    30     8    10    1
    31     8    50    1
    32     9    51    1
    33     9    52    1
    34     9    53    1
    35    10    11    1
    36    10    54    1
    37    10    55    1
    38    11    12    1
    39    11    56    1
    40    11    57    1
    41    12    13    1
    42    12    58    1
    43    12    59    1
    44    13    14    1
    45    13    60    1
    46    13    61    1
    47    14    15    1
    48    14    16    1
    49    15    62    1
    50    15    63    1
    51    15    64    1
    52    16    17    2
    53    16    18    1
    54    18    19    1
    55    18    65    1
    56    18    66    1
    57    19    20    1
    58    20    21    1
    59    20    67    1
    60    20    68    1
    61    21    22    2
    62    21    23    1
    63    23    24    1
    64    23    25    1
    65    24    69    1
    66    24    70    1
    67    24    71    1
    68    25    26    1
    69    25    72    1
    70    25    73    1
    71    26    27    1
    72    26    74    1
    73    26    75    1
    74    27    28    1
    75    27    76    1
    76    27    77    1
    77    28    29    1
    78    28    78    1
    79    28    79    1
    80    29    30    1
    81    29    31    1
    82    29    80    1
    83    30    81    1
    84    30    82    1
    85    30    83    1
    86    31    32    1
    87    31    84    1
    88    31    85    1
    89    32    33    1
    90    32    86    1
    91    32    87    1
    92    33    34    1
    93    33    88    1
    94    33    89    1
    95    34    35    1
    96    34    36    1
    97    34    90    1
    98    35    91    1
    99    35    92    1
   100    35    93    1
   101    36    94    1
   102    36    95    1
   103    36    96    1
   104    97    98    1
   105    97   132    1
   106    97   133    1
   107    97   134    1
   108    98    99    1
   109    98   100    1
   110    98   135    1
   111    99   136    1
   112    99   137    1
   113    99   138    1
   114   100   101    1
   115   100   139    1
   116   100   140    1
   117   101   102    1
   118   101   141    1
   119   101   142    1
   120   102   103    1
   121   102   143    1
   122   102   144    1
   123   103   104    1
   124   103   105    1
   125   103   145    1
   126   104   146    1
   127   104   147    1
   128   104   148    1
   129   105   106    1
   130   105   149    1
   131   105   150    1
   132   106   107    1
   133   106   151    1
   134   106   152    1
   135   107   108    1
   136   107   153    1
   137   107   154    1
   138   108   109    1
   139   108   155    1
   140   108   156    1
   141   109   110    1
   142   109   111    1
   143   110   157    1
   144   110   158    1
   145   110   159    1
   146   111   112    2
   147   111   113    1
   148   113   114    1
   149   113   160    1
   150   113   161    1
   151   114   115    1
   152   115   116    1
   153   115   162    1
   154   115   163    1
   155   116   117    2
   156   116   118    1
   157   118   119    1
   158   118   120    1
   159   119   164    1
   160   119   165    1
   161   119   166    1
   162   120   121    1
   163   120   167    1
   164   120   168    1
   165   121   122    1
   166   121   169    1
   167   121   170    1
   168   122   123    1
   169   122   171    1
   170   122   172    1
   171   123   124    1
   172   123   173    1
   173   123   174    1
   174   124   125    1
   175   124   126    1
   176   124   175    1
   177   125   176    1
   178   125   177    1
   179   125   178    1
   180   126   127    1
   181   126   179    1
   182   126   180    1
   183   127   128    1
   184   127   181    1
   185   127   182    1
   186   128   129    1
   187   128   183    1
   188   128   184    1
   189   129   130    1
   190   129   131    1
   191   129   185    1
   192   130   186    1
   193   130   187    1
   194   130   188    1
   195   131   189    1
   196   131   190    1
   197   131   191    1
   198   192   193    1
   199   192   227    1
   200   192   228    1
   201   192   229    1
   202   193   194    1
   203   193   195    1
   204   193   230    1
   205   194   231    1
   206   194   232    1
   207   194   233    1
   208   195   196    1
   209   195   234    1
   210   195   235    1
   211   196   197    1
   212   196   236    1
   213   196   237    1
   214   197   198    1
   215   197   238    1
   216   197   239    1
   217   198   199    1
   218   198   200    1
   219   198   240    1
   220   199   241    1
   221   199   242    1
   222   199   243    1
   223   200   201    1
   224   200   244    1
   225   200   245    1
   226   201   202    1
   227   201   246    1
   228   201   247    1
   229   202   203    1
   230   202   248    1
   231   202   249    1
   232   203   204    1
   233   203   250    1
   234   203   251    1
   235   204   205    1
   236   204   206    1
   237   205   252    1
   238   205   253    1
   239   205   254    1
   240   206   207    2
   241   206   208    1
   242   208   209    1
   243   208   255    1
   244   208   256    1
   245   209   210    1
   246   210   211    1
   247   210   257    1
   248   210   258    1
   249   211   212    2
   250   211   213    1
   251   213   214    1
   252   213   215    1
   253   214   259    1
   254   214   260    1
   255   214   261    1
   256   215   216    1
   257   215   262    1
   258   215   263    1
   259   216   217    1
   260   216   264    1
   261   216   265    1
   262   217   218    1
   263   217   266    1
   264   217   267    1
   265   218   219    1
   266   218   268    1
   267   218   269    1
   268   219   220    1
   269   219   221    1
   270   219   270    1
   271   220   271    1
   272   220   272    1
   273   220   273    1
   274   221   222    1
   275   221   274    1
   276   221   275    1
   277   222   223    1
   278   222   276    1
   279   222   277    1
   280   223   224    1
   281   223   278    1
   282   223   279    1
   283   224   225    1
   284   224   226    1
   285   224   280    1
   286   225   281    1
   287   225   282    1
   288   225   283    1
   289   226   284    1
   290   226   285    1
   291   226   286    1
@<TRIPOS>SUBSTRUCTURE
     1 RES1      286 GROUP             0 ****  ****    0  
