@<TRIPOS>MOLECULE
am_c3_9H2O_c0_0_nunpairedes_0_charge_3 Charge: 3 Unpaired_Electrons: 2 XTB_Unpaired_Electrons: 0 XTB_Charge: 3
   367   372     1     0     0
SMALL
NoCharges
****
Generated from Architector

@<TRIPOS>ATOM
     1 Pr1      -0.0475    0.2672   -0.1829   Pr        1 RES1   0.0000
     2 C1       -5.2655   -6.9167   -4.9788   C.3       1 RES1   0.0000
     3 C2       -6.2653   -6.0411   -5.7215   C.3       1 RES1   0.0000
     4 C3       -6.5574   -4.7035   -5.0334   C.3       1 RES1   0.0000
     5 C4       -5.4394   -3.6609   -5.1473   C.3       1 RES1   0.0000
     6 C5       -5.8611   -2.3376   -4.4996   C.3       1 RES1   0.0000
     7 C6       -4.7303   -1.3082   -4.3659   C.3       1 RES1   0.0000
     8 C7       -5.2538    0.0083   -3.7870   C.3       1 RES1   0.0000
     9 C8       -4.3125    1.2245   -3.8541   C.3       1 RES1   0.0000
    10 N1       -2.9326    1.0866   -3.3886   N.am      1 RES1   0.0000
    11 C9       -1.9035    1.0051   -4.4271   C.3       1 RES1   0.0000
    12 C10      -1.6259    2.2784   -5.2339   C.3       1 RES1   0.0000
    13 C11      -0.6389    3.2718   -4.6143   C.3       1 RES1   0.0000
    14 C12      -1.2119    4.2122   -3.5582   C.3       1 RES1   0.0000
    15 C13      -0.2411    5.3650   -3.2996   C.3       1 RES1   0.0000
    16 C14      -0.7697    6.3739   -2.2804   C.3       1 RES1   0.0000
    17 C15       0.3336    7.2871   -1.7445   C.3       1 RES1   0.0000
    18 C16      -0.2248    8.4205   -0.8939   C.3       1 RES1   0.0000
    19 C17      -2.5071    1.0801   -2.1301   C.2       1 RES1   0.0000
    20 O1       -1.2995    1.2147   -1.8504   O.2       1 RES1   0.0000
    21 C18      -3.4703    0.8949   -0.9470   C.3       1 RES1   0.0000
    22 C19      -3.9228    2.2529   -0.4464   C.3       1 RES1   0.0000
    23 O2       -2.6643    0.1746    0.0143   O.3       1 RES1   0.0000
    24 C20      -3.2529   -0.4705    1.1573   C.3       1 RES1   0.0000
    25 C21      -4.5917   -1.1317    0.8221   C.3       1 RES1   0.0000
    26 C22      -4.5468   -1.8802   -0.5093   C.3       1 RES1   0.0000
    27 C23      -2.1775   -1.5084    1.5960   C.2       1 RES1   0.0000
    28 O3       -1.0566   -1.4439    1.0621   O.2       1 RES1   0.0000
    29 N2       -2.4459   -2.4923    2.4581   N.am      1 RES1   0.0000
    30 C24      -1.5224   -3.6317    2.5020   C.3       1 RES1   0.0000
    31 C25      -1.7532   -4.6611    1.3892   C.3       1 RES1   0.0000
    32 C26      -1.1350   -6.0137    1.7773   C.3       1 RES1   0.0000
    33 C27      -0.9587   -7.0219    0.6223   C.3       1 RES1   0.0000
    34 C28       0.2808   -7.9405    0.7856   C.3       1 RES1   0.0000
    35 C29       1.1820   -8.0465   -0.4707   C.3       1 RES1   0.0000
    36 C30       2.6605   -7.7095   -0.2260   C.3       1 RES1   0.0000
    37 C31       3.4381   -7.4727   -1.5197   C.3       1 RES1   0.0000
    38 C32      -3.4215   -2.4902    3.5390   C.3       1 RES1   0.0000
    39 C33      -2.7514   -2.2986    4.9110   C.3       1 RES1   0.0000
    40 C34      -3.5874   -2.8777    6.0584   C.3       1 RES1   0.0000
    41 C35      -4.9460   -2.1866    6.2892   C.3       1 RES1   0.0000
    42 C36      -6.1433   -3.0371    5.8591   C.3       1 RES1   0.0000
    43 C37      -7.4650   -2.2945    6.0434   C.3       1 RES1   0.0000
    44 C38      -8.6548   -3.1541    5.6186   C.3       1 RES1   0.0000
    45 C39      -9.9642   -2.3743    5.6555   C.3       1 RES1   0.0000
    46 H1       -5.0726   -7.8256   -5.5381   H         1 RES1   0.0000
    47 H2       -5.6594   -7.2031   -4.0065   H         1 RES1   0.0000
    48 H3       -4.3131   -6.4088   -4.8505   H         1 RES1   0.0000
    49 H4       -7.2029   -6.5939   -5.8050   H         1 RES1   0.0000
    50 H5       -5.9044   -5.8581   -6.7342   H         1 RES1   0.0000
    51 H6       -6.7833   -4.8860   -3.9800   H         1 RES1   0.0000
    52 H7       -7.4557   -4.2816   -5.4859   H         1 RES1   0.0000
    53 H8       -5.2190   -3.4905   -6.2012   H         1 RES1   0.0000
    54 H9       -4.5289   -4.0332   -4.6776   H         1 RES1   0.0000
    55 H10      -6.2776   -2.5450   -3.5108   H         1 RES1   0.0000
    56 H11      -6.6630   -1.9008   -5.0957   H         1 RES1   0.0000
    57 H12      -4.2878   -1.1327   -5.3478   H         1 RES1   0.0000
    58 H13      -3.9527   -1.7055   -3.7091   H         1 RES1   0.0000
    59 H14      -5.5806   -0.1575   -2.7605   H         1 RES1   0.0000
    60 H15      -6.1427    0.2945   -4.3530   H         1 RES1   0.0000
    61 H16      -4.7828    2.0440   -3.3047   H         1 RES1   0.0000
    62 H17      -4.2398    1.5350   -4.8967   H         1 RES1   0.0000
    63 H18      -2.2126    0.2140   -5.1130   H         1 RES1   0.0000
    64 H19      -0.9848    0.6937   -3.9238   H         1 RES1   0.0000
    65 H20      -2.5557    2.7948   -5.4735   H         1 RES1   0.0000
    66 H21      -1.1956    1.9454   -6.1800   H         1 RES1   0.0000
    67 H22      -0.2364    3.8817   -5.4267   H         1 RES1   0.0000
    68 H23       0.1953    2.7317   -4.1673   H         1 RES1   0.0000
    69 H24      -1.3901    3.6618   -2.6291   H         1 RES1   0.0000
    70 H25      -2.1629    4.6167   -3.9041   H         1 RES1   0.0000
    71 H26      -0.0458    5.8821   -4.2399   H         1 RES1   0.0000
    72 H27       0.7175    4.9601   -2.9566   H         1 RES1   0.0000
    73 H28      -1.2452    5.8386   -1.4507   H         1 RES1   0.0000
    74 H29      -1.5391    6.9891   -2.7463   H         1 RES1   0.0000
    75 H30       0.8880    7.7127   -2.5825   H         1 RES1   0.0000
    76 H31       1.0409    6.6951   -1.1543   H         1 RES1   0.0000
    77 H32      -0.8120    9.0950   -1.5093   H         1 RES1   0.0000
    78 H33       0.5827    8.9896   -0.4429   H         1 RES1   0.0000
    79 H34      -0.8666    8.0380   -0.1029   H         1 RES1   0.0000
    80 H35      -4.3480    0.3320   -1.2489   H         1 RES1   0.0000
    81 H36      -3.0533    2.8842   -0.3018   H         1 RES1   0.0000
    82 H37      -4.4793    2.1359    0.4798   H         1 RES1   0.0000
    83 H38      -4.5700    2.7187   -1.1809   H         1 RES1   0.0000
    84 H39      -3.3832    0.2548    1.9785   H         1 RES1   0.0000
    85 H40      -5.3741   -0.3746    0.8079   H         1 RES1   0.0000
    86 H41      -4.8582   -1.8321    1.6063   H         1 RES1   0.0000
    87 H42      -3.6769   -1.6091   -1.1023   H         1 RES1   0.0000
    88 H43      -5.4456   -1.6752   -1.0875   H         1 RES1   0.0000
    89 H44      -4.4899   -2.9436   -0.3333   H         1 RES1   0.0000
    90 H45      -1.6818   -4.1381    3.4468   H         1 RES1   0.0000
    91 H46      -0.4933   -3.2671    2.4669   H         1 RES1   0.0000
    92 H47      -1.3020   -4.3023    0.4695   H         1 RES1   0.0000
    93 H48      -2.8237   -4.7843    1.2252   H         1 RES1   0.0000
    94 H49      -1.7412   -6.4597    2.5655   H         1 RES1   0.0000
    95 H50      -0.1572   -5.8223    2.2121   H         1 RES1   0.0000
    96 H51      -0.8554   -6.4787   -0.3194   H         1 RES1   0.0000
    97 H52      -1.8695   -7.6223    0.5439   H         1 RES1   0.0000
    98 H53      -0.0465   -8.9403    1.0671   H         1 RES1   0.0000
    99 H54       0.8759   -7.5767    1.6244   H         1 RES1   0.0000
   100 H55       0.7843   -7.3984   -1.2596   H         1 RES1   0.0000
   101 H56       1.1384   -9.0573   -0.8752   H         1 RES1   0.0000
   102 H57       3.1392   -8.5234    0.3188   H         1 RES1   0.0000
   103 H58       2.7471   -6.8260    0.4015   H         1 RES1   0.0000
   104 H59       3.6111   -8.4107   -2.0394   H         1 RES1   0.0000
   105 H60       4.4072   -7.0267   -1.3017   H         1 RES1   0.0000
   106 H61       2.9030   -6.8106   -2.2030   H         1 RES1   0.0000
   107 H62      -4.1525   -1.6967    3.4035   H         1 RES1   0.0000
   108 H63      -3.9320   -3.4559    3.5113   H         1 RES1   0.0000
   109 H64      -2.5742   -1.2366    5.0872   H         1 RES1   0.0000
   110 H65      -1.7741   -2.7856    4.9393   H         1 RES1   0.0000
   111 H66      -2.9801   -2.7879    6.9607   H         1 RES1   0.0000
   112 H67      -3.7455   -3.9457    5.8843   H         1 RES1   0.0000
   113 H68      -5.0614   -1.9704    7.3527   H         1 RES1   0.0000
   114 H69      -4.9705   -1.2206    5.7749   H         1 RES1   0.0000
   115 H70      -6.1682   -3.9464    6.4631   H         1 RES1   0.0000
   116 H71      -6.0380   -3.3380    4.8119   H         1 RES1   0.0000
   117 H72      -7.4517   -1.3788    5.4446   H         1 RES1   0.0000
   118 H73      -7.5771   -2.0113    7.0929   H         1 RES1   0.0000
   119 H74      -8.7333   -4.0197    6.2796   H         1 RES1   0.0000
   120 H75      -8.4878   -3.5269    4.6042   H         1 RES1   0.0000
   121 H76     -10.1981   -2.0638    6.6710   H         1 RES1   0.0000
   122 H77     -10.7847   -2.9886    5.2914   H         1 RES1   0.0000
   123 H78      -9.8993   -1.4829    5.0328   H         1 RES1   0.0000
   124 C40      -2.9718   -7.3969    4.9025   C.3       1 RES1   0.0000
   125 C41      -1.8661   -7.9115    5.8133   C.3       1 RES1   0.0000
   126 C42      -0.4726   -7.4713    5.3551   C.3       1 RES1   0.0000
   127 C43      -0.2045   -5.9725    5.5327   C.3       1 RES1   0.0000
   128 C44       1.1512   -5.5597    4.9515   C.3       1 RES1   0.0000
   129 C45       1.3901   -4.0413    4.9047   C.3       1 RES1   0.0000
   130 C46       2.6165   -3.7279    4.0455   C.3       1 RES1   0.0000
   131 C47       3.0651   -2.2623    3.9194   C.3       1 RES1   0.0000
   132 N3        2.1171   -1.2677    3.4111   N.am      1 RES1   0.0000
   133 C48       1.5626   -0.3749    4.4339   C.3       1 RES1   0.0000
   134 C49       2.5931    0.6118    4.9968   C.3       1 RES1   0.0000
   135 C50       2.9386    1.7288    4.0068   C.3       1 RES1   0.0000
   136 C51       4.3724    2.2562    4.1186   C.3       1 RES1   0.0000
   137 C52       4.5695    3.3998    3.1226   C.3       1 RES1   0.0000
   138 C53       6.0123    3.8499    2.9132   C.3       1 RES1   0.0000
   139 C54       6.0808    4.9482    1.8507   C.3       1 RES1   0.0000
   140 C55       7.4921    5.1680    1.3321   C.3       1 RES1   0.0000
   141 C56       1.8985   -0.9890    2.1254   C.2       1 RES1   0.0000
   142 O4        1.2281   -0.0030    1.7566   O.2       1 RES1   0.0000
   143 C57       2.4764   -1.9175    1.0394   C.3       1 RES1   0.0000
   144 C58       3.9701   -1.6461    0.7919   C.3       1 RES1   0.0000
   145 O5        1.6995   -1.6505   -0.1430   O.3       1 RES1   0.0000
   146 C59       1.6379   -2.6490   -1.2043   C.3       1 RES1   0.0000
   147 C60       2.3367   -3.9404   -0.8064   C.3       1 RES1   0.0000
   148 C61       1.4983   -4.7099    0.2089   C.3       1 RES1   0.0000
   149 C62       0.1261   -2.7125   -1.5630   C.2       1 RES1   0.0000
   150 O6       -0.5275   -1.6677   -1.3941   O.2       1 RES1   0.0000
   151 N4       -0.4877   -3.8304   -2.0012   N.am      1 RES1   0.0000
   152 C63      -1.9640   -3.7533   -2.0012   C.3       1 RES1   0.0000
   153 C64      -2.6926   -5.1021   -2.0391   C.3       1 RES1   0.0000
   154 C65      -4.2244   -4.9563   -2.1223   C.3       1 RES1   0.0000
   155 C66      -4.9919   -5.3638   -0.8598   C.3       1 RES1   0.0000
   156 C67      -6.4226   -4.7933   -0.8769   C.3       1 RES1   0.0000
   157 C68      -6.8786   -4.3011    0.5034   C.3       1 RES1   0.0000
   158 C69      -7.7662   -3.0599    0.4406   C.3       1 RES1   0.0000
   159 C70      -8.0896   -2.5504    1.8412   C.3       1 RES1   0.0000
   160 C71       0.1443   -4.7023   -2.9915   C.3       1 RES1   0.0000
   161 C72       0.5160   -3.9259   -4.2692   C.3       1 RES1   0.0000
   162 C73       0.1347   -4.6519   -5.5717   C.3       1 RES1   0.0000
   163 C74       1.2598   -5.5000   -6.1695   C.3       1 RES1   0.0000
   164 C75       1.6077   -6.7740   -5.3948   C.3       1 RES1   0.0000
   165 C76       3.0199   -7.2425   -5.7470   C.3       1 RES1   0.0000
   166 C77       3.3358   -8.6307   -5.1935   C.3       1 RES1   0.0000
   167 C78       4.8155   -8.9691   -5.3394   C.3       1 RES1   0.0000
   168 H79      -3.9446   -7.7014    5.2719   H         1 RES1   0.0000
   169 H80      -2.8485   -7.8037    3.9019   H         1 RES1   0.0000
   170 H81      -2.9618   -6.3113    4.8477   H         1 RES1   0.0000
   171 H82      -1.9006   -9.0023    5.8142   H         1 RES1   0.0000
   172 H83      -2.0430   -7.5787    6.8369   H         1 RES1   0.0000
   173 H84      -0.3490   -7.7399    4.3023   H         1 RES1   0.0000
   174 H85       0.2740   -8.0264    5.9221   H         1 RES1   0.0000
   175 H86      -0.2415   -5.7230    6.5934   H         1 RES1   0.0000
   176 H87      -0.9953   -5.4103    5.0330   H         1 RES1   0.0000
   177 H88       1.2239   -5.9633    3.9382   H         1 RES1   0.0000
   178 H89       1.9452   -6.0243    5.5365   H         1 RES1   0.0000
   179 H90       1.5261   -3.6669    5.9193   H         1 RES1   0.0000
   180 H91       0.5170   -3.5459    4.4803   H         1 RES1   0.0000
   181 H92       2.4571   -4.1579    3.0557   H         1 RES1   0.0000
   182 H93       3.4689   -4.2480    4.4862   H         1 RES1   0.0000
   183 H94       3.9474   -2.2435    3.2793   H         1 RES1   0.0000
   184 H95       3.3675   -1.9158    4.9091   H         1 RES1   0.0000
   185 H96       1.1785   -0.9923    5.2475   H         1 RES1   0.0000
   186 H97       0.7320    0.1756    3.9867   H         1 RES1   0.0000
   187 H98       3.5041    0.0827    5.2762   H         1 RES1   0.0000
   188 H99       2.1795    1.0334    5.9143   H         1 RES1   0.0000
   189 H100      2.2566    2.5673    4.1616   H         1 RES1   0.0000
   190 H101      2.7829    1.3615    2.9881   H         1 RES1   0.0000
   191 H102      5.0829    1.4533    3.9024   H         1 RES1   0.0000
   192 H103      4.5649    2.6132    5.1302   H         1 RES1   0.0000
   193 H104      3.9735    4.2610    3.4364   H         1 RES1   0.0000
   194 H105      4.1887    3.0614    2.1554   H         1 RES1   0.0000
   195 H106      6.6162    2.9984    2.5931   H         1 RES1   0.0000
   196 H107      6.4264    4.2165    3.8519   H         1 RES1   0.0000
   197 H108      5.6920    5.8774    2.2689   H         1 RES1   0.0000
   198 H109      5.4340    4.6707    1.0136   H         1 RES1   0.0000
   199 H110      8.1539    5.4490    2.1426   H         1 RES1   0.0000
   200 H111      7.5068    5.9598    0.5903   H         1 RES1   0.0000
   201 H112      7.8786    4.2617    0.8738   H         1 RES1   0.0000
   202 H113      2.3223   -2.9373    1.3848   H         1 RES1   0.0000
   203 H114      4.3011   -0.7354    1.2807   H         1 RES1   0.0000
   204 H115      4.1301   -1.5187   -0.2739   H         1 RES1   0.0000
   205 H116      4.5934   -2.4692    1.1287   H         1 RES1   0.0000
   206 H117      2.1417   -2.2112   -2.0800   H         1 RES1   0.0000
   207 H118      3.3052   -3.6858   -0.3872   H         1 RES1   0.0000
   208 H119      2.5792   -4.5359   -1.6826   H         1 RES1   0.0000
   209 H120      0.7384   -4.0618    0.6368   H         1 RES1   0.0000
   210 H121      2.1041   -5.1135    1.0140   H         1 RES1   0.0000
   211 H122      0.9971   -5.5408   -0.2605   H         1 RES1   0.0000
   212 H123     -2.2932   -3.1371   -2.8434   H         1 RES1   0.0000
   213 H124     -2.2277   -3.2174   -1.0857   H         1 RES1   0.0000
   214 H125     -2.4446   -5.6838   -1.1549   H         1 RES1   0.0000
   215 H126     -2.3664   -5.6708   -2.9087   H         1 RES1   0.0000
   216 H127     -4.5899   -5.5698   -2.9401   H         1 RES1   0.0000
   217 H128     -4.4831   -3.9313   -2.3757   H         1 RES1   0.0000
   218 H129     -4.4813   -4.9922    0.0325   H         1 RES1   0.0000
   219 H130     -4.9962   -6.4511   -0.7734   H         1 RES1   0.0000
   220 H131     -7.1203   -5.5378   -1.2577   H         1 RES1   0.0000
   221 H132     -6.4368   -3.9528   -1.5763   H         1 RES1   0.0000
   222 H133     -5.9928   -4.0631    1.1002   H         1 RES1   0.0000
   223 H134     -7.4050   -5.0882    1.0402   H         1 RES1   0.0000
   224 H135     -8.6849   -3.2871   -0.1011   H         1 RES1   0.0000
   225 H136     -7.2525   -2.2689   -0.1096   H         1 RES1   0.0000
   226 H137     -8.8009   -3.2058    2.3359   H         1 RES1   0.0000
   227 H138     -8.5161   -1.5499    1.8134   H         1 RES1   0.0000
   228 H139     -7.1856   -2.5157    2.4520   H         1 RES1   0.0000
   229 H140     -0.5564   -5.4924   -3.2536   H         1 RES1   0.0000
   230 H141      1.0216   -5.1912   -2.5764   H         1 RES1   0.0000
   231 H142      1.5908   -3.7279   -4.2757   H         1 RES1   0.0000
   232 H143      0.0006   -2.9598   -4.2408   H         1 RES1   0.0000
   233 H144     -0.1395   -3.8945   -6.3089   H         1 RES1   0.0000
   234 H145     -0.7440   -5.2781   -5.4056   H         1 RES1   0.0000
   235 H146      2.1542   -4.8780   -6.2572   H         1 RES1   0.0000
   236 H147      0.9649   -5.7764   -7.1822   H         1 RES1   0.0000
   237 H148      0.8915   -7.5620   -5.6364   H         1 RES1   0.0000
   238 H149      1.5546   -6.5983   -4.3176   H         1 RES1   0.0000
   239 H150      3.7438   -6.5282   -5.3394   H         1 RES1   0.0000
   240 H151      3.1341   -7.2530   -6.8326   H         1 RES1   0.0000
   241 H152      2.7408   -9.3821   -5.7158   H         1 RES1   0.0000
   242 H153      3.0585   -8.6700   -4.1378   H         1 RES1   0.0000
   243 H154      5.0935   -9.0209   -6.3892   H         1 RES1   0.0000
   244 H155      5.0374   -9.9306   -4.8823   H         1 RES1   0.0000
   245 H156      5.4336   -8.2120   -4.8580   H         1 RES1   0.0000
   246 C79       1.9298    5.6194    7.7673   C.3       1 RES1   0.0000
   247 C80       1.8790    4.4893    6.7424   C.3       1 RES1   0.0000
   248 C81       0.6297    3.6132    6.8836   C.3       1 RES1   0.0000
   249 C82      -0.7131    4.3003    6.6126   C.3       1 RES1   0.0000
   250 C83      -1.1482    4.3294    5.1424   C.3       1 RES1   0.0000
   251 C84      -0.3914    5.3527    4.2806   C.3       1 RES1   0.0000
   252 C85      -1.2464    6.1084    3.2460   C.3       1 RES1   0.0000
   253 C86      -1.3232    5.6039    1.7868   C.3       1 RES1   0.0000
   254 N5       -1.5194    4.1741    1.6375   N.am      1 RES1   0.0000
   255 C87      -2.7257    3.6300    2.2671   C.3       1 RES1   0.0000
   256 C88      -4.0359    4.4380    2.1911   C.3       1 RES1   0.0000
   257 C89      -4.4528    5.1467    0.8865   C.3       1 RES1   0.0000
   258 C90      -5.9371    4.9187    0.5769   C.3       1 RES1   0.0000
   259 C91      -6.4521    5.6340   -0.6782   C.3       1 RES1   0.0000
   260 C92      -6.1676    4.9075   -1.9986   C.3       1 RES1   0.0000
   261 C93      -4.8294    5.2215   -2.6709   C.3       1 RES1   0.0000
   262 C94      -4.7092    6.6777   -3.1005   C.3       1 RES1   0.0000
   263 C95      -0.6760    3.3068    1.0798   C.2       1 RES1   0.0000
   264 O7       -0.8951    2.0753    1.1049   O.2       1 RES1   0.0000
   265 C96       0.5833    3.7884    0.3188   C.3       1 RES1   0.0000
   266 C97       1.6164    4.3964    1.2671   C.3       1 RES1   0.0000
   267 O8        1.0863    2.6061   -0.3337   O.3       1 RES1   0.0000
   268 C98       2.1395    2.8019   -1.2890   C.3       1 RES1   0.0000
   269 C99       3.5371    2.6758   -0.6312   C.3       1 RES1   0.0000
   270 C100      4.3113    1.4173   -1.0071   C.3       1 RES1   0.0000
   271 C101      1.9672    1.7019   -2.3567   C.2       1 RES1   0.0000
   272 O9        1.3427    0.6694   -2.0419   O.2       1 RES1   0.0000
   273 N6        2.5152    1.8527   -3.5620   N.am      1 RES1   0.0000
   274 C102      2.1916    0.8616   -4.5918   C.3       1 RES1   0.0000
   275 C103      2.6070   -0.5703   -4.2338   C.3       1 RES1   0.0000
   276 C104      3.2793   -1.3317   -5.3758   C.3       1 RES1   0.0000
   277 C105      2.4957   -1.3253   -6.6999   C.3       1 RES1   0.0000
   278 C106      3.1556   -0.4420   -7.7629   C.3       1 RES1   0.0000
   279 C107      2.6370   -0.6921   -9.1789   C.3       1 RES1   0.0000
   280 C108      1.1552   -0.3842   -9.3952   C.3       1 RES1   0.0000
   281 C109      0.8066    1.0877   -9.1932   C.3       1 RES1   0.0000
   282 C110      3.3760    2.9629   -3.9728   C.3       1 RES1   0.0000
   283 C111      4.7075    2.5087   -4.6021   C.3       1 RES1   0.0000
   284 C112      5.8141    3.5720   -4.4794   C.3       1 RES1   0.0000
   285 C113      7.2143    2.9478   -4.3859   C.3       1 RES1   0.0000
   286 C114      7.5765    2.6038   -2.9409   C.3       1 RES1   0.0000
   287 C115      8.8691    1.8011   -2.7885   C.3       1 RES1   0.0000
   288 C116      8.7407    0.3217   -3.1510   C.3       1 RES1   0.0000
   289 C117      7.8051   -0.4500   -2.2249   C.3       1 RES1   0.0000
   290 H157      2.8801    6.1451    7.7028   H         1 RES1   0.0000
   291 H158      1.8304    5.2182    8.7743   H         1 RES1   0.0000
   292 H159      1.1341    6.3442    7.6028   H         1 RES1   0.0000
   293 H160      2.7517    3.8458    6.8912   H         1 RES1   0.0000
   294 H161      1.9427    4.9012    5.7327   H         1 RES1   0.0000
   295 H162      0.6104    3.2333    7.9072   H         1 RES1   0.0000
   296 H163      0.7213    2.7489    6.2169   H         1 RES1   0.0000
   297 H164     -0.6955    5.3181    7.0020   H         1 RES1   0.0000
   298 H165     -1.4816    3.7556    7.1683   H         1 RES1   0.0000
   299 H166     -2.2118    4.5790    5.1456   H         1 RES1   0.0000
   300 H167     -1.0298    3.3217    4.7314   H         1 RES1   0.0000
   301 H168      0.4616    4.8629    3.8097   H         1 RES1   0.0000
   302 H169     -0.0032    6.1100    4.9618   H         1 RES1   0.0000
   303 H170     -0.8554    7.1239    3.1642   H         1 RES1   0.0000
   304 H171     -2.2607    6.1977    3.6373   H         1 RES1   0.0000
   305 H172     -0.4466    5.9143    1.2243   H         1 RES1   0.0000
   306 H173     -2.1816    6.1017    1.3312   H         1 RES1   0.0000
   307 H174     -2.5040    3.4782    3.3233   H         1 RES1   0.0000
   308 H175     -2.8572    2.6403    1.8356   H         1 RES1   0.0000
   309 H176     -4.8114    3.7116    2.4481   H         1 RES1   0.0000
   310 H177     -4.0467    5.1716    2.9958   H         1 RES1   0.0000
   311 H178     -3.8413    4.8268    0.0479   H         1 RES1   0.0000
   312 H179     -4.3177    6.2226    0.9983   H         1 RES1   0.0000
   313 H180     -6.5100    5.2739    1.4352   H         1 RES1   0.0000
   314 H181     -6.1467    3.8518    0.4775   H         1 RES1   0.0000
   315 H182     -6.0622    6.6511   -0.7135   H         1 RES1   0.0000
   316 H183     -7.5362    5.7098   -0.5783   H         1 RES1   0.0000
   317 H184     -6.9555    5.1602   -2.7096   H         1 RES1   0.0000
   318 H185     -6.2440    3.8297   -1.8231   H         1 RES1   0.0000
   319 H186     -4.7521    4.5868   -3.5582   H         1 RES1   0.0000
   320 H187     -3.9940    4.9693   -2.0152   H         1 RES1   0.0000
   321 H188     -5.6055    6.9902   -3.6271   H         1 RES1   0.0000
   322 H189     -3.8615    6.8089   -3.7675   H         1 RES1   0.0000
   323 H190     -4.5664    7.3327   -2.2463   H         1 RES1   0.0000
   324 H191      0.2829    4.5185   -0.4489   H         1 RES1   0.0000
   325 H192      1.9056    3.6628    2.0125   H         1 RES1   0.0000
   326 H193      1.2182    5.2584    1.7827   H         1 RES1   0.0000
   327 H194      2.5034    4.7273    0.7372   H         1 RES1   0.0000
   328 H195      2.0000    3.7892   -1.7448   H         1 RES1   0.0000
   329 H196      3.3898    2.6493    0.4480   H         1 RES1   0.0000
   330 H197      4.1348    3.5519   -0.8823   H         1 RES1   0.0000
   331 H198      3.6710    0.5437   -0.9045   H         1 RES1   0.0000
   332 H199      5.1771    1.3027   -0.3574   H         1 RES1   0.0000
   333 H200      4.6759    1.4570   -2.0285   H         1 RES1   0.0000
   334 H201      2.6884    1.1775   -5.5028   H         1 RES1   0.0000
   335 H202      1.1134    0.8989   -4.7614   H         1 RES1   0.0000
   336 H203      1.7219   -1.1162   -3.9084   H         1 RES1   0.0000
   337 H204      3.2960   -0.5266   -3.3893   H         1 RES1   0.0000
   338 H205      3.4216   -2.3607   -5.0354   H         1 RES1   0.0000
   339 H206      4.2688   -0.9065   -5.5437   H         1 RES1   0.0000
   340 H207      1.4670   -1.0039   -6.5225   H         1 RES1   0.0000
   341 H208      2.4522   -2.3416   -7.0929   H         1 RES1   0.0000
   342 H209      4.2278   -0.6517   -7.7652   H         1 RES1   0.0000
   343 H210      3.0256    0.6126   -7.5135   H         1 RES1   0.0000
   344 H211      2.8174   -1.7377   -9.4358   H         1 RES1   0.0000
   345 H212      3.2250   -0.0789   -9.8646   H         1 RES1   0.0000
   346 H213      0.5448   -1.0065   -8.7360   H         1 RES1   0.0000
   347 H214      0.9090   -0.6602  -10.4215   H         1 RES1   0.0000
   348 H215      0.8877    1.3777   -8.1459   H         1 RES1   0.0000
   349 H216     -0.2122    1.2836   -9.5216   H         1 RES1   0.0000
   350 H217      1.4755    1.7156   -9.7776   H         1 RES1   0.0000
   351 H218      3.6096    3.5631   -3.0987   H         1 RES1   0.0000
   352 H219      2.8177    3.5849   -4.6781   H         1 RES1   0.0000
   353 H220      4.5728    2.2822   -5.6608   H         1 RES1   0.0000
   354 H221      5.0403    1.5899   -4.1129   H         1 RES1   0.0000
   355 H222      5.6555    4.1759   -3.5845   H         1 RES1   0.0000
   356 H223      5.7693    4.2487   -5.3333   H         1 RES1   0.0000
   357 H224      7.9513    3.6563   -4.7642   H         1 RES1   0.0000
   358 H225      7.2573    2.0601   -5.0168   H         1 RES1   0.0000
   359 H226      6.7559    2.0550   -2.4803   H         1 RES1   0.0000
   360 H227      7.6853    3.5421   -2.3940   H         1 RES1   0.0000
   361 H228      9.2069    1.8778   -1.7527   H         1 RES1   0.0000
   362 H229      9.6425    2.2536   -3.4099   H         1 RES1   0.0000
   363 H230      9.7311   -0.1283   -3.0857   H         1 RES1   0.0000
   364 H231      8.4056    0.2225   -4.1847   H         1 RES1   0.0000
   365 H232      8.0822   -0.2906   -1.1849   H         1 RES1   0.0000
   366 H233      7.8609   -1.5156   -2.4317   H         1 RES1   0.0000
   367 H234      6.7694   -0.1435   -2.3558   H         1 RES1   0.0000
@<TRIPOS>BOND
     1     1    20    1
     2     1    23    1
     3     1    28    1
     4     1   142    1
     5     1   145    1
     6     1   150    1
     7     1   264    1
     8     1   267    1
     9     1   272    1
    10     2     3    1
    11     2    46    1
    12     2    47    1
    13     2    48    1
    14     3     4    1
    15     3    49    1
    16     3    50    1
    17     4     5    1
    18     4    51    1
    19     4    52    1
    20     5     6    1
    21     5    53    1
    22     5    54    1
    23     6     7    1
    24     6    55    1
    25     6    56    1
    26     7     8    1
    27     7    57    1
    28     7    58    1
    29     8     9    1
    30     8    59    1
    31     8    60    1
    32     9    10    1
    33     9    61    1
    34     9    62    1
    35    10    11    1
    36    10    19    1
    37    11    12    1
    38    11    63    1
    39    11    64    1
    40    12    13    1
    41    12    65    1
    42    12    66    1
    43    13    14    1
    44    13    67    1
    45    13    68    1
    46    14    15    1
    47    14    69    1
    48    14    70    1
    49    15    16    1
    50    15    71    1
    51    15    72    1
    52    16    17    1
    53    16    73    1
    54    16    74    1
    55    17    18    1
    56    17    75    1
    57    17    76    1
    58    18    77    1
    59    18    78    1
    60    18    79    1
    61    19    20    2
    62    19    21    1
    63    21    22    1
    64    21    23    1
    65    21    80    1
    66    22    81    1
    67    22    82    1
    68    22    83    1
    69    23    24    1
    70    24    25    1
    71    24    27    1
    72    24    84    1
    73    25    26    1
    74    25    85    1
    75    25    86    1
    76    26    87    1
    77    26    88    1
    78    26    89    1
    79    27    28    2
    80    27    29    1
    81    29    30    1
    82    29    38    1
    83    30    31    1
    84    30    90    1
    85    30    91    1
    86    31    32    1
    87    31    92    1
    88    31    93    1
    89    32    33    1
    90    32    94    1
    91    32    95    1
    92    33    34    1
    93    33    96    1
    94    33    97    1
    95    34    35    1
    96    34    98    1
    97    34    99    1
    98    35    36    1
    99    35   100    1
   100    35   101    1
   101    36    37    1
   102    36   102    1
   103    36   103    1
   104    37   104    1
   105    37   105    1
   106    37   106    1
   107    38    39    1
   108    38   107    1
   109    38   108    1
   110    39    40    1
   111    39   109    1
   112    39   110    1
   113    40    41    1
   114    40   111    1
   115    40   112    1
   116    41    42    1
   117    41   113    1
   118    41   114    1
   119    42    43    1
   120    42   115    1
   121    42   116    1
   122    43    44    1
   123    43   117    1
   124    43   118    1
   125    44    45    1
   126    44   119    1
   127    44   120    1
   128    45   121    1
   129    45   122    1
   130    45   123    1
   131   124   125    1
   132   124   168    1
   133   124   169    1
   134   124   170    1
   135   125   126    1
   136   125   171    1
   137   125   172    1
   138   126   127    1
   139   126   173    1
   140   126   174    1
   141   127   128    1
   142   127   175    1
   143   127   176    1
   144   128   129    1
   145   128   177    1
   146   128   178    1
   147   129   130    1
   148   129   179    1
   149   129   180    1
   150   130   131    1
   151   130   181    1
   152   130   182    1
   153   131   132    1
   154   131   183    1
   155   131   184    1
   156   132   133    1
   157   132   141    1
   158   133   134    1
   159   133   185    1
   160   133   186    1
   161   134   135    1
   162   134   187    1
   163   134   188    1
   164   135   136    1
   165   135   189    1
   166   135   190    1
   167   136   137    1
   168   136   191    1
   169   136   192    1
   170   137   138    1
   171   137   193    1
   172   137   194    1
   173   138   139    1
   174   138   195    1
   175   138   196    1
   176   139   140    1
   177   139   197    1
   178   139   198    1
   179   140   199    1
   180   140   200    1
   181   140   201    1
   182   141   142    2
   183   141   143    1
   184   143   144    1
   185   143   145    1
   186   143   202    1
   187   144   203    1
   188   144   204    1
   189   144   205    1
   190   145   146    1
   191   146   147    1
   192   146   149    1
   193   146   206    1
   194   147   148    1
   195   147   207    1
   196   147   208    1
   197   148   209    1
   198   148   210    1
   199   148   211    1
   200   149   150    2
   201   149   151    1
   202   151   152    1
   203   151   160    1
   204   152   153    1
   205   152   212    1
   206   152   213    1
   207   153   154    1
   208   153   214    1
   209   153   215    1
   210   154   155    1
   211   154   216    1
   212   154   217    1
   213   155   156    1
   214   155   218    1
   215   155   219    1
   216   156   157    1
   217   156   220    1
   218   156   221    1
   219   157   158    1
   220   157   222    1
   221   157   223    1
   222   158   159    1
   223   158   224    1
   224   158   225    1
   225   159   226    1
   226   159   227    1
   227   159   228    1
   228   160   161    1
   229   160   229    1
   230   160   230    1
   231   161   162    1
   232   161   231    1
   233   161   232    1
   234   162   163    1
   235   162   233    1
   236   162   234    1
   237   163   164    1
   238   163   235    1
   239   163   236    1
   240   164   165    1
   241   164   237    1
   242   164   238    1
   243   165   166    1
   244   165   239    1
   245   165   240    1
   246   166   167    1
   247   166   241    1
   248   166   242    1
   249   167   243    1
   250   167   244    1
   251   167   245    1
   252   246   247    1
   253   246   290    1
   254   246   291    1
   255   246   292    1
   256   247   248    1
   257   247   293    1
   258   247   294    1
   259   248   249    1
   260   248   295    1
   261   248   296    1
   262   249   250    1
   263   249   297    1
   264   249   298    1
   265   250   251    1
   266   250   299    1
   267   250   300    1
   268   251   252    1
   269   251   301    1
   270   251   302    1
   271   252   253    1
   272   252   303    1
   273   252   304    1
   274   253   254    1
   275   253   305    1
   276   253   306    1
   277   254   255    1
   278   254   263    1
   279   255   256    1
   280   255   307    1
   281   255   308    1
   282   256   257    1
   283   256   309    1
   284   256   310    1
   285   257   258    1
   286   257   311    1
   287   257   312    1
   288   258   259    1
   289   258   313    1
   290   258   314    1
   291   259   260    1
   292   259   315    1
   293   259   316    1
   294   260   261    1
   295   260   317    1
   296   260   318    1
   297   261   262    1
   298   261   319    1
   299   261   320    1
   300   262   321    1
   301   262   322    1
   302   262   323    1
   303   263   264    2
   304   263   265    1
   305   265   266    1
   306   265   267    1
   307   265   324    1
   308   266   325    1
   309   266   326    1
   310   266   327    1
   311   267   268    1
   312   268   269    1
   313   268   271    1
   314   268   328    1
   315   269   270    1
   316   269   329    1
   317   269   330    1
   318   270   331    1
   319   270   332    1
   320   270   333    1
   321   271   272    2
   322   271   273    1
   323   273   274    1
   324   273   282    1
   325   274   275    1
   326   274   334    1
   327   274   335    1
   328   275   276    1
   329   275   336    1
   330   275   337    1
   331   276   277    1
   332   276   338    1
   333   276   339    1
   334   277   278    1
   335   277   340    1
   336   277   341    1
   337   278   279    1
   338   278   342    1
   339   278   343    1
   340   279   280    1
   341   279   344    1
   342   279   345    1
   343   280   281    1
   344   280   346    1
   345   280   347    1
   346   281   348    1
   347   281   349    1
   348   281   350    1
   349   282   283    1
   350   282   351    1
   351   282   352    1
   352   283   284    1
   353   283   353    1
   354   283   354    1
   355   284   285    1
   356   284   355    1
   357   284   356    1
   358   285   286    1
   359   285   357    1
   360   285   358    1
   361   286   287    1
   362   286   359    1
   363   286   360    1
   364   287   288    1
   365   287   361    1
   366   287   362    1
   367   288   289    1
   368   288   363    1
   369   288   364    1
   370   289   365    1
   371   289   366    1
   372   289   367    1
@<TRIPOS>SUBSTRUCTURE
     1 RES1      367 GROUP             0 ****  ****    0  
