@<TRIPOS>MOLECULE
am_c3_9H2O_c0_0_nunpairedes_0_charge_3 Charge: 3 Unpaired_Electrons: 6 XTB_Unpaired_Electrons: 0 XTB_Charge: 3
   142   147     1     0     0
SMALL
NoCharges
****
Generated from Architector

@<TRIPOS>ATOM
     1 Eu1      -0.2351    0.0424    0.0010   Eu        1 RES1   0.0000
     2 C1        3.5593    5.6059    2.8321   C.3       1 RES1   0.0000
     3 C2        4.9870    5.7153    2.3035   C.3       1 RES1   0.0000
     4 C3        5.1348    6.6855    1.1209   C.3       1 RES1   0.0000
     5 C4        5.2016    6.0128   -0.2521   C.3       1 RES1   0.0000
     6 C5        3.9011    5.3310   -0.6698   C.3       1 RES1   0.0000
     7 C6        4.0204    4.7016   -2.0592   C.3       1 RES1   0.0000
     8 C7        2.7422    3.9567   -2.4329   C.3       1 RES1   0.0000
     9 C8        2.9342    3.0159   -3.6302   C.3       1 RES1   0.0000
    10 N1        1.7139    2.2356   -3.7960   N.am      1 RES1   0.0000
    11 C9        0.6643    2.7526   -4.6626   C.3       1 RES1   0.0000
    12 C10       1.1565    3.2394   -6.0214   C.3       1 RES1   0.0000
    13 C11       2.0081    2.2223   -6.7818   C.3       1 RES1   0.0000
    14 C12       2.5344    2.8129   -8.0958   C.3       1 RES1   0.0000
    15 C13       3.8262    2.1449   -8.5684   C.3       1 RES1   0.0000
    16 C14       5.0381    2.5716   -7.7337   C.3       1 RES1   0.0000
    17 C15       6.3429    1.9384   -8.2107   C.3       1 RES1   0.0000
    18 C16       6.4141    0.4410   -7.9530   C.3       1 RES1   0.0000
    19 C17       1.3393    1.4304   -2.7947   C.2       1 RES1   0.0000
    20 S1       -0.2926    1.4786   -2.2977   S.3       1 RES1   0.0000
    21 C18       2.2750    0.4637   -2.2057   C.ar      1 RES1   0.0000
    22 C19       3.3383   -0.0501   -2.9865   C.ar      1 RES1   0.0000
    23 C20       4.1607   -1.0111   -2.4718   C.ar      1 RES1   0.0000
    24 C21       3.9362   -1.5058   -1.1657   C.ar      1 RES1   0.0000
    25 C22       4.7362   -2.5269   -0.5939   C.ar      1 RES1   0.0000
    26 C23       4.4676   -3.0125    0.6495   C.ar      1 RES1   0.0000
    27 C24       3.3643   -2.5207    1.3941   C.ar      1 RES1   0.0000
    28 C25       3.0324   -3.0271    2.6657   C.ar      1 RES1   0.0000
    29 C26       1.9226   -2.5597    3.3234   C.ar      1 RES1   0.0000
    30 C27       1.1179   -1.5763    2.7136   C.ar      1 RES1   0.0000
    31 C28      -0.2006   -1.2431    3.2979   C.2       1 RES1   0.0000
    32 S2       -1.4836   -1.1837    2.1849   S.3       1 RES1   0.0000
    33 N2       -0.4580   -1.1845    4.5916   N.am      1 RES1   0.0000
    34 C29       0.5424   -0.9567    5.6186   C.3       1 RES1   0.0000
    35 C30       0.2707    0.3058    6.4549   C.3       1 RES1   0.0000
    36 C31       1.1787    0.3380    7.6908   C.3       1 RES1   0.0000
    37 C32       2.6257    0.7554    7.3955   C.3       1 RES1   0.0000
    38 C33       2.9413    2.2199    7.7152   C.3       1 RES1   0.0000
    39 C34       2.2074    3.2626    6.8624   C.3       1 RES1   0.0000
    40 C35       0.8939    3.7624    7.4658   C.3       1 RES1   0.0000
    41 C36       0.2952    4.9053    6.6540   C.3       1 RES1   0.0000
    42 C37      -1.8344   -1.3410    5.0365   C.3       1 RES1   0.0000
    43 C38      -2.3014   -2.8022    4.9777   C.3       1 RES1   0.0000
    44 C39      -1.5148   -3.7429    5.8929   C.3       1 RES1   0.0000
    45 C40      -1.6434   -3.4067    7.3798   C.3       1 RES1   0.0000
    46 C41      -0.7495   -4.2966    8.2442   C.3       1 RES1   0.0000
    47 C42      -0.8072   -3.8908    9.7168   C.3       1 RES1   0.0000
    48 C43       0.1297   -4.7180   10.5902   C.3       1 RES1   0.0000
    49 C44       0.0992   -4.2834   12.0455   C.3       1 RES1   0.0000
    50 N3        1.4179   -1.0779    1.5082   N.ar      1 RES1   0.0000
    51 C45       2.5189   -1.5182    0.8529   C.ar      1 RES1   0.0000
    52 C46       2.8229   -0.9819   -0.4613   C.ar      1 RES1   0.0000
    53 N4        2.0232   -0.0294   -0.9829   N.ar      1 RES1   0.0000
    54 H1        3.5232    4.9387    3.6911   H         1 RES1   0.0000
    55 H2        2.8712    5.2411    2.0704   H         1 RES1   0.0000
    56 H3        3.2088    6.5808    3.1581   H         1 RES1   0.0000
    57 H4        5.3596    4.7253    2.0238   H         1 RES1   0.0000
    58 H5        5.6159    6.0685    3.1212   H         1 RES1   0.0000
    59 H6        6.0662    7.2409    1.2382   H         1 RES1   0.0000
    60 H7        4.3204    7.4137    1.1406   H         1 RES1   0.0000
    61 H8        6.0125    5.2787   -0.2536   H         1 RES1   0.0000
    62 H9        5.4451    6.7708   -0.9975   H         1 RES1   0.0000
    63 H10       3.0912    6.0634   -0.6657   H         1 RES1   0.0000
    64 H11       3.6583    4.5466    0.0533   H         1 RES1   0.0000
    65 H12       4.8644    4.0071   -2.0618   H         1 RES1   0.0000
    66 H13       4.2290    5.4748   -2.7982   H         1 RES1   0.0000
    67 H14       1.9416    4.6679   -2.6472   H         1 RES1   0.0000
    68 H15       2.4271    3.3386   -1.5842   H         1 RES1   0.0000
    69 H16       3.7844    2.3637   -3.4339   H         1 RES1   0.0000
    70 H17       3.1422    3.5869   -4.5298   H         1 RES1   0.0000
    71 H18       0.1321    3.5666   -4.1592   H         1 RES1   0.0000
    72 H19      -0.0510    1.9363   -4.8076   H         1 RES1   0.0000
    73 H20       1.7105    4.1714   -5.9145   H         1 RES1   0.0000
    74 H21       0.2742    3.4775   -6.6163   H         1 RES1   0.0000
    75 H22       1.4172    1.3298   -6.9997   H         1 RES1   0.0000
    76 H23       2.8553    1.9154   -6.1658   H         1 RES1   0.0000
    77 H24       2.7283    3.8807   -7.9730   H         1 RES1   0.0000
    78 H25       1.7626    2.7104   -8.8591   H         1 RES1   0.0000
    79 H26       4.0099    2.4324   -9.6035   H         1 RES1   0.0000
    80 H27       3.7130    1.0604   -8.5403   H         1 RES1   0.0000
    81 H28       4.8892    2.3108   -6.6805   H         1 RES1   0.0000
    82 H29       5.1297    3.6582   -7.8004   H         1 RES1   0.0000
    83 H30       7.1740    2.4236   -7.6898   H         1 RES1   0.0000
    84 H31       6.4760    2.1344   -9.2758   H         1 RES1   0.0000
    85 H32       6.2224    0.2191   -6.9036   H         1 RES1   0.0000
    86 H33       7.3978    0.0609   -8.2122   H         1 RES1   0.0000
    87 H34       5.6840   -0.0929   -8.5556   H         1 RES1   0.0000
    88 H35       3.4684    0.2788   -4.0059   H         1 RES1   0.0000
    89 H36       4.9665   -1.4245   -3.0626   H         1 RES1   0.0000
    90 H37       5.5522   -2.9232   -1.1746   H         1 RES1   0.0000
    91 H38       5.0758   -3.7904    1.0852   H         1 RES1   0.0000
    92 H39       3.6509   -3.7965    3.1002   H         1 RES1   0.0000
    93 H40       1.6567   -2.9720    4.2809   H         1 RES1   0.0000
    94 H41       1.5307   -0.8716    5.1638   H         1 RES1   0.0000
    95 H42       0.5383   -1.8145    6.2930   H         1 RES1   0.0000
    96 H43      -0.7618    0.3145    6.8029   H         1 RES1   0.0000
    97 H44       0.4276    1.1914    5.8391   H         1 RES1   0.0000
    98 H45       1.1567   -0.6557    8.1446   H         1 RES1   0.0000
    99 H46       0.7664    1.0281    8.4283   H         1 RES1   0.0000
   100 H47       2.8664    0.5510    6.3476   H         1 RES1   0.0000
   101 H48       3.2977    0.1465    8.0014   H         1 RES1   0.0000
   102 H49       4.0160    2.3546    7.5795   H         1 RES1   0.0000
   103 H50       2.7306    2.4138    8.7674   H         1 RES1   0.0000
   104 H51       2.0297    2.8664    5.8573   H         1 RES1   0.0000
   105 H52       2.8575    4.1317    6.7474   H         1 RES1   0.0000
   106 H53       1.0906    4.1145    8.4782   H         1 RES1   0.0000
   107 H54       0.1607    2.9582    7.5336   H         1 RES1   0.0000
   108 H55       0.9829    5.7449    6.6079   H         1 RES1   0.0000
   109 H56      -0.6294    5.2504    7.1091   H         1 RES1   0.0000
   110 H57       0.0798    4.5878    5.6338   H         1 RES1   0.0000
   111 H58      -2.4830   -0.7269    4.4071   H         1 RES1   0.0000
   112 H59      -1.9220   -0.9961    6.0598   H         1 RES1   0.0000
   113 H60      -2.2537   -3.1658    3.9501   H         1 RES1   0.0000
   114 H61      -3.3490   -2.8086    5.2795   H         1 RES1   0.0000
   115 H62      -0.4587   -3.7574    5.6051   H         1 RES1   0.0000
   116 H63      -1.8943   -4.7539    5.7369   H         1 RES1   0.0000
   117 H64      -2.6824   -3.5317    7.6871   H         1 RES1   0.0000
   118 H65      -1.3720   -2.3659    7.5721   H         1 RES1   0.0000
   119 H66       0.2849   -4.2298    7.8897   H         1 RES1   0.0000
   120 H67      -1.0598   -5.3375    8.1434   H         1 RES1   0.0000
   121 H68      -1.8318   -4.0036   10.0809   H         1 RES1   0.0000
   122 H69      -0.5466   -2.8311    9.8105   H         1 RES1   0.0000
   123 H70       1.1541   -4.6379   10.2068   H         1 RES1   0.0000
   124 H71      -0.1465   -5.7760   10.5194   H         1 RES1   0.0000
   125 H72       0.3825   -3.2349   12.1471   H         1 RES1   0.0000
   126 H73       0.7867   -4.8852   12.6336   H         1 RES1   0.0000
   127 H74      -0.9025   -4.3948   12.4614   H         1 RES1   0.0000
   128 O1       -2.7026    0.4543   -0.3812   O.3       1 RES1   0.0000
   129 H75      -3.4249    0.0157    0.0993   H         1 RES1   0.0000
   130 H76      -3.1319    1.1136   -0.9516   H         1 RES1   0.0000
   131 O2        1.4701    2.2341    0.5803   O.3       1 RES1   0.0000
   132 H77       1.2983    3.1745    0.4236   H         1 RES1   0.0000
   133 H78       2.4128    2.1871    0.7847   H         1 RES1   0.0000
   134 O3       -1.0081    1.9975    1.6458   O.3       1 RES1   0.0000
   135 H79      -1.7010    2.6676    1.5451   H         1 RES1   0.0000
   136 H80      -0.5699    2.2055    2.4836   H         1 RES1   0.0000
   137 O4       -1.3264   -2.4067   -0.4933   O.3       1 RES1   0.0000
   138 H81      -2.0951   -2.5738   -1.0588   H         1 RES1   0.0000
   139 H82      -1.0561   -3.2824   -0.1792   H         1 RES1   0.0000
   140 O5        0.0404   -1.4417   -2.5157   O.3       1 RES1   0.0000
   141 H83       0.3630   -2.3204   -2.7561   H         1 RES1   0.0000
   142 H84      -0.5593   -1.1926   -3.2350   H         1 RES1   0.0000
@<TRIPOS>BOND
     1     1    20    1
     2     1    32    1
     3     1    50    1
     4     1    53    1
     5     1   128    1
     6     1   131    1
     7     1   134    1
     8     1   137    1
     9     1   140    1
    10     2     3    1
    11     2    54    1
    12     2    55    1
    13     2    56    1
    14     3     4    1
    15     3    57    1
    16     3    58    1
    17     4     5    1
    18     4    59    1
    19     4    60    1
    20     5     6    1
    21     5    61    1
    22     5    62    1
    23     6     7    1
    24     6    63    1
    25     6    64    1
    26     7     8    1
    27     7    65    1
    28     7    66    1
    29     8     9    1
    30     8    67    1
    31     8    68    1
    32     9    10    1
    33     9    69    1
    34     9    70    1
    35    10    11    1
    36    10    19    1
    37    11    12    1
    38    11    71    1
    39    11    72    1
    40    12    13    1
    41    12    73    1
    42    12    74    1
    43    13    14    1
    44    13    75    1
    45    13    76    1
    46    14    15    1
    47    14    77    1
    48    14    78    1
    49    15    16    1
    50    15    79    1
    51    15    80    1
    52    16    17    1
    53    16    81    1
    54    16    82    1
    55    17    18    1
    56    17    83    1
    57    17    84    1
    58    18    85    1
    59    18    86    1
    60    18    87    1
    61    19    20    2
    62    19    21    1
    63    21    22    1
    64    21    53    2
    65    22    23    2
    66    22    88    1
    67    23    24    1
    68    23    89    1
    69    24    25    1
    70    24    52    2
    71    25    26    2
    72    25    90    1
    73    26    27    1
    74    26    91    1
    75    27    28    1
    76    27    51    2
    77    28    29    2
    78    28    92    1
    79    29    30    1
    80    29    93    1
    81    30    31    1
    82    30    50    2
    83    31    32    2
    84    31    33    1
    85    33    34    1
    86    33    42    1
    87    34    35    1
    88    34    94    1
    89    34    95    1
    90    35    36    1
    91    35    96    1
    92    35    97    1
    93    36    37    1
    94    36    98    1
    95    36    99    1
    96    37    38    1
    97    37   100    1
    98    37   101    1
    99    38    39    1
   100    38   102    1
   101    38   103    1
   102    39    40    1
   103    39   104    1
   104    39   105    1
   105    40    41    1
   106    40   106    1
   107    40   107    1
   108    41   108    1
   109    41   109    1
   110    41   110    1
   111    42    43    1
   112    42   111    1
   113    42   112    1
   114    43    44    1
   115    43   113    1
   116    43   114    1
   117    44    45    1
   118    44   115    1
   119    44   116    1
   120    45    46    1
   121    45   117    1
   122    45   118    1
   123    46    47    1
   124    46   119    1
   125    46   120    1
   126    47    48    1
   127    47   121    1
   128    47   122    1
   129    48    49    1
   130    48   123    1
   131    48   124    1
   132    49   125    1
   133    49   126    1
   134    49   127    1
   135    50    51    1
   136    51    52    1
   137    52    53    1
   138   128   129    1
   139   128   130    1
   140   131   132    1
   141   131   133    1
   142   134   135    1
   143   134   136    1
   144   137   138    1
   145   137   139    1
   146   140   141    1
   147   140   142    1
@<TRIPOS>SUBSTRUCTURE
     1 RES1      142 GROUP             0 ****  ****    0  
