@<TRIPOS>MOLECULE
ICIGOT_geomtry_0_nunpairedes_0_charge_3 Charge: 3 Unpaired_Electrons: 3 XTB_Unpaired_Electrons: 0 XTB_Charge: 3
   123   134     1     0     0
SMALL
NoCharges
****
Generated from Architector

@<TRIPOS>ATOM
     1 Er1      -0.0869    0.0328   -0.0040   Er        1 RES1   0.0000
     2 C1       -3.1573    1.2137   -2.9745   C.3       1 RES1   0.0000
     3 C2       -3.9347    0.3277   -3.9384   C.3       1 RES1   0.0000
     4 C3       -3.1074   -0.8454   -4.4646   C.3       1 RES1   0.0000
     5 C4       -2.8138   -1.9028   -3.3993   C.3       1 RES1   0.0000
     6 C5       -2.0072   -3.0977   -3.9203   C.3       1 RES1   0.0000
     7 C6       -0.5522   -2.7765   -4.3064   C.3       1 RES1   0.0000
     8 N1        0.4496   -3.1017   -3.2850   N.ar      1 RES1   0.0000
     9 C7        1.3208   -4.1653   -3.4677   C.ar      1 RES1   0.0000
    10 C8        1.1711   -5.0132   -4.6764   C.ar      1 RES1   0.0000
    11 C9        1.7592   -4.6612   -5.8908   C.ar      1 RES1   0.0000
    12 C10       1.6237   -5.4917   -6.9899   C.ar      1 RES1   0.0000
    13 C11       0.9065   -6.6735   -6.9066   C.ar      1 RES1   0.0000
    14 C12       0.3270   -7.0192   -5.6996   C.ar      1 RES1   0.0000
    15 C13       0.4580   -6.2067   -4.5868   C.ar      1 RES1   0.0000
    16 C14       2.3074   -4.4735   -2.5570   C.ar      1 RES1   0.0000
    17 C15       3.2261   -5.6137   -2.7963   C.ar      1 RES1   0.0000
    18 C16       4.2695   -5.5078   -3.7107   C.ar      1 RES1   0.0000
    19 C17       5.1465   -6.5669   -3.8853   C.ar      1 RES1   0.0000
    20 C18       4.9832   -7.7426   -3.1682   C.ar      1 RES1   0.0000
    21 C19       3.9368   -7.8520   -2.2697   C.ar      1 RES1   0.0000
    22 C20       3.0648   -6.7927   -2.0711   C.ar      1 RES1   0.0000
    23 C21       2.4689   -3.6778   -1.3796   C.ar      1 RES1   0.0000
    24 C22       3.4372   -3.8596   -0.3697   C.ar      1 RES1   0.0000
    25 C23       3.4968   -2.9660    0.7008   C.ar      1 RES1   0.0000
    26 C24       4.4229   -3.0514    1.7962   C.ar      1 RES1   0.0000
    27 C25       4.3939   -2.1851    2.8341   C.ar      1 RES1   0.0000
    28 C26       3.4472   -1.1062    2.8994   C.ar      1 RES1   0.0000
    29 C27       3.3229   -0.2125    3.9640   C.ar      1 RES1   0.0000
    30 C28       2.3204    0.7787    3.9315   C.ar      1 RES1   0.0000
    31 C29       2.0339    1.7332    4.9570   C.ar      1 RES1   0.0000
    32 C30       2.8591    1.7693    6.1847   C.ar      1 RES1   0.0000
    33 C31       2.7261    0.7794    7.1538   C.ar      1 RES1   0.0000
    34 C32       3.5271    0.8078    8.2830   C.ar      1 RES1   0.0000
    35 C33       4.4779    1.8037    8.4444   C.ar      1 RES1   0.0000
    36 C34       4.6044    2.7881    7.4795   C.ar      1 RES1   0.0000
    37 C35       3.7922    2.7872    6.3584   C.ar      1 RES1   0.0000
    38 C36       1.0013    2.6317    4.8002   C.ar      1 RES1   0.0000
    39 C37       0.7146    3.6255    5.8580   C.ar      1 RES1   0.0000
    40 C38       1.0178    4.9733    5.6642   C.ar      1 RES1   0.0000
    41 C39       0.7899    5.8857    6.6788   C.ar      1 RES1   0.0000
    42 C40       0.2462    5.4807    7.8865   C.ar      1 RES1   0.0000
    43 C41      -0.0711    4.1464    8.0694   C.ar      1 RES1   0.0000
    44 C42       0.1659    3.2164    7.0720   C.ar      1 RES1   0.0000
    45 N2        0.1943    2.6231    3.6799   N.ar      1 RES1   0.0000
    46 C43      -0.9646    3.5075    3.5707   C.3       1 RES1   0.0000
    47 C44      -2.2061    2.9879    4.3011   C.3       1 RES1   0.0000
    48 C45      -2.7315    1.6543    3.7712   C.3       1 RES1   0.0000
    49 C46      -4.0566    1.2720    4.4340   C.3       1 RES1   0.0000
    50 C47      -4.6810   -0.0043    3.8699   C.3       1 RES1   0.0000
    51 C48      -3.9044   -1.2670    4.2131   C.3       1 RES1   0.0000
    52 C49       0.4134    1.7712    2.6620   C.ar      1 RES1   0.0000
    53 O1       -0.3355    1.7362    1.6359   O.2       1 RES1   0.0000
    54 C50       1.5101    0.8403    2.7719   C.ar      1 RES1   0.0000
    55 N3        1.6354    0.0045    1.7336   N.ar      1 RES1   0.0000
    56 C51       2.5506   -0.9566    1.8057   C.ar      1 RES1   0.0000
    57 C52       2.5578   -1.9008    0.7216   C.ar      1 RES1   0.0000
    58 N4        1.6206   -1.7271   -0.2089   N.ar      1 RES1   0.0000
    59 C53       1.5804   -2.5861   -1.2369   C.ar      1 RES1   0.0000
    60 C54       0.5556   -2.2878   -2.2136   C.ar      1 RES1   0.0000
    61 O2       -0.1750   -1.2656   -2.0299   O.2       1 RES1   0.0000
    62 H1       -3.7616    2.0647   -2.6733   H         1 RES1   0.0000
    63 H2       -2.2585    1.5914   -3.4551   H         1 RES1   0.0000
    64 H3       -2.8619    0.6513   -2.0879   H         1 RES1   0.0000
    65 H4       -4.2450    0.9327   -4.7890   H         1 RES1   0.0000
    66 H5       -4.8370   -0.0418   -3.4507   H         1 RES1   0.0000
    67 H6       -2.1737   -0.4484   -4.8626   H         1 RES1   0.0000
    68 H7       -3.6460   -1.3135   -5.2878   H         1 RES1   0.0000
    69 H8       -3.7633   -2.2859   -3.0241   H         1 RES1   0.0000
    70 H9       -2.2662   -1.4409   -2.5788   H         1 RES1   0.0000
    71 H10      -2.5036   -3.4855   -4.8099   H         1 RES1   0.0000
    72 H11      -2.0107   -3.9064   -3.1847   H         1 RES1   0.0000
    73 H12      -0.4433   -1.7095   -4.5075   H         1 RES1   0.0000
    74 H13      -0.2868   -3.3460   -5.1956   H         1 RES1   0.0000
    75 H14       2.3277   -3.7451   -5.9790   H         1 RES1   0.0000
    76 H15       2.0721   -5.2069   -7.9247   H         1 RES1   0.0000
    77 H16       0.7871   -7.3093   -7.7735   H         1 RES1   0.0000
    78 H17      -0.2422   -7.9299   -5.6350   H         1 RES1   0.0000
    79 H18       0.0095   -6.4888   -3.6450   H         1 RES1   0.0000
    80 H19       4.4042   -4.5972   -4.2786   H         1 RES1   0.0000
    81 H20       5.9607   -6.4713   -4.5846   H         1 RES1   0.0000
    82 H21       5.6710   -8.5674   -3.3035   H         1 RES1   0.0000
    83 H22       3.8041   -8.7708   -1.7200   H         1 RES1   0.0000
    84 H23       2.2410   -6.8791   -1.3750   H         1 RES1   0.0000
    85 H24       4.1296   -4.6904   -0.4316   H         1 RES1   0.0000
    86 H25       5.1457   -3.8522    1.7769   H         1 RES1   0.0000
    87 H26       5.0921   -2.2865    3.6518   H         1 RES1   0.0000
    88 H27       3.9753   -0.2936    4.8253   H         1 RES1   0.0000
    89 H28       1.9798    0.0037    7.0333   H         1 RES1   0.0000
    90 H29       3.4117    0.0466    9.0361   H         1 RES1   0.0000
    91 H30       5.1201    1.8137    9.3141   H         1 RES1   0.0000
    92 H31       5.3469    3.5596    7.6031   H         1 RES1   0.0000
    93 H32       3.8807    3.5565    5.6032   H         1 RES1   0.0000
    94 H33       1.4619    5.3039    4.7333   H         1 RES1   0.0000
    95 H34       1.0383    6.9203    6.5216   H         1 RES1   0.0000
    96 H35       0.0645    6.1976    8.6737   H         1 RES1   0.0000
    97 H36      -0.5066    3.8328    9.0024   H         1 RES1   0.0000
    98 H37      -0.0760    2.1726    7.2228   H         1 RES1   0.0000
    99 H38      -1.1833    3.5968    2.5039   H         1 RES1   0.0000
   100 H39      -0.6825    4.4823    3.9657   H         1 RES1   0.0000
   101 H40      -2.9707    3.7532    4.1746   H         1 RES1   0.0000
   102 H41      -2.0045    2.9064    5.3683   H         1 RES1   0.0000
   103 H42      -1.9843    0.8802    3.9640   H         1 RES1   0.0000
   104 H43      -2.8743    1.7270    2.6878   H         1 RES1   0.0000
   105 H44      -4.7628    2.0907    4.2966   H         1 RES1   0.0000
   106 H45      -3.9051    1.1532    5.5068   H         1 RES1   0.0000
   107 H46      -4.7900    0.0891    2.7865   H         1 RES1   0.0000
   108 H47      -5.6822   -0.1077    4.2841   H         1 RES1   0.0000
   109 H48      -2.8851   -1.2323    3.8277   H         1 RES1   0.0000
   110 H49      -4.3965   -2.1423    3.8008   H         1 RES1   0.0000
   111 H50      -3.8483   -1.3928    5.2893   H         1 RES1   0.0000
   112 O3       -0.8545   -1.2955    2.0924   O.3       1 RES1   0.0000
   113 H51      -0.9182   -2.2394    2.3004   H         1 RES1   0.0000
   114 H52      -1.5390   -0.8731    2.6449   H         1 RES1   0.0000
   115 O4       -2.4001   -1.0891   -0.0391   O.3       1 RES1   0.0000
   116 H53      -2.4805   -1.9300   -0.5197   H         1 RES1   0.0000
   117 H54      -3.3166   -0.7944    0.0754   H         1 RES1   0.0000
   118 O5        1.3236    1.4531   -1.5618   O.3       1 RES1   0.0000
   119 H55       1.9645    1.0466   -2.1699   H         1 RES1   0.0000
   120 H56       1.0096    2.2479   -2.0256   H         1 RES1   0.0000
   121 O6       -1.5794    1.8434   -0.5914   O.3       1 RES1   0.0000
   122 H57      -2.3972    1.8795   -0.0708   H         1 RES1   0.0000
   123 H58      -1.2671    2.7609   -0.6055   H         1 RES1   0.0000
@<TRIPOS>BOND
     1     1    53    1
     2     1    55    1
     3     1    58    1
     4     1    61    1
     5     1   112    1
     6     1   115    1
     7     1   118    1
     8     1   121    1
     9     2     3    1
    10     2    62    1
    11     2    63    1
    12     2    64    1
    13     3     4    1
    14     3    65    1
    15     3    66    1
    16     4     5    1
    17     4    67    1
    18     4    68    1
    19     5     6    1
    20     5    69    1
    21     5    70    1
    22     6     7    1
    23     6    71    1
    24     6    72    1
    25     7     8    1
    26     7    73    1
    27     7    74    1
    28     8     9    1
    29     8    60    1
    30     9    10    1
    31     9    16    2
    32    10    11    1
    33    10    15    2
    34    11    12    2
    35    11    75    1
    36    12    13    1
    37    12    76    1
    38    13    14    2
    39    13    77    1
    40    14    15    1
    41    14    78    1
    42    15    79    1
    43    16    17    1
    44    16    23    1
    45    17    18    1
    46    17    22    2
    47    18    19    2
    48    18    80    1
    49    19    20    1
    50    19    81    1
    51    20    21    2
    52    20    82    1
    53    21    22    1
    54    21    83    1
    55    22    84    1
    56    23    24    1
    57    23    59    2
    58    24    25    2
    59    24    85    1
    60    25    26    1
    61    25    57    1
    62    26    27    2
    63    26    86    1
    64    27    28    1
    65    27    87    1
    66    28    29    1
    67    28    56    2
    68    29    30    2
    69    29    88    1
    70    30    31    1
    71    30    54    1
    72    31    32    1
    73    31    38    2
    74    32    33    1
    75    32    37    2
    76    33    34    2
    77    33    89    1
    78    34    35    1
    79    34    90    1
    80    35    36    2
    81    35    91    1
    82    36    37    1
    83    36    92    1
    84    37    93    1
    85    38    39    1
    86    38    45    1
    87    39    40    1
    88    39    44    2
    89    40    41    2
    90    40    94    1
    91    41    42    1
    92    41    95    1
    93    42    43    2
    94    42    96    1
    95    43    44    1
    96    43    97    1
    97    44    98    1
    98    45    46    1
    99    45    52    1
   100    46    47    1
   101    46    99    1
   102    46   100    1
   103    47    48    1
   104    47   101    1
   105    47   102    1
   106    48    49    1
   107    48   103    1
   108    48   104    1
   109    49    50    1
   110    49   105    1
   111    49   106    1
   112    50    51    1
   113    50   107    1
   114    50   108    1
   115    51   109    1
   116    51   110    1
   117    51   111    1
   118    52    53    2
   119    52    54    1
   120    54    55    2
   121    55    56    1
   122    56    57    1
   123    57    58    2
   124    58    59    1
   125    59    60    1
   126    60    61    2
   127   112   113    1
   128   112   114    1
   129   115   116    1
   130   115   117    1
   131   118   119    1
   132   118   120    1
   133   121   122    1
   134   121   123    1
@<TRIPOS>SUBSTRUCTURE
     1 RES1      123 GROUP             0 ****  ****    0  
