@<TRIPOS>MOLECULE
am_c3_9H2O_c0_0_nunpairedes_0_charge_3 Charge: 3 Unpaired_Electrons: 1 XTB_Unpaired_Electrons: 0 XTB_Charge: 3
   184   198     1     0     0
SMALL
NoCharges
****
Generated from Architector

@<TRIPOS>ATOM
     1 Ce1       0.0032    0.0415   -0.0419   Ce        1 RES1   0.0000
     2 C1        1.3751   -0.6786   -5.1835   C.3       1 RES1   0.0000
     3 C2        1.4031   -2.1838   -4.9517   C.3       1 RES1   0.0000
     4 C3        0.0086   -2.8141   -4.9642   C.3       1 RES1   0.0000
     5 C4       -0.8224   -2.5765   -3.7476   C.ar      1 RES1   0.0000
     6 N1       -0.2952   -1.9200   -2.7349   N.ar      1 RES1   0.0000
     7 N2       -1.0125   -1.5436   -1.6977   N.ar      1 RES1   0.0000
     8 C5       -2.3291   -1.7512   -1.7535   C.ar      1 RES1   0.0000
     9 C6       -3.1686   -1.0809   -0.7506   C.ar      1 RES1   0.0000
    10 C7       -4.5101   -1.4174   -0.5831   C.ar      1 RES1   0.0000
    11 C8       -5.2302   -0.8013    0.4267   C.ar      1 RES1   0.0000
    12 C9       -4.6029    0.1397    1.2277   C.ar      1 RES1   0.0000
    13 C10      -3.2633    0.4367    0.9711   C.ar      1 RES1   0.0000
    14 C11      -2.5218    1.4219    1.7807   C.ar      1 RES1   0.0000
    15 N3       -1.2330    1.6028    1.4703   N.ar      1 RES1   0.0000
    16 N4       -0.5076    2.3565    2.2621   N.ar      1 RES1   0.0000
    17 C12      -1.0427    3.0105    3.2804   C.ar      1 RES1   0.0000
    18 C13      -0.0925    3.7561    4.1619   C.3       1 RES1   0.0000
    19 C14       0.9278    4.5955    3.3785   C.3       1 RES1   0.0000
    20 C15       0.2520    5.6433    2.5058   C.3       1 RES1   0.0000
    21 C16      -2.4616    2.9628    3.4593   C.ar      1 RES1   0.0000
    22 C17      -3.2608    3.8269    4.3683   C.3       1 RES1   0.0000
    23 C18      -4.2704    4.6521    3.5474   C.3       1 RES1   0.0000
    24 C19      -3.5670    5.6484    2.6378   C.3       1 RES1   0.0000
    25 N5       -3.1485    2.0986    2.7321   N.ar      1 RES1   0.0000
    26 N6       -2.5619   -0.1669    0.0075   N.ar      1 RES1   0.0000
    27 N7       -2.8791   -2.6008   -2.6125   N.ar      1 RES1   0.0000
    28 C20      -2.1498   -3.1025   -3.5860   C.ar      1 RES1   0.0000
    29 C21      -2.7782   -4.1419   -4.4355   C.3       1 RES1   0.0000
    30 C22      -3.8473   -3.5069   -5.3599   C.3       1 RES1   0.0000
    31 C23      -5.1014   -3.0978   -4.6038   C.3       1 RES1   0.0000
    32 H1        2.3928   -0.2959   -5.2439   H         1 RES1   0.0000
    33 H2        0.8580   -0.1662   -4.3717   H         1 RES1   0.0000
    34 H3        0.8770   -0.4480   -6.1234   H         1 RES1   0.0000
    35 H4        1.9088   -2.4079   -4.0127   H         1 RES1   0.0000
    36 H5        1.9813   -2.6338   -5.7592   H         1 RES1   0.0000
    37 H6        0.1111   -3.8933   -5.1083   H         1 RES1   0.0000
    38 H7       -0.5415   -2.4326   -5.8292   H         1 RES1   0.0000
    39 H8       -4.9584   -2.1580   -1.2235   H         1 RES1   0.0000
    40 H9       -6.2640   -1.0740    0.5915   H         1 RES1   0.0000
    41 H10      -5.1170    0.6323    2.0371   H         1 RES1   0.0000
    42 H11       0.4538    3.0210    4.7637   H         1 RES1   0.0000
    43 H12      -0.6307    4.4055    4.8492   H         1 RES1   0.0000
    44 H13       1.5466    3.9433    2.7645   H         1 RES1   0.0000
    45 H14       1.5764    5.0984    4.0958   H         1 RES1   0.0000
    46 H15      -0.3555    5.1748    1.7320   H         1 RES1   0.0000
    47 H16       0.9930    6.2715    2.0172   H         1 RES1   0.0000
    48 H17      -0.3905    6.2820    3.1050   H         1 RES1   0.0000
    49 H18      -2.6454    4.4987    4.9655   H         1 RES1   0.0000
    50 H19      -3.8252    3.1790    5.0444   H         1 RES1   0.0000
    51 H20      -4.9174    5.1864    4.2412   H         1 RES1   0.0000
    52 H21      -4.8874    3.9734    2.9554   H         1 RES1   0.0000
    53 H22      -2.9254    6.3117    3.2121   H         1 RES1   0.0000
    54 H23      -4.2964    6.2498    2.1061   H         1 RES1   0.0000
    55 H24      -2.9554    5.1352    1.8987   H         1 RES1   0.0000
    56 H25      -3.2860   -4.8751   -3.8073   H         1 RES1   0.0000
    57 H26      -2.0323   -4.6508   -5.0411   H         1 RES1   0.0000
    58 H27      -4.1033   -4.2496   -6.1160   H         1 RES1   0.0000
    59 H28      -3.4175   -2.6445   -5.8723   H         1 RES1   0.0000
    60 H29      -5.5063   -3.9407   -4.0517   H         1 RES1   0.0000
    61 H30      -5.8623   -2.7515   -5.2980   H         1 RES1   0.0000
    62 H31      -4.8896   -2.2988   -3.8982   H         1 RES1   0.0000
    63 C24      -2.1416    0.5261   -6.0899   C.3       1 RES1   0.0000
    64 C25      -3.0943    0.2940   -4.9261   C.3       1 RES1   0.0000
    65 C26      -3.4355    1.5917   -4.1767   C.3       1 RES1   0.0000
    66 C27      -2.2705    2.1254   -3.4082   C.ar      1 RES1   0.0000
    67 N8       -1.7069    1.2717   -2.5675   N.ar      1 RES1   0.0000
    68 N9       -0.7048    1.6337   -1.7983   N.ar      1 RES1   0.0000
    69 C28      -0.2723    2.8937   -1.8607   C.ar      1 RES1   0.0000
    70 C29       0.8458    3.2460   -0.9604   C.ar      1 RES1   0.0000
    71 C30       1.4497    4.5022   -0.9935   C.ar      1 RES1   0.0000
    72 C31       2.5254    4.7413   -0.1529   C.ar      1 RES1   0.0000
    73 C32       2.9683    3.7295    0.6855   C.ar      1 RES1   0.0000
    74 C33       2.2911    2.5081    0.6689   C.ar      1 RES1   0.0000
    75 C34       2.6599    1.4045    1.5814   C.ar      1 RES1   0.0000
    76 N10       1.8873    0.3190    1.5657   N.ar      1 RES1   0.0000
    77 N11       2.2168   -0.7092    2.3262   N.ar      1 RES1   0.0000
    78 C35       3.2735   -0.6559    3.1201   C.ar      1 RES1   0.0000
    79 C36       3.6206   -1.8523    3.9420   C.3       1 RES1   0.0000
    80 C37       3.0125   -3.1830    3.4889   C.3       1 RES1   0.0000
    81 C38       3.7408   -3.7756    2.2876   C.3       1 RES1   0.0000
    82 C39       4.0154    0.5653    3.2097   C.ar      1 RES1   0.0000
    83 C40       5.1603    0.8128    4.1228   C.3       1 RES1   0.0000
    84 C41       6.4727    0.8276    3.3087   C.3       1 RES1   0.0000
    85 C42       6.7657   -0.5030    2.6301   C.3       1 RES1   0.0000
    86 N12       3.6986    1.5600    2.3974   N.ar      1 RES1   0.0000
    87 N13       1.2512    2.2795   -0.1343   N.ar      1 RES1   0.0000
    88 N14      -0.7775    3.8087   -2.6800   N.ar      1 RES1   0.0000
    89 C43      -1.7685    3.4596   -3.4871   C.ar      1 RES1   0.0000
    90 C44      -2.2689    4.5209   -4.4024   C.3       1 RES1   0.0000
    91 C45      -1.9601    4.2495   -5.8895   C.3       1 RES1   0.0000
    92 C46      -0.4687    4.0723   -6.1395   C.3       1 RES1   0.0000
    93 H32      -1.9220   -0.4131   -6.5936   H         1 RES1   0.0000
    94 H33      -1.2029    0.9566   -5.7490   H         1 RES1   0.0000
    95 H34      -2.5802    1.1958   -6.8235   H         1 RES1   0.0000
    96 H35      -2.6554   -0.4135   -4.2225   H         1 RES1   0.0000
    97 H36      -4.0193   -0.1366   -5.3078   H         1 RES1   0.0000
    98 H37      -4.2244    1.3651   -3.4535   H         1 RES1   0.0000
    99 H38      -3.8229    2.3301   -4.8734   H         1 RES1   0.0000
   100 H39       1.0802    5.2624   -1.6625   H         1 RES1   0.0000
   101 H40       3.0051    5.7094   -0.1521   H         1 RES1   0.0000
   102 H41       3.7970    3.8677    1.3636   H         1 RES1   0.0000
   103 H42       3.3046   -1.6456    4.9708   H         1 RES1   0.0000
   104 H43       4.7067   -1.9629    3.9609   H         1 RES1   0.0000
   105 H44       1.9556   -3.0653    3.2559   H         1 RES1   0.0000
   106 H45       3.0963   -3.8897    4.3148   H         1 RES1   0.0000
   107 H46       3.6564   -3.1247    1.4185   H         1 RES1   0.0000
   108 H47       3.3164   -4.7448    2.0332   H         1 RES1   0.0000
   109 H48       4.7962   -3.9216    2.5088   H         1 RES1   0.0000
   110 H49       5.2236    0.0718    4.9185   H         1 RES1   0.0000
   111 H50       5.0372    1.8041    4.5626   H         1 RES1   0.0000
   112 H51       7.2877    1.0798    3.9870   H         1 RES1   0.0000
   113 H52       6.3968    1.6135    2.5534   H         1 RES1   0.0000
   114 H53       6.8446   -1.3075    3.3556   H         1 RES1   0.0000
   115 H54       7.7078   -0.4436    2.0957   H         1 RES1   0.0000
   116 H55       5.9908   -0.7602    1.9105   H         1 RES1   0.0000
   117 H56      -1.7770    5.4518   -4.1166   H         1 RES1   0.0000
   118 H57      -3.3493    4.6421   -4.2843   H         1 RES1   0.0000
   119 H58      -2.3190    5.1037   -6.4648   H         1 RES1   0.0000
   120 H59      -2.4993    3.3722   -6.2441   H         1 RES1   0.0000
   121 H60       0.0793    4.9527   -5.8156   H         1 RES1   0.0000
   122 H61      -0.2882    3.9220   -7.2011   H         1 RES1   0.0000
   123 H62      -0.0846    3.2061   -5.6033   H         1 RES1   0.0000
   124 C47       2.9533    2.9010   -5.2563   C.3       1 RES1   0.0000
   125 C48       3.0961    3.1617   -3.7636   C.3       1 RES1   0.0000
   126 C49       4.1189    2.2118   -3.1230   C.3       1 RES1   0.0000
   127 C50       3.5778    0.8725   -2.7480   C.ar      1 RES1   0.0000
   128 N15       2.4104    0.8685   -2.1308   N.ar      1 RES1   0.0000
   129 N16       1.9109   -0.2355   -1.6207   N.ar      1 RES1   0.0000
   130 C51       2.6146   -1.3621   -1.7254   C.ar      1 RES1   0.0000
   131 C52       2.0644   -2.5390   -1.0230   C.ar      1 RES1   0.0000
   132 C53       2.4397   -3.8426   -1.3364   C.ar      1 RES1   0.0000
   133 C54       1.8702   -4.8893   -0.6248   C.ar      1 RES1   0.0000
   134 C55       0.9681   -4.6012    0.3909   C.ar      1 RES1   0.0000
   135 C56       0.6602   -3.2693    0.6412   C.ar      1 RES1   0.0000
   136 C57      -0.2244   -2.8704    1.7504   C.ar      1 RES1   0.0000
   137 N17      -0.7356   -1.6400    1.6945   N.ar      1 RES1   0.0000
   138 N18      -1.3069   -1.1595    2.7804   N.ar      1 RES1   0.0000
   139 C58      -1.4337   -1.8957    3.8672   C.ar      1 RES1   0.0000
   140 C59      -1.9685   -1.1988    5.0720   C.3       1 RES1   0.0000
   141 C60      -3.5007   -1.3088    5.1753   C.3       1 RES1   0.0000
   142 C61      -4.0238   -0.5908    6.4130   C.3       1 RES1   0.0000
   143 C62      -1.0845   -3.2829    3.8185   C.ar      1 RES1   0.0000
   144 C63      -1.3161   -4.2426    4.9272   C.3       1 RES1   0.0000
   145 C64      -0.0642   -4.3197    5.8298   C.3       1 RES1   0.0000
   146 C65      -0.3582   -5.1448    7.0725   C.3       1 RES1   0.0000
   147 N19      -0.4424   -3.7197    2.7491   N.ar      1 RES1   0.0000
   148 N20       1.1803   -2.2592   -0.0628   N.ar      1 RES1   0.0000
   149 N21       3.7484   -1.4627   -2.4109   N.ar      1 RES1   0.0000
   150 C66       4.2548   -0.3666   -2.9523   C.ar      1 RES1   0.0000
   151 C67       5.5210   -0.5252   -3.7102   C.3       1 RES1   0.0000
   152 C68       6.7381   -0.0190   -2.9068   C.3       1 RES1   0.0000
   153 C69       6.8654   -0.7430   -1.5725   C.3       1 RES1   0.0000
   154 H63       2.3883    3.6992   -5.7290   H         1 RES1   0.0000
   155 H64       2.4433    1.9596   -5.4451   H         1 RES1   0.0000
   156 H65       3.9289    2.8640   -5.7333   H         1 RES1   0.0000
   157 H66       2.1284    3.0645   -3.2709   H         1 RES1   0.0000
   158 H67       3.4461    4.1835   -3.6201   H         1 RES1   0.0000
   159 H68       4.4778    2.6655   -2.1933   H         1 RES1   0.0000
   160 H69       4.9688    2.1137   -3.7962   H         1 RES1   0.0000
   161 H70       3.1615   -4.0264   -2.1155   H         1 RES1   0.0000
   162 H71       2.1368   -5.9107   -0.8505   H         1 RES1   0.0000
   163 H72       0.5188   -5.3684    1.0019   H         1 RES1   0.0000
   164 H73      -1.6990   -0.1438    4.9957   H         1 RES1   0.0000
   165 H74      -1.5190   -1.6115    5.9730   H         1 RES1   0.0000
   166 H75      -3.7933   -2.3575    5.2270   H         1 RES1   0.0000
   167 H76      -3.9488   -0.8789    4.2770   H         1 RES1   0.0000
   168 H77      -3.5557   -0.9813    7.3150   H         1 RES1   0.0000
   169 H78      -5.0980   -0.7392    6.4976   H         1 RES1   0.0000
   170 H79      -3.8314    0.4802    6.3647   H         1 RES1   0.0000
   171 H80      -1.4928   -5.2319    4.5117   H         1 RES1   0.0000
   172 H81      -2.1711   -3.9473    5.5310   H         1 RES1   0.0000
   173 H82       0.2563   -3.3140    6.1135   H         1 RES1   0.0000
   174 H83       0.7412   -4.7803    5.2569   H         1 RES1   0.0000
   175 H84      -1.1160   -4.6712    7.6905   H         1 RES1   0.0000
   176 H85       0.5441   -5.2560    7.6643   H         1 RES1   0.0000
   177 H86      -0.7053   -6.1361    6.7988   H         1 RES1   0.0000
   178 H87       5.4599    0.0143   -4.6571   H         1 RES1   0.0000
   179 H88       5.6619   -1.5865   -3.9163   H         1 RES1   0.0000
   180 H89       6.6681    1.0563   -2.7377   H         1 RES1   0.0000
   181 H90       7.6325   -0.1993   -3.5045   H         1 RES1   0.0000
   182 H91       6.0162   -0.5200   -0.9259   H         1 RES1   0.0000
   183 H92       7.7716   -0.4259   -1.0642   H         1 RES1   0.0000
   184 H93       6.9134   -1.8182   -1.7211   H         1 RES1   0.0000
@<TRIPOS>BOND
     1     1     7    1
     2     1    15    1
     3     1    26    1
     4     1    68    1
     5     1    76    1
     6     1    87    1
     7     1   129    1
     8     1   137    1
     9     1   148    1
    10     2     3    1
    11     2    32    1
    12     2    33    1
    13     2    34    1
    14     3     4    1
    15     3    35    1
    16     3    36    1
    17     4     5    1
    18     4    37    1
    19     4    38    1
    20     5     6    1
    21     5    28    2
    22     6     7    2
    23     7     8    1
    24     8     9    1
    25     8    27    2
    26     9    10    1
    27     9    26    2
    28    10    11    2
    29    10    39    1
    30    11    12    1
    31    11    40    1
    32    12    13    2
    33    12    41    1
    34    13    14    1
    35    13    26    1
    36    14    15    1
    37    14    25    2
    38    15    16    2
    39    16    17    1
    40    17    18    1
    41    17    21    2
    42    18    19    1
    43    18    42    1
    44    18    43    1
    45    19    20    1
    46    19    44    1
    47    19    45    1
    48    20    46    1
    49    20    47    1
    50    20    48    1
    51    21    22    1
    52    21    25    1
    53    22    23    1
    54    22    49    1
    55    22    50    1
    56    23    24    1
    57    23    51    1
    58    23    52    1
    59    24    53    1
    60    24    54    1
    61    24    55    1
    62    27    28    1
    63    28    29    1
    64    29    30    1
    65    29    56    1
    66    29    57    1
    67    30    31    1
    68    30    58    1
    69    30    59    1
    70    31    60    1
    71    31    61    1
    72    31    62    1
    73    63    64    1
    74    63    93    1
    75    63    94    1
    76    63    95    1
    77    64    65    1
    78    64    96    1
    79    64    97    1
    80    65    66    1
    81    65    98    1
    82    65    99    1
    83    66    67    1
    84    66    89    2
    85    67    68    2
    86    68    69    1
    87    69    70    1
    88    69    88    2
    89    70    71    1
    90    70    87    2
    91    71    72    2
    92    71   100    1
    93    72    73    1
    94    72   101    1
    95    73    74    2
    96    73   102    1
    97    74    75    1
    98    74    87    1
    99    75    76    1
   100    75    86    2
   101    76    77    2
   102    77    78    1
   103    78    79    1
   104    78    82    2
   105    79    80    1
   106    79   103    1
   107    79   104    1
   108    80    81    1
   109    80   105    1
   110    80   106    1
   111    81   107    1
   112    81   108    1
   113    81   109    1
   114    82    83    1
   115    82    86    1
   116    83    84    1
   117    83   110    1
   118    83   111    1
   119    84    85    1
   120    84   112    1
   121    84   113    1
   122    85   114    1
   123    85   115    1
   124    85   116    1
   125    88    89    1
   126    89    90    1
   127    90    91    1
   128    90   117    1
   129    90   118    1
   130    91    92    1
   131    91   119    1
   132    91   120    1
   133    92   121    1
   134    92   122    1
   135    92   123    1
   136   124   125    1
   137   124   154    1
   138   124   155    1
   139   124   156    1
   140   125   126    1
   141   125   157    1
   142   125   158    1
   143   126   127    1
   144   126   159    1
   145   126   160    1
   146   127   128    1
   147   127   150    2
   148   128   129    2
   149   129   130    1
   150   130   131    1
   151   130   149    2
   152   131   132    1
   153   131   148    2
   154   132   133    2
   155   132   161    1
   156   133   134    1
   157   133   162    1
   158   134   135    2
   159   134   163    1
   160   135   136    1
   161   135   148    1
   162   136   137    1
   163   136   147    2
   164   137   138    2
   165   138   139    1
   166   139   140    1
   167   139   143    2
   168   140   141    1
   169   140   164    1
   170   140   165    1
   171   141   142    1
   172   141   166    1
   173   141   167    1
   174   142   168    1
   175   142   169    1
   176   142   170    1
   177   143   144    1
   178   143   147    1
   179   144   145    1
   180   144   171    1
   181   144   172    1
   182   145   146    1
   183   145   173    1
   184   145   174    1
   185   146   175    1
   186   146   176    1
   187   146   177    1
   188   149   150    1
   189   150   151    1
   190   151   152    1
   191   151   178    1
   192   151   179    1
   193   152   153    1
   194   152   180    1
   195   152   181    1
   196   153   182    1
   197   153   183    1
   198   153   184    1
@<TRIPOS>SUBSTRUCTURE
     1 RES1      184 GROUP             0 ****  ****    0  
