@<TRIPOS>MOLECULE
ICIGOT_geomtry_0_nunpairedes_0_charge_3 Charge: 3 Unpaired_Electrons: 4 XTB_Unpaired_Electrons: 0 XTB_Charge: 3
   173   176     1     0     0
SMALL
NoCharges
****
Generated from Architector

@<TRIPOS>ATOM
     1 Ho1       0.0882   -0.0686   -0.0994   Ho        1 RES1   0.0000
     2 C1        5.0271    3.0643    1.3553   C.3       1 RES1   0.0000
     3 C2        4.3226    1.9330    0.6093   C.3       1 RES1   0.0000
     4 C3        4.1307    2.2592   -0.8723   C.3       1 RES1   0.0000
     5 C4        3.1286    3.3841   -1.1408   C.3       1 RES1   0.0000
     6 C5        3.1196    3.7283   -2.6298   C.3       1 RES1   0.0000
     7 C6        2.3766    5.0081   -3.0140   C.3       1 RES1   0.0000
     8 C7        0.9019    5.0945   -2.6102   C.3       1 RES1   0.0000
     9 C8       -0.0579    4.2579   -3.4727   C.3       1 RES1   0.0000
    10 N1        0.1086    2.8266   -3.2673   N.am      1 RES1   0.0000
    11 C9        0.7373    2.0219   -4.3148   C.3       1 RES1   0.0000
    12 C10      -0.2803    1.0804   -4.9634   C.3       1 RES1   0.0000
    13 C11      -1.4235    1.8188   -5.6484   C.3       1 RES1   0.0000
    14 C12      -0.2178    2.2127   -2.1511   C.2       1 RES1   0.0000
    15 O1        0.1799    1.0481   -1.8977   O.2       1 RES1   0.0000
    16 C13      -1.2114    2.8654   -1.1818   C.3       1 RES1   0.0000
    17 O2       -1.2978    2.0595   -0.0024   O.3       1 RES1   0.0000
    18 C14      -2.6085    1.8418    0.5141   C.3       1 RES1   0.0000
    19 C15      -3.0387    0.4191    0.1323   C.2       1 RES1   0.0000
    20 O3       -2.1975   -0.2552   -0.5165   O.2       1 RES1   0.0000
    21 N2       -4.2382   -0.0348    0.4363   N.am      1 RES1   0.0000
    22 C16      -4.6985   -1.2859   -0.1609   C.3       1 RES1   0.0000
    23 C17      -4.9645   -1.1609   -1.6623   C.3       1 RES1   0.0000
    24 C18      -6.0880   -0.1872   -1.9967   C.3       1 RES1   0.0000
    25 C19      -5.2086    0.6676    1.2619   C.3       1 RES1   0.0000
    26 C20      -5.5976   -0.0914    2.5406   C.3       1 RES1   0.0000
    27 C21      -4.5510   -0.0857    3.6631   C.3       1 RES1   0.0000
    28 C22      -3.7036   -1.3576    3.7479   C.3       1 RES1   0.0000
    29 C23      -2.7679   -1.3168    4.9613   C.3       1 RES1   0.0000
    30 C24      -2.2096   -2.6605    5.4460   C.3       1 RES1   0.0000
    31 C25      -1.1702   -3.3362    4.5420   C.3       1 RES1   0.0000
    32 C26      -1.7734   -4.2673    3.4953   C.3       1 RES1   0.0000
    33 H1        5.3710    2.7355    2.3328   H         1 RES1   0.0000
    34 H2        5.9008    3.3751    0.7912   H         1 RES1   0.0000
    35 H3        4.3823    3.9308    1.4898   H         1 RES1   0.0000
    36 H4        4.9319    1.0265    0.6895   H         1 RES1   0.0000
    37 H5        3.3477    1.7227    1.0667   H         1 RES1   0.0000
    38 H6        5.1033    2.5461   -1.2763   H         1 RES1   0.0000
    39 H7        3.7941    1.3590   -1.3978   H         1 RES1   0.0000
    40 H8        2.1349    3.0587   -0.7967   H         1 RES1   0.0000
    41 H9        3.4127    4.2711   -0.5765   H         1 RES1   0.0000
    42 H10       4.1543    3.8555   -2.9511   H         1 RES1   0.0000
    43 H11       2.7264    2.8823   -3.1827   H         1 RES1   0.0000
    44 H12       2.8947    5.8506   -2.5561   H         1 RES1   0.0000
    45 H13       2.4534    5.1426   -4.0937   H         1 RES1   0.0000
    46 H14       0.8011    4.8356   -1.5552   H         1 RES1   0.0000
    47 H15       0.5846    6.1318   -2.7262   H         1 RES1   0.0000
    48 H16      -1.0927    4.5534   -3.2727   H         1 RES1   0.0000
    49 H17       0.1464    4.4635   -4.5229   H         1 RES1   0.0000
    50 H18       1.1555    2.6938   -5.0606   H         1 RES1   0.0000
    51 H19       1.5375    1.4184   -3.8782   H         1 RES1   0.0000
    52 H20       0.2562    0.4817   -5.6996   H         1 RES1   0.0000
    53 H21      -0.6774    0.4063   -4.1984   H         1 RES1   0.0000
    54 H22      -1.0415    2.4960   -6.4079   H         1 RES1   0.0000
    55 H23      -2.0897    1.1089   -6.1318   H         1 RES1   0.0000
    56 H24      -2.0071    2.3929   -4.9318   H         1 RES1   0.0000
    57 H25      -0.9021    3.8746   -0.8911   H         1 RES1   0.0000
    58 H26      -2.1731    2.9245   -1.7123   H         1 RES1   0.0000
    59 H27      -2.5429    1.9537    1.6013   H         1 RES1   0.0000
    60 H28      -3.3240    2.5759    0.1228   H         1 RES1   0.0000
    61 H29      -3.9508   -2.0613    0.0127   H         1 RES1   0.0000
    62 H30      -5.6259   -1.5598    0.3336   H         1 RES1   0.0000
    63 H31      -4.0485   -0.8678   -2.1765   H         1 RES1   0.0000
    64 H32      -5.2433   -2.1511   -2.0218   H         1 RES1   0.0000
    65 H33      -5.8359    0.8316   -1.7097   H         1 RES1   0.0000
    66 H34      -6.2838   -0.1918   -3.0661   H         1 RES1   0.0000
    67 H35      -7.0093   -0.4762   -1.4969   H         1 RES1   0.0000
    68 H36      -4.8243    1.6468    1.5419   H         1 RES1   0.0000
    69 H37      -6.1106    0.8196    0.6622   H         1 RES1   0.0000
    70 H38      -6.4968    0.4033    2.9052   H         1 RES1   0.0000
    71 H39      -5.8719   -1.1202    2.3102   H         1 RES1   0.0000
    72 H40      -3.9024    0.7838    3.5441   H         1 RES1   0.0000
    73 H41      -5.0677    0.0298    4.6165   H         1 RES1   0.0000
    74 H42      -4.3690   -2.2151    3.8531   H         1 RES1   0.0000
    75 H43      -3.1296   -1.4697    2.8205   H         1 RES1   0.0000
    76 H44      -1.9363   -0.6342    4.7543   H         1 RES1   0.0000
    77 H45      -3.3196   -0.8843    5.7981   H         1 RES1   0.0000
    78 H46      -1.7478   -2.4776    6.4184   H         1 RES1   0.0000
    79 H47      -3.0327   -3.3529    5.6166   H         1 RES1   0.0000
    80 H48      -0.5573   -2.5750    4.0534   H         1 RES1   0.0000
    81 H49      -0.5036   -3.9263    5.1724   H         1 RES1   0.0000
    82 H50      -2.5003   -3.7480    2.8736   H         1 RES1   0.0000
    83 H51      -0.9944   -4.6988    2.8679   H         1 RES1   0.0000
    84 H52      -2.2884   -5.0876    3.9856   H         1 RES1   0.0000
    85 C27      -3.6930   -4.8975   -1.9615   C.3       1 RES1   0.0000
    86 C28      -2.6636   -3.8921   -2.4691   C.3       1 RES1   0.0000
    87 C29      -1.3050   -4.5503   -2.7244   C.3       1 RES1   0.0000
    88 C30      -0.5806   -4.9782   -1.4501   C.3       1 RES1   0.0000
    89 C31       0.8602   -5.3958   -1.7327   C.3       1 RES1   0.0000
    90 C32       1.4921   -6.1774   -0.5823   C.3       1 RES1   0.0000
    91 C33       1.6577   -5.4115    0.7359   C.3       1 RES1   0.0000
    92 C34       2.9274   -4.5488    0.8436   C.3       1 RES1   0.0000
    93 N3        2.8404   -3.3023    0.0911   N.am      1 RES1   0.0000
    94 C35       3.5677   -3.2006   -1.1795   C.3       1 RES1   0.0000
    95 C36       4.7936   -2.2886   -1.0745   C.3       1 RES1   0.0000
    96 C37       5.7754   -2.7406   -0.0026   C.3       1 RES1   0.0000
    97 C38       2.1377   -2.2554    0.4846   C.2       1 RES1   0.0000
    98 O4        1.9421   -1.2605   -0.2544   O.2       1 RES1   0.0000
    99 C39       1.6093   -2.1620    1.9337   C.3       1 RES1   0.0000
   100 O5        0.7593   -1.0179    1.9669   O.3       1 RES1   0.0000
   101 C40       0.5893   -0.3387    3.2083   C.3       1 RES1   0.0000
   102 C41       0.6745    1.1653    2.8873   C.2       1 RES1   0.0000
   103 O6        0.7857    1.4685    1.6742   O.2       1 RES1   0.0000
   104 N4        0.6782    2.0252    3.8923   N.am      1 RES1   0.0000
   105 C42       1.3347    3.3200    3.7270   C.3       1 RES1   0.0000
   106 C43       2.8328    3.2335    4.0462   C.3       1 RES1   0.0000
   107 C44       3.1567    3.0404    5.5243   C.3       1 RES1   0.0000
   108 C45       0.1722    1.6862    5.2203   C.3       1 RES1   0.0000
   109 C46      -0.7971    2.7143    5.8227   C.3       1 RES1   0.0000
   110 C47      -2.1092    2.9199    5.0613   C.3       1 RES1   0.0000
   111 C48      -2.0166    3.8650    3.8623   C.3       1 RES1   0.0000
   112 C49      -3.3932    4.2230    3.2883   C.3       1 RES1   0.0000
   113 C50      -3.3414    5.4164    2.3272   C.3       1 RES1   0.0000
   114 C51      -2.5747    5.1539    1.0255   C.3       1 RES1   0.0000
   115 C52      -2.0399    6.4367    0.3987   C.3       1 RES1   0.0000
   116 H53      -4.6845   -4.4547   -1.9047   H         1 RES1   0.0000
   117 H54      -3.7465   -5.7391   -2.6460   H         1 RES1   0.0000
   118 H55      -3.4296   -5.2777   -0.9776   H         1 RES1   0.0000
   119 H56      -3.0308   -3.4689   -3.4067   H         1 RES1   0.0000
   120 H57      -2.5673   -3.0655   -1.7496   H         1 RES1   0.0000
   121 H58      -1.4663   -5.4292   -3.3470   H         1 RES1   0.0000
   122 H59      -0.6651   -3.8737   -3.2950   H         1 RES1   0.0000
   123 H60      -0.5670   -4.1396   -0.7456   H         1 RES1   0.0000
   124 H61      -1.1147   -5.8054   -0.9833   H         1 RES1   0.0000
   125 H62       0.8651   -6.0372   -2.6133   H         1 RES1   0.0000
   126 H63       1.4483   -4.5101   -1.9686   H         1 RES1   0.0000
   127 H64       0.8626   -7.0474   -0.3932   H         1 RES1   0.0000
   128 H65       2.4623   -6.5581   -0.8972   H         1 RES1   0.0000
   129 H66       0.7781   -4.7917    0.9112   H         1 RES1   0.0000
   130 H67       1.7112   -6.1425    1.5436   H         1 RES1   0.0000
   131 H68       3.1365   -4.3339    1.8949   H         1 RES1   0.0000
   132 H69       3.7717   -5.1190    0.4572   H         1 RES1   0.0000
   133 H70       3.8798   -4.1998   -1.4767   H         1 RES1   0.0000
   134 H71       2.8983   -2.7939   -1.9405   H         1 RES1   0.0000
   135 H72       5.2881   -2.3033   -2.0464   H         1 RES1   0.0000
   136 H73       4.4713   -1.2637   -0.8848   H         1 RES1   0.0000
   137 H74       6.1442   -3.7398   -0.2173   H         1 RES1   0.0000
   138 H75       6.6314   -2.0732    0.0289   H         1 RES1   0.0000
   139 H76       5.3143   -2.7384    0.9828   H         1 RES1   0.0000
   140 H77       1.0598   -3.0586    2.2509   H         1 RES1   0.0000
   141 H78       2.4869   -2.0147    2.5778   H         1 RES1   0.0000
   142 H79      -0.3872   -0.6109    3.6332   H         1 RES1   0.0000
   143 H80       1.3734   -0.5992    3.9317   H         1 RES1   0.0000
   144 H81       1.1945    3.6472    2.6971   H         1 RES1   0.0000
   145 H82       0.8664    4.0459    4.3849   H         1 RES1   0.0000
   146 H83       3.2906    2.4329    3.4629   H         1 RES1   0.0000
   147 H84       3.2725    4.1757    3.7199   H         1 RES1   0.0000
   148 H85       2.9825    2.0169    5.8496   H         1 RES1   0.0000
   149 H86       4.2033    3.2659    5.7055   H         1 RES1   0.0000
   150 H87       2.5769    3.7171    6.1461   H         1 RES1   0.0000
   151 H88      -0.3632    0.7401    5.1671   H         1 RES1   0.0000
   152 H89       1.0008    1.5568    5.9193   H         1 RES1   0.0000
   153 H90      -1.0419    2.3248    6.8116   H         1 RES1   0.0000
   154 H91      -0.3092    3.6735    5.9818   H         1 RES1   0.0000
   155 H92      -2.4958    1.9489    4.7458   H         1 RES1   0.0000
   156 H93      -2.8338    3.3409    5.7595   H         1 RES1   0.0000
   157 H94      -1.5497    4.7958    4.1875   H         1 RES1   0.0000
   158 H95      -1.3845    3.4239    3.0860   H         1 RES1   0.0000
   159 H96      -3.8462    3.3550    2.7962   H         1 RES1   0.0000
   160 H97      -4.0519    4.4915    4.1156   H         1 RES1   0.0000
   161 H98      -4.3626    5.7171    2.0871   H         1 RES1   0.0000
   162 H99      -2.8747    6.2526    2.8487   H         1 RES1   0.0000
   163 H100     -1.7354    4.4823    1.2253   H         1 RES1   0.0000
   164 H101     -3.2400    4.6686    0.3041   H         1 RES1   0.0000
   165 H102     -1.3240    6.9139    1.0620   H         1 RES1   0.0000
   166 H103     -1.5478    6.2299   -0.5510   H         1 RES1   0.0000
   167 H104     -2.8525    7.1313    0.2132   H         1 RES1   0.0000
   168 O7       -1.1498   -2.2260    0.7886   O.3       1 RES1   0.0000
   169 H105     -1.2847   -2.8777    0.0768   H         1 RES1   0.0000
   170 H106     -1.6681   -2.5543    1.5421   H         1 RES1   0.0000
   171 O8       -0.1243   -1.7121   -1.9905   O.3       1 RES1   0.0000
   172 H107     -1.0073   -1.7980   -2.3776   H         1 RES1   0.0000
   173 H108      0.4888   -1.8304   -2.7307   H         1 RES1   0.0000
@<TRIPOS>BOND
     1     1    15    1
     2     1    17    1
     3     1    20    1
     4     1    98    1
     5     1   100    1
     6     1   103    1
     7     1   168    1
     8     1   171    1
     9     2     3    1
    10     2    33    1
    11     2    34    1
    12     2    35    1
    13     3     4    1
    14     3    36    1
    15     3    37    1
    16     4     5    1
    17     4    38    1
    18     4    39    1
    19     5     6    1
    20     5    40    1
    21     5    41    1
    22     6     7    1
    23     6    42    1
    24     6    43    1
    25     7     8    1
    26     7    44    1
    27     7    45    1
    28     8     9    1
    29     8    46    1
    30     8    47    1
    31     9    10    1
    32     9    48    1
    33     9    49    1
    34    10    11    1
    35    10    14    1
    36    11    12    1
    37    11    50    1
    38    11    51    1
    39    12    13    1
    40    12    52    1
    41    12    53    1
    42    13    54    1
    43    13    55    1
    44    13    56    1
    45    14    15    2
    46    14    16    1
    47    16    17    1
    48    16    57    1
    49    16    58    1
    50    17    18    1
    51    18    19    1
    52    18    59    1
    53    18    60    1
    54    19    20    2
    55    19    21    1
    56    21    22    1
    57    21    25    1
    58    22    23    1
    59    22    61    1
    60    22    62    1
    61    23    24    1
    62    23    63    1
    63    23    64    1
    64    24    65    1
    65    24    66    1
    66    24    67    1
    67    25    26    1
    68    25    68    1
    69    25    69    1
    70    26    27    1
    71    26    70    1
    72    26    71    1
    73    27    28    1
    74    27    72    1
    75    27    73    1
    76    28    29    1
    77    28    74    1
    78    28    75    1
    79    29    30    1
    80    29    76    1
    81    29    77    1
    82    30    31    1
    83    30    78    1
    84    30    79    1
    85    31    32    1
    86    31    80    1
    87    31    81    1
    88    32    82    1
    89    32    83    1
    90    32    84    1
    91    85    86    1
    92    85   116    1
    93    85   117    1
    94    85   118    1
    95    86    87    1
    96    86   119    1
    97    86   120    1
    98    87    88    1
    99    87   121    1
   100    87   122    1
   101    88    89    1
   102    88   123    1
   103    88   124    1
   104    89    90    1
   105    89   125    1
   106    89   126    1
   107    90    91    1
   108    90   127    1
   109    90   128    1
   110    91    92    1
   111    91   129    1
   112    91   130    1
   113    92    93    1
   114    92   131    1
   115    92   132    1
   116    93    94    1
   117    93    97    1
   118    94    95    1
   119    94   133    1
   120    94   134    1
   121    95    96    1
   122    95   135    1
   123    95   136    1
   124    96   137    1
   125    96   138    1
   126    96   139    1
   127    97    98    2
   128    97    99    1
   129    99   100    1
   130    99   140    1
   131    99   141    1
   132   100   101    1
   133   101   102    1
   134   101   142    1
   135   101   143    1
   136   102   103    2
   137   102   104    1
   138   104   105    1
   139   104   108    1
   140   105   106    1
   141   105   144    1
   142   105   145    1
   143   106   107    1
   144   106   146    1
   145   106   147    1
   146   107   148    1
   147   107   149    1
   148   107   150    1
   149   108   109    1
   150   108   151    1
   151   108   152    1
   152   109   110    1
   153   109   153    1
   154   109   154    1
   155   110   111    1
   156   110   155    1
   157   110   156    1
   158   111   112    1
   159   111   157    1
   160   111   158    1
   161   112   113    1
   162   112   159    1
   163   112   160    1
   164   113   114    1
   165   113   161    1
   166   113   162    1
   167   114   115    1
   168   114   163    1
   169   114   164    1
   170   115   165    1
   171   115   166    1
   172   115   167    1
   173   168   169    1
   174   168   170    1
   175   171   172    1
   176   171   173    1
@<TRIPOS>SUBSTRUCTURE
     1 RES1      173 GROUP             0 ****  ****    0  
