@<TRIPOS>MOLECULE
ICIGOT_geomtry_0_nunpairedes_0_charge_3 Charge: 3 Unpaired_Electrons: 4 XTB_Unpaired_Electrons: 0 XTB_Charge: 3
   149   152     1     0     0
SMALL
NoCharges
****
Generated from Architector

@<TRIPOS>ATOM
     1 Ho1       0.1116    0.0973   -0.0858   Ho        1 RES1   0.0000
     2 C1        3.0459    5.7291   -2.3591   C.3       1 RES1   0.0000
     3 C2        2.7245    4.5610   -3.2833   C.3       1 RES1   0.0000
     4 C3        3.9522    3.6808   -3.5102   C.3       1 RES1   0.0000
     5 C4        3.7244    2.5456   -4.5095   C.3       1 RES1   0.0000
     6 C5        2.6718    1.5373   -4.0498   C.3       1 RES1   0.0000
     7 C6        2.6272    0.3143   -4.9632   C.3       1 RES1   0.0000
     8 C7        1.5631   -0.7044   -4.5365   C.3       1 RES1   0.0000
     9 C8        0.1747   -0.1909   -4.9290   C.3       1 RES1   0.0000
    10 N1       -0.9651   -0.7299   -4.1746   N.am      1 RES1   0.0000
    11 C9       -1.9682   -1.4779   -4.9282   C.3       1 RES1   0.0000
    12 C10      -1.5396   -2.8768   -5.3901   C.3       1 RES1   0.0000
    13 C11      -1.3917   -3.9469   -4.2985   C.3       1 RES1   0.0000
    14 C12       0.0446   -4.1366   -3.8051   C.3       1 RES1   0.0000
    15 C13       0.2377   -5.3915   -2.9426   C.3       1 RES1   0.0000
    16 C14      -0.3617   -5.2848   -1.5407   C.3       1 RES1   0.0000
    17 C15      -0.0869   -6.4872   -0.6329   C.3       1 RES1   0.0000
    18 C16      -0.7478   -7.7807   -1.0784   C.3       1 RES1   0.0000
    19 C17      -1.1237   -0.3275   -2.9319   C.2       1 RES1   0.0000
    20 O1       -0.2348    0.2911   -2.2911   O.2       1 RES1   0.0000
    21 C18      -2.4700   -0.5478   -2.2151   C.3       1 RES1   0.0000
    22 O2       -2.2839   -0.1134   -0.8735   O.3       1 RES1   0.0000
    23 C19      -3.2850    0.7388   -0.3322   C.3       1 RES1   0.0000
    24 C20      -2.5748    1.6945    0.6308   C.2       1 RES1   0.0000
    25 O3       -1.3254    1.6234    0.7336   O.2       1 RES1   0.0000
    26 N2       -3.3040    2.5538    1.3147   N.am      1 RES1   0.0000
    27 C21      -2.6619    3.5564    2.1445   C.3       1 RES1   0.0000
    28 C22      -4.7524    2.5732    1.2702   C.3       1 RES1   0.0000
    29 H1        2.1663    6.3477   -2.1976   H         1 RES1   0.0000
    30 H2        3.8244    6.3524   -2.7907   H         1 RES1   0.0000
    31 H3        3.3992    5.3678   -1.3946   H         1 RES1   0.0000
    32 H4        2.3770    4.9457   -4.2427   H         1 RES1   0.0000
    33 H5        1.9142    3.9688   -2.8473   H         1 RES1   0.0000
    34 H6        4.2759    3.2625   -2.5524   H         1 RES1   0.0000
    35 H7        4.7610    4.3105   -3.8869   H         1 RES1   0.0000
    36 H8        4.6720    2.0271   -4.6671   H         1 RES1   0.0000
    37 H9        3.4229    2.9693   -5.4692   H         1 RES1   0.0000
    38 H10       1.7008    2.0327   -4.0321   H         1 RES1   0.0000
    39 H11       2.8902    1.2127   -3.0261   H         1 RES1   0.0000
    40 H12       3.6064   -0.1651   -4.9504   H         1 RES1   0.0000
    41 H13       2.4344    0.6281   -5.9904   H         1 RES1   0.0000
    42 H14       1.6293   -0.8490   -3.4524   H         1 RES1   0.0000
    43 H15       1.7451   -1.6557   -5.0358   H         1 RES1   0.0000
    44 H16       0.0072   -0.3952   -5.9848   H         1 RES1   0.0000
    45 H17       0.1643    0.8908   -4.7749   H         1 RES1   0.0000
    46 H18      -2.2180   -0.8920   -5.8161   H         1 RES1   0.0000
    47 H19      -2.8752   -1.5798   -4.3388   H         1 RES1   0.0000
    48 H20      -0.6157   -2.8208   -5.9603   H         1 RES1   0.0000
    49 H21      -2.3163   -3.2033   -6.0829   H         1 RES1   0.0000
    50 H22      -1.7024   -4.9000   -4.7267   H         1 RES1   0.0000
    51 H23      -2.0693   -3.7364   -3.4692   H         1 RES1   0.0000
    52 H24       0.3988   -3.2434   -3.2725   H         1 RES1   0.0000
    53 H25       0.6782   -4.2515   -4.6846   H         1 RES1   0.0000
    54 H26       1.3071   -5.5991   -2.8451   H         1 RES1   0.0000
    55 H27      -0.2100   -6.2329   -3.4689   H         1 RES1   0.0000
    56 H28      -1.4416   -5.1297   -1.6108   H         1 RES1   0.0000
    57 H29       0.1002   -4.4269   -1.0427   H         1 RES1   0.0000
    58 H30      -0.4516   -6.2370    0.3673   H         1 RES1   0.0000
    59 H31       0.9929   -6.6310   -0.5649   H         1 RES1   0.0000
    60 H32      -1.8199   -7.6493   -1.1920   H         1 RES1   0.0000
    61 H33      -0.5791   -8.5501   -0.3320   H         1 RES1   0.0000
    62 H34      -0.3343   -8.1291   -2.0183   H         1 RES1   0.0000
    63 H35      -2.7711   -1.6010   -2.2082   H         1 RES1   0.0000
    64 H36      -3.2428    0.0365   -2.7287   H         1 RES1   0.0000
    65 H37      -4.0441    0.1382    0.1902   H         1 RES1   0.0000
    66 H38      -3.7911    1.3281   -1.1087   H         1 RES1   0.0000
    67 H39      -1.5830    3.4453    2.0567   H         1 RES1   0.0000
    68 H40      -2.9664    3.4420    3.1858   H         1 RES1   0.0000
    69 H41      -2.9468    4.5521    1.8012   H         1 RES1   0.0000
    70 H42      -5.1673    1.6447    1.6677   H         1 RES1   0.0000
    71 H43      -5.1194    2.7160    0.2539   H         1 RES1   0.0000
    72 H44      -5.1132    3.3970    1.8816   H         1 RES1   0.0000
    73 C23       6.8111   -2.2812    2.7087   C.3       1 RES1   0.0000
    74 C24       7.5477   -0.9610    2.5158   C.3       1 RES1   0.0000
    75 C25       7.0039   -0.0742    1.3918   C.3       1 RES1   0.0000
    76 C26       7.4746   -0.4237   -0.0233   C.3       1 RES1   0.0000
    77 C27       6.9640   -1.7363   -0.6205   C.3       1 RES1   0.0000
    78 C28       5.4408   -1.8451   -0.6093   C.3       1 RES1   0.0000
    79 C29       4.9569   -3.1613   -1.2110   C.3       1 RES1   0.0000
    80 C30       3.4300   -3.2510   -1.2393   C.3       1 RES1   0.0000
    81 N3        2.8279   -3.2077    0.0964   N.am      1 RES1   0.0000
    82 C31       2.9067   -4.4167    0.9113   C.3       1 RES1   0.0000
    83 C32       3.8491   -4.3525    2.1153   C.3       1 RES1   0.0000
    84 C33       3.6221   -5.4877    3.1197   C.3       1 RES1   0.0000
    85 C34       2.3040   -5.4357    3.9070   C.3       1 RES1   0.0000
    86 C35       1.1721   -6.2710    3.3041   C.3       1 RES1   0.0000
    87 C36      -0.0629   -6.3623    4.2053   C.3       1 RES1   0.0000
    88 C37      -0.8656   -5.0651    4.3282   C.3       1 RES1   0.0000
    89 C38      -1.6026   -4.6749    3.0496   C.3       1 RES1   0.0000
    90 C39       2.1608   -2.1344    0.4774   C.2       1 RES1   0.0000
    91 O4        1.9567   -1.1422   -0.2705   O.2       1 RES1   0.0000
    92 C40       1.4875   -2.1202    1.8612   C.3       1 RES1   0.0000
    93 O5        0.7832   -0.8930    2.0614   O.3       1 RES1   0.0000
    94 C41       1.3390    0.0123    3.0221   C.3       1 RES1   0.0000
    95 C42       1.5837    1.3856    2.3626   C.2       1 RES1   0.0000
    96 O6        1.4206    1.4826    1.1238   O.2       1 RES1   0.0000
    97 N4        1.9159    2.4019    3.1362   N.am      1 RES1   0.0000
    98 C43       2.1353    2.3470    4.5673   C.3       1 RES1   0.0000
    99 C44       2.1027    3.7271    2.5719   C.3       1 RES1   0.0000
   100 H45       7.1705   -2.7785    3.6053   H         1 RES1   0.0000
   101 H46       5.7421   -2.1036    2.8244   H         1 RES1   0.0000
   102 H47       6.9642   -2.9561    1.8740   H         1 RES1   0.0000
   103 H48       7.4757   -0.4043    3.4525   H         1 RES1   0.0000
   104 H49       8.6048   -1.1528    2.3376   H         1 RES1   0.0000
   105 H50       5.9112   -0.0534    1.4336   H         1 RES1   0.0000
   106 H51       7.3449    0.9446    1.5859   H         1 RES1   0.0000
   107 H52       7.1748    0.3910   -0.6868   H         1 RES1   0.0000
   108 H53       8.5643   -0.4519   -0.0195   H         1 RES1   0.0000
   109 H54       7.3156   -1.7959   -1.6520   H         1 RES1   0.0000
   110 H55       7.3973   -2.5810   -0.0879   H         1 RES1   0.0000
   111 H56       5.0844   -1.7801    0.4196   H         1 RES1   0.0000
   112 H57       5.0196   -1.0059   -1.1691   H         1 RES1   0.0000
   113 H58       5.3183   -3.2485   -2.2363   H         1 RES1   0.0000
   114 H59       5.3713   -4.0014   -0.6540   H         1 RES1   0.0000
   115 H60       3.0408   -2.4020   -1.8035   H         1 RES1   0.0000
   116 H61       3.1185   -4.1799   -1.7253   H         1 RES1   0.0000
   117 H62       1.8996   -4.6611    1.2515   H         1 RES1   0.0000
   118 H63       3.2503   -5.2236    0.2640   H         1 RES1   0.0000
   119 H64       4.8757   -4.4091    1.7617   H         1 RES1   0.0000
   120 H65       3.7544   -3.4018    2.6376   H         1 RES1   0.0000
   121 H66       3.6992   -6.4507    2.6169   H         1 RES1   0.0000
   122 H67       4.4472   -5.4399    3.8304   H         1 RES1   0.0000
   123 H68       2.4922   -5.8469    4.8986   H         1 RES1   0.0000
   124 H69       1.9942   -4.3970    4.0444   H         1 RES1   0.0000
   125 H70       0.8688   -5.8963    2.3255   H         1 RES1   0.0000
   126 H71       1.5526   -7.2811    3.1526   H         1 RES1   0.0000
   127 H72      -0.7218   -7.1438    3.8201   H         1 RES1   0.0000
   128 H73       0.2569   -6.6708    5.2019   H         1 RES1   0.0000
   129 H74      -1.6088   -5.2035    5.1126   H         1 RES1   0.0000
   130 H75      -0.2092   -4.2510    4.6420   H         1 RES1   0.0000
   131 H76      -2.2630   -5.4801    2.7389   H         1 RES1   0.0000
   132 H77      -2.2092   -3.7881    3.2276   H         1 RES1   0.0000
   133 H78      -0.9128   -4.4648    2.2306   H         1 RES1   0.0000
   134 H79       0.7438   -2.9286    1.8852   H         1 RES1   0.0000
   135 H80       2.1923   -2.3009    2.6759   H         1 RES1   0.0000
   136 H81       0.6032    0.1337    3.8309   H         1 RES1   0.0000
   137 H82       2.2714   -0.3839    3.4409   H         1 RES1   0.0000
   138 H83       1.9218    1.3715    4.9880   H         1 RES1   0.0000
   139 H84       3.1738    2.5979    4.7899   H         1 RES1   0.0000
   140 H85       1.4987    3.0883    5.0546   H         1 RES1   0.0000
   141 H86       1.8651    3.7132    1.5109   H         1 RES1   0.0000
   142 H87       1.4550    4.4381    3.0869   H         1 RES1   0.0000
   143 H88       3.1352    4.0501    2.7045   H         1 RES1   0.0000
   144 O7       -1.8086   -1.1343    1.5269   O.3       1 RES1   0.0000
   145 H89      -2.0057   -0.7820    2.4046   H         1 RES1   0.0000
   146 H90      -2.3424   -1.9377    1.4577   H         1 RES1   0.0000
   147 O8       -0.4170   -2.1966   -0.8378   O.3       1 RES1   0.0000
   148 H91      -1.1247   -2.8444   -0.6887   H         1 RES1   0.0000
   149 H92       0.1106   -2.5840   -1.5677   H         1 RES1   0.0000
@<TRIPOS>BOND
     1     1    20    1
     2     1    22    1
     3     1    25    1
     4     1    91    1
     5     1    93    1
     6     1    96    1
     7     1   144    1
     8     1   147    1
     9     2     3    1
    10     2    29    1
    11     2    30    1
    12     2    31    1
    13     3     4    1
    14     3    32    1
    15     3    33    1
    16     4     5    1
    17     4    34    1
    18     4    35    1
    19     5     6    1
    20     5    36    1
    21     5    37    1
    22     6     7    1
    23     6    38    1
    24     6    39    1
    25     7     8    1
    26     7    40    1
    27     7    41    1
    28     8     9    1
    29     8    42    1
    30     8    43    1
    31     9    10    1
    32     9    44    1
    33     9    45    1
    34    10    11    1
    35    10    19    1
    36    11    12    1
    37    11    46    1
    38    11    47    1
    39    12    13    1
    40    12    48    1
    41    12    49    1
    42    13    14    1
    43    13    50    1
    44    13    51    1
    45    14    15    1
    46    14    52    1
    47    14    53    1
    48    15    16    1
    49    15    54    1
    50    15    55    1
    51    16    17    1
    52    16    56    1
    53    16    57    1
    54    17    18    1
    55    17    58    1
    56    17    59    1
    57    18    60    1
    58    18    61    1
    59    18    62    1
    60    19    20    2
    61    19    21    1
    62    21    22    1
    63    21    63    1
    64    21    64    1
    65    22    23    1
    66    23    24    1
    67    23    65    1
    68    23    66    1
    69    24    25    2
    70    24    26    1
    71    26    27    1
    72    26    28    1
    73    27    67    1
    74    27    68    1
    75    27    69    1
    76    28    70    1
    77    28    71    1
    78    28    72    1
    79    73    74    1
    80    73   100    1
    81    73   101    1
    82    73   102    1
    83    74    75    1
    84    74   103    1
    85    74   104    1
    86    75    76    1
    87    75   105    1
    88    75   106    1
    89    76    77    1
    90    76   107    1
    91    76   108    1
    92    77    78    1
    93    77   109    1
    94    77   110    1
    95    78    79    1
    96    78   111    1
    97    78   112    1
    98    79    80    1
    99    79   113    1
   100    79   114    1
   101    80    81    1
   102    80   115    1
   103    80   116    1
   104    81    82    1
   105    81    90    1
   106    82    83    1
   107    82   117    1
   108    82   118    1
   109    83    84    1
   110    83   119    1
   111    83   120    1
   112    84    85    1
   113    84   121    1
   114    84   122    1
   115    85    86    1
   116    85   123    1
   117    85   124    1
   118    86    87    1
   119    86   125    1
   120    86   126    1
   121    87    88    1
   122    87   127    1
   123    87   128    1
   124    88    89    1
   125    88   129    1
   126    88   130    1
   127    89   131    1
   128    89   132    1
   129    89   133    1
   130    90    91    2
   131    90    92    1
   132    92    93    1
   133    92   134    1
   134    92   135    1
   135    93    94    1
   136    94    95    1
   137    94   136    1
   138    94   137    1
   139    95    96    2
   140    95    97    1
   141    97    98    1
   142    97    99    1
   143    98   138    1
   144    98   139    1
   145    98   140    1
   146    99   141    1
   147    99   142    1
   148    99   143    1
   149   144   145    1
   150   144   146    1
   151   147   148    1
   152   147   149    1
@<TRIPOS>SUBSTRUCTURE
     1 RES1      149 GROUP             0 ****  ****    0  
