@<TRIPOS>MOLECULE
bicapped_trigonal_prismatic_0_nunpairedes_0_charge_3 Charge: 3 Unpaired_Electrons: 4 XTB_Unpaired_Electrons: 0 XTB_Charge: 3
   337   342     1     0     0
SMALL
NoCharges
****
Generated from Architector

@<TRIPOS>ATOM
     1 Ho1      -0.2819   -0.0419   -0.1878   Ho        1 RES1   0.0000
     2 C1        1.0078    8.2121    3.8859   C.3       1 RES1   0.0000
     3 C2        2.3834    8.1018    3.2356   C.3       1 RES1   0.0000
     4 C3        3.3995    7.3061    4.0600   C.3       1 RES1   0.0000
     5 C4        2.9924    5.8391    4.2468   C.3       1 RES1   0.0000
     6 C5        4.0905    4.8180    3.9294   C.3       1 RES1   0.0000
     7 C6        5.1473    4.5642    5.0097   C.3       1 RES1   0.0000
     8 C7        5.5118    3.0706    5.0914   C.3       1 RES1   0.0000
     9 C8        6.1115    2.4817    3.8019   C.3       1 RES1   0.0000
    10 C9        6.0792    0.9444    3.7711   C.3       1 RES1   0.0000
    11 C10       6.4461    0.3220    2.4072   C.3       1 RES1   0.0000
    12 C11       5.4181   -0.6969    1.8596   C.3       1 RES1   0.0000
    13 C12       5.3962   -0.6496    0.3314   C.3       1 RES1   0.0000
    14 N1        4.4279   -1.5038   -0.3860   N.am      1 RES1   0.0000
    15 C13       5.0132   -2.2085   -1.5276   C.3       1 RES1   0.0000
    16 C14       4.9685   -1.2910   -2.7642   C.3       1 RES1   0.0000
    17 C15       4.4637   -1.9655   -4.0332   C.3       1 RES1   0.0000
    18 C16       4.3489   -0.9604   -5.1840   C.3       1 RES1   0.0000
    19 C17       3.2647    0.1147   -5.0117   C.3       1 RES1   0.0000
    20 C18       1.9470   -0.2173   -5.7122   C.3       1 RES1   0.0000
    21 C19       1.2585   -1.4462   -5.1251   C.3       1 RES1   0.0000
    22 C20      -0.1325   -1.7036   -5.7034   C.3       1 RES1   0.0000
    23 C21      -0.6234   -3.1384   -5.4870   C.3       1 RES1   0.0000
    24 C22      -0.6587   -3.6009   -4.0217   C.3       1 RES1   0.0000
    25 C23       0.5095   -4.5090   -3.6392   C.3       1 RES1   0.0000
    26 C24       0.3282   -5.0574   -2.2297   C.3       1 RES1   0.0000
    27 C25       3.1139   -1.3339   -0.3675   C.2       1 RES1   0.0000
    28 O1        2.4762   -0.4665    0.2696   O.2       1 RES1   0.0000
    29 C26       2.2210   -2.3196   -1.1395   C.3       1 RES1   0.0000
    30 O2        0.9382   -2.2856   -0.5059   O.3       1 RES1   0.0000
    31 C27       0.9847   -3.0560    0.6987   C.3       1 RES1   0.0000
    32 C28      -0.2912   -2.8005    1.4632   C.3       1 RES1   0.0000
    33 O3       -0.3101   -1.4178    1.8762   O.3       1 RES1   0.0000
    34 C29      -1.4230   -1.2037    2.7377   C.3       1 RES1   0.0000
    35 C30      -2.6730   -0.9872    1.8912   C.2       1 RES1   0.0000
    36 O4       -2.4661   -0.6569    0.6869   O.2       1 RES1   0.0000
    37 N2       -3.8519   -1.2036    2.4302   N.am      1 RES1   0.0000
    38 C31      -5.0404   -1.1784    1.5811   C.3       1 RES1   0.0000
    39 C32      -5.0471   -2.2688    0.5070   C.3       1 RES1   0.0000
    40 C33      -5.2591   -3.7171    0.9364   C.3       1 RES1   0.0000
    41 C34      -4.0189   -4.3787    1.5313   C.3       1 RES1   0.0000
    42 C35      -4.1282   -5.9039    1.5990   C.3       1 RES1   0.0000
    43 C36      -4.8847   -6.4931    2.7923   C.3       1 RES1   0.0000
    44 C37      -6.3824   -6.1711    2.8853   C.3       1 RES1   0.0000
    45 C38      -6.7499   -4.9655    3.7693   C.3       1 RES1   0.0000
    46 C39      -6.9393   -5.2753    5.2612   C.3       1 RES1   0.0000
    47 C40      -5.6318   -5.3300    6.0459   C.3       1 RES1   0.0000
    48 C41      -5.8424   -5.4250    7.5552   C.3       1 RES1   0.0000
    49 C42      -4.5064   -5.4388    8.2918   C.3       1 RES1   0.0000
    50 C43      -4.0878   -1.3760    3.8632   C.3       1 RES1   0.0000
    51 C44      -4.5649   -0.0631    4.5242   C.3       1 RES1   0.0000
    52 C45      -3.7135    0.3876    5.7202   C.3       1 RES1   0.0000
    53 C46      -3.8186   -0.4729    6.9881   C.3       1 RES1   0.0000
    54 C47      -3.0234    0.1528    8.1465   C.3       1 RES1   0.0000
    55 C48      -2.7001   -0.8018    9.3097   C.3       1 RES1   0.0000
    56 C49      -1.3702   -1.5348    9.1060   C.3       1 RES1   0.0000
    57 C50      -0.7539   -2.1625   10.3666   C.3       1 RES1   0.0000
    58 C51      -1.0716   -3.6401   10.6235   C.3       1 RES1   0.0000
    59 C52      -0.6929   -4.5627    9.4635   C.3       1 RES1   0.0000
    60 C53      -0.4835   -6.0209    9.8713   C.3       1 RES1   0.0000
    61 C54      -0.3877   -6.9207    8.6419   C.3       1 RES1   0.0000
    62 H1        0.3745    8.8733    3.2968   H         1 RES1   0.0000
    63 H2        1.0900    8.6214    4.8903   H         1 RES1   0.0000
    64 H3        0.5140    7.2427    3.9543   H         1 RES1   0.0000
    65 H4        2.7753    9.1096    3.0879   H         1 RES1   0.0000
    66 H5        2.2755    7.6442    2.2463   H         1 RES1   0.0000
    67 H6        3.5255    7.7888    5.0287   H         1 RES1   0.0000
    68 H7        4.3606    7.3520    3.5469   H         1 RES1   0.0000
    69 H8        2.1524    5.6316    3.5707   H         1 RES1   0.0000
    70 H9        2.6300    5.6778    5.2642   H         1 RES1   0.0000
    71 H10       4.5848    5.1080    3.0012   H         1 RES1   0.0000
    72 H11       3.5732    3.8733    3.7601   H         1 RES1   0.0000
    73 H12       4.7543    4.8703    5.9787   H         1 RES1   0.0000
    74 H13       6.0335    5.1756    4.8313   H         1 RES1   0.0000
    75 H14       4.5974    2.5251    5.3553   H         1 RES1   0.0000
    76 H15       6.2116    2.9231    5.9149   H         1 RES1   0.0000
    77 H16       7.1380    2.8282    3.7087   H         1 RES1   0.0000
    78 H17       5.5602    2.8638    2.9432   H         1 RES1   0.0000
    79 H18       5.0787    0.6123    4.0431   H         1 RES1   0.0000
    80 H19       6.7428    0.5490    4.5374   H         1 RES1   0.0000
    81 H20       7.4138   -0.1645    2.4956   H         1 RES1   0.0000
    82 H21       6.5795    1.1234    1.6811   H         1 RES1   0.0000
    83 H22       4.4296   -0.4606    2.2424   H         1 RES1   0.0000
    84 H23       5.6783   -1.7000    2.2002   H         1 RES1   0.0000
    85 H24       5.2410    0.3827    0.0241   H         1 RES1   0.0000
    86 H25       6.3844   -0.9560   -0.0092   H         1 RES1   0.0000
    87 H26       4.4835   -3.1358   -1.7237   H         1 RES1   0.0000
    88 H27       6.0362   -2.4744   -1.2599   H         1 RES1   0.0000
    89 H28       5.9581   -0.8833   -2.9633   H         1 RES1   0.0000
    90 H29       4.3204   -0.4462   -2.5279   H         1 RES1   0.0000
    91 H30       3.4938   -2.4311   -3.8415   H         1 RES1   0.0000
    92 H31       5.1561   -2.7553   -4.3216   H         1 RES1   0.0000
    93 H32       4.1601   -1.5011   -6.1118   H         1 RES1   0.0000
    94 H33       5.3192   -0.4716   -5.2944   H         1 RES1   0.0000
    95 H34       3.6242    1.0583   -5.4215   H         1 RES1   0.0000
    96 H35       3.0629    0.2901   -3.9502   H         1 RES1   0.0000
    97 H36       2.1364   -0.3816   -6.7728   H         1 RES1   0.0000
    98 H37       1.2810    0.6468   -5.6319   H         1 RES1   0.0000
    99 H38       1.1747   -1.3172   -4.0370   H         1 RES1   0.0000
   100 H39       1.8736   -2.3220   -5.3260   H         1 RES1   0.0000
   101 H40      -0.1121   -1.5118   -6.7775   H         1 RES1   0.0000
   102 H41      -0.8427   -1.0009   -5.2616   H         1 RES1   0.0000
   103 H42       0.0180   -3.8126   -6.0563   H         1 RES1   0.0000
   104 H43      -1.6242   -3.2148   -5.9171   H         1 RES1   0.0000
   105 H44      -1.5789   -4.1628   -3.8466   H         1 RES1   0.0000
   106 H45      -0.6731   -2.7342   -3.3496   H         1 RES1   0.0000
   107 H46       1.4514   -3.9633   -3.7111   H         1 RES1   0.0000
   108 H47       0.5624   -5.3418   -4.3371   H         1 RES1   0.0000
   109 H48       0.1024   -4.2456   -1.5438   H         1 RES1   0.0000
   110 H49       1.2200   -5.5834   -1.8984   H         1 RES1   0.0000
   111 H50      -0.5013   -5.7573   -2.2008   H         1 RES1   0.0000
   112 H51       2.5999   -3.3450   -1.1169   H         1 RES1   0.0000
   113 H52       2.0661   -1.9908   -2.1691   H         1 RES1   0.0000
   114 H53       1.8454   -2.7689    1.3127   H         1 RES1   0.0000
   115 H54       1.0566   -4.1212    0.4517   H         1 RES1   0.0000
   116 H55      -0.3102   -3.4410    2.3528   H         1 RES1   0.0000
   117 H56      -1.1675   -3.0264    0.8348   H         1 RES1   0.0000
   118 H57      -1.2003   -0.3240    3.3444   H         1 RES1   0.0000
   119 H58      -1.5394   -2.0742    3.3912   H         1 RES1   0.0000
   120 H59      -5.0971   -0.2010    1.0895   H         1 RES1   0.0000
   121 H60      -5.9009   -1.2778    2.2338   H         1 RES1   0.0000
   122 H61      -4.1036   -2.2104   -0.0299   H         1 RES1   0.0000
   123 H62      -5.8584   -2.0117   -0.1723   H         1 RES1   0.0000
   124 H63      -5.5274   -4.2702    0.0343   H         1 RES1   0.0000
   125 H64      -6.1013   -3.7881    1.6177   H         1 RES1   0.0000
   126 H65      -3.8099   -3.9844    2.5250   H         1 RES1   0.0000
   127 H66      -3.1671   -4.1324    0.8838   H         1 RES1   0.0000
   128 H67      -3.1172   -6.3166    1.6366   H         1 RES1   0.0000
   129 H68      -4.5830   -6.2659    0.6781   H         1 RES1   0.0000
   130 H69      -4.3905   -6.1897    3.7133   H         1 RES1   0.0000
   131 H70      -4.7797   -7.5770    2.7141   H         1 RES1   0.0000
   132 H71      -6.9083   -7.0409    3.2814   H         1 RES1   0.0000
   133 H72      -6.7718   -6.0111    1.8774   H         1 RES1   0.0000
   134 H73      -7.6929   -4.5473    3.4013   H         1 RES1   0.0000
   135 H74      -5.9851   -4.1873    3.6818   H         1 RES1   0.0000
   136 H75      -7.4719   -6.2197    5.3695   H         1 RES1   0.0000
   137 H76      -7.5711   -4.4959    5.6984   H         1 RES1   0.0000
   138 H77      -5.0513   -4.4234    5.8390   H         1 RES1   0.0000
   139 H78      -5.0453   -6.1909    5.7246   H         1 RES1   0.0000
   140 H79      -6.3985   -6.3318    7.7955   H         1 RES1   0.0000
   141 H80      -6.4355   -4.5746    7.8985   H         1 RES1   0.0000
   142 H81      -3.8914   -6.2697    7.9491   H         1 RES1   0.0000
   143 H82      -4.6561   -5.5436    9.3635   H         1 RES1   0.0000
   144 H83      -3.9627   -4.5104    8.1143   H         1 RES1   0.0000
   145 H84      -3.1913   -1.7262    4.3664   H         1 RES1   0.0000
   146 H85      -4.8537   -2.1517    3.9638   H         1 RES1   0.0000
   147 H86      -5.5971   -0.1616    4.8506   H         1 RES1   0.0000
   148 H87      -4.5424    0.7244    3.7670   H         1 RES1   0.0000
   149 H88      -4.0149    1.4027    5.9890   H         1 RES1   0.0000
   150 H89      -2.6657    0.4319    5.4043   H         1 RES1   0.0000
   151 H90      -3.4513   -1.4802    6.7923   H         1 RES1   0.0000
   152 H91      -4.8643   -0.5611    7.2843   H         1 RES1   0.0000
   153 H92      -3.5921    1.0073    8.5172   H         1 RES1   0.0000
   154 H93      -2.0801    0.5422    7.7527   H         1 RES1   0.0000
   155 H94      -3.5090   -1.5194    9.4454   H         1 RES1   0.0000
   156 H95      -2.6308   -0.2159   10.2261   H         1 RES1   0.0000
   157 H96      -0.6515   -0.8030    8.7236   H         1 RES1   0.0000
   158 H97      -1.4919   -2.3055    8.3521   H         1 RES1   0.0000
   159 H98      -1.0641   -1.5835   11.2380   H         1 RES1   0.0000
   160 H99       0.3336   -2.0728   10.2926   H         1 RES1   0.0000
   161 H100     -2.1299   -3.7631   10.8490   H         1 RES1   0.0000
   162 H101     -0.5117   -3.9394   11.5110   H         1 RES1   0.0000
   163 H102      0.2254   -4.1990    8.9931   H         1 RES1   0.0000
   164 H103     -1.4924   -4.5445    8.7239   H         1 RES1   0.0000
   165 H104     -1.3171   -6.3509   10.4915   H         1 RES1   0.0000
   166 H105      0.4283   -6.1171   10.4629   H         1 RES1   0.0000
   167 H106     -1.3108   -6.8739    8.0655   H         1 RES1   0.0000
   168 H107     -0.2229   -7.9555    8.9274   H         1 RES1   0.0000
   169 H108      0.4376   -6.6116    8.0010   H         1 RES1   0.0000
   170 C55       8.2385   -3.2267   -3.3498   C.3       1 RES1   0.0000
   171 C56       9.4496   -2.3053   -3.2509   C.3       1 RES1   0.0000
   172 C57       9.1249   -0.8093   -3.2344   C.3       1 RES1   0.0000
   173 C58       8.5484   -0.2914   -1.9143   C.3       1 RES1   0.0000
   174 C59       8.5463    1.2403   -1.8194   C.3       1 RES1   0.0000
   175 C60       7.5832    1.9591   -2.7785   C.3       1 RES1   0.0000
   176 C61       6.1994    2.2739   -2.1930   C.3       1 RES1   0.0000
   177 C62       6.2066    3.4808   -1.2502   C.3       1 RES1   0.0000
   178 C63       4.8315    3.8673   -0.6830   C.3       1 RES1   0.0000
   179 C64       4.2160    2.7257    0.1243   C.3       1 RES1   0.0000
   180 C65       3.0554    3.0797    1.0607   C.3       1 RES1   0.0000
   181 C66       2.9087    1.9319    2.0765   C.3       1 RES1   0.0000
   182 N3        1.6085    1.8968    2.7508   N.am      1 RES1   0.0000
   183 C67       1.5172    1.8428    4.1989   C.3       1 RES1   0.0000
   184 C68       2.2709    0.6719    4.8720   C.3       1 RES1   0.0000
   185 C69       2.2357   -0.7292    4.2402   C.3       1 RES1   0.0000
   186 C70       2.7018   -1.7345    5.3184   C.3       1 RES1   0.0000
   187 C71       3.3933   -3.0392    4.8939   C.3       1 RES1   0.0000
   188 C72       2.5803   -4.1004    4.1357   C.3       1 RES1   0.0000
   189 C73       1.4430   -4.7110    4.9607   C.3       1 RES1   0.0000
   190 C74       0.5267   -5.6417    4.1540   C.3       1 RES1   0.0000
   191 C75      -0.8790   -5.7949    4.7499   C.3       1 RES1   0.0000
   192 C76      -1.7485   -4.5279    4.8055   C.3       1 RES1   0.0000
   193 C77      -1.5071   -3.6232    6.0275   C.3       1 RES1   0.0000
   194 C78      -0.8031   -2.2770    5.7934   C.3       1 RES1   0.0000
   195 C79       0.5578    1.8318    1.9687   C.2       1 RES1   0.0000
   196 O5        0.6768    1.5554    0.7450   O.2       1 RES1   0.0000
   197 C80      -0.8576    2.2336    2.4203   C.3       1 RES1   0.0000
   198 O6       -1.6885    2.0790    1.2820   O.3       1 RES1   0.0000
   199 C81      -1.6931    3.2540    0.4582   C.3       1 RES1   0.0000
   200 C82      -1.9249    2.8384   -0.9812   C.3       1 RES1   0.0000
   201 O7       -0.7286    2.2095   -1.4633   O.3       1 RES1   0.0000
   202 C83      -0.7932    1.9785   -2.8695   C.3       1 RES1   0.0000
   203 C84      -1.5409    0.6595   -3.0191   C.2       1 RES1   0.0000
   204 O8       -1.0773   -0.2642   -2.2738   O.2       1 RES1   0.0000
   205 N4       -2.6166    0.5089   -3.7539   N.am      1 RES1   0.0000
   206 C85      -3.3138   -0.7711   -3.6792   C.3       1 RES1   0.0000
   207 C86      -4.1404   -0.9138   -2.3972   C.3       1 RES1   0.0000
   208 C87      -5.4513   -0.1215   -2.3237   C.3       1 RES1   0.0000
   209 C88      -5.3119    1.2813   -1.7367   C.3       1 RES1   0.0000
   210 C89      -6.6513    1.9645   -1.4330   C.3       1 RES1   0.0000
   211 C90      -7.2940    2.7657   -2.5738   C.3       1 RES1   0.0000
   212 C91      -8.0761    1.9662   -3.6271   C.3       1 RES1   0.0000
   213 C92      -7.3227    1.5829   -4.9079   C.3       1 RES1   0.0000
   214 C93      -7.2440    2.6613   -5.9922   C.3       1 RES1   0.0000
   215 C94      -6.2670    3.7984   -5.6893   C.3       1 RES1   0.0000
   216 C95      -5.7417    4.4760   -6.9556   C.3       1 RES1   0.0000
   217 C96      -4.7457    5.5814   -6.6196   C.3       1 RES1   0.0000
   218 C97      -3.2141    1.4959   -4.6434   C.3       1 RES1   0.0000
   219 C98      -2.8689    1.2921   -6.1238   C.3       1 RES1   0.0000
   220 C99      -1.4744    1.7711   -6.5234   C.3       1 RES1   0.0000
   221 C100     -1.2932    3.2875   -6.5438   C.3       1 RES1   0.0000
   222 C101      0.1185    3.6935   -6.9872   C.3       1 RES1   0.0000
   223 C102      0.5104    5.0787   -6.4622   C.3       1 RES1   0.0000
   224 C103      0.9937    5.0203   -5.0091   C.3       1 RES1   0.0000
   225 C104      0.8887    6.3415   -4.2415   C.3       1 RES1   0.0000
   226 C105     -0.5328    6.8778   -4.0562   C.3       1 RES1   0.0000
   227 C106     -1.4767    5.9351   -3.3094   C.3       1 RES1   0.0000
   228 C107     -2.8395    6.5866   -3.0746   C.3       1 RES1   0.0000
   229 C108     -3.8637    5.6464   -2.4479   C.3       1 RES1   0.0000
   230 H109      8.5691   -4.2430   -3.5524   H         1 RES1   0.0000
   231 H110      7.5834   -2.9174   -4.1625   H         1 RES1   0.0000
   232 H111      7.6675   -3.2409   -2.4236   H         1 RES1   0.0000
   233 H112     10.0858   -2.5009   -4.1144   H         1 RES1   0.0000
   234 H113     10.0254   -2.5666   -2.3626   H         1 RES1   0.0000
   235 H114      8.4341   -0.5927   -4.0513   H         1 RES1   0.0000
   236 H115     10.0498   -0.2658   -3.4352   H         1 RES1   0.0000
   237 H116      9.1576   -0.6841   -1.0954   H         1 RES1   0.0000
   238 H117      7.5364   -0.6723   -1.7782   H         1 RES1   0.0000
   239 H118      9.5642    1.5725   -2.0236   H         1 RES1   0.0000
   240 H119      8.3200    1.5307   -0.7915   H         1 RES1   0.0000
   241 H120      7.4601    1.3504   -3.6751   H         1 RES1   0.0000
   242 H121      8.0382    2.8955   -3.1004   H         1 RES1   0.0000
   243 H122      5.8367    1.3902   -1.6706   H         1 RES1   0.0000
   244 H123      5.5074    2.4790   -3.0140   H         1 RES1   0.0000
   245 H124      6.6081    4.3367   -1.7929   H         1 RES1   0.0000
   246 H125      6.8868    3.2804   -0.4192   H         1 RES1   0.0000
   247 H126      4.1635    4.1620   -1.4941   H         1 RES1   0.0000
   248 H127      4.9676    4.7389   -0.0423   H         1 RES1   0.0000
   249 H128      5.0075    2.3151    0.7506   H         1 RES1   0.0000
   250 H129      3.8605    1.9527   -0.5580   H         1 RES1   0.0000
   251 H130      2.1502    3.1976    0.4666   H         1 RES1   0.0000
   252 H131      3.2385    4.0144    1.5794   H         1 RES1   0.0000
   253 H132      3.6792    2.0144    2.8386   H         1 RES1   0.0000
   254 H133      3.0345    0.9966    1.5346   H         1 RES1   0.0000
   255 H134      0.4605    1.7764    4.4562   H         1 RES1   0.0000
   256 H135      1.9102    2.7761    4.6224   H         1 RES1   0.0000
   257 H136      1.8282    0.6000    5.8665   H         1 RES1   0.0000
   258 H137      3.3168    0.9414    5.0105   H         1 RES1   0.0000
   259 H138      2.8985   -0.7825    3.3748   H         1 RES1   0.0000
   260 H139      1.2304   -0.9716    3.8885   H         1 RES1   0.0000
   261 H140      1.8585   -1.9765    5.9631   H         1 RES1   0.0000
   262 H141      3.4250   -1.2114    5.9452   H         1 RES1   0.0000
   263 H142      3.7395   -3.5092    5.8161   H         1 RES1   0.0000
   264 H143      4.2826   -2.7948    4.3062   H         1 RES1   0.0000
   265 H144      3.2775   -4.8870    3.8438   H         1 RES1   0.0000
   266 H145      2.1689   -3.6700    3.2182   H         1 RES1   0.0000
   267 H146      0.8475   -3.8988    5.3493   H         1 RES1   0.0000
   268 H147      1.8555   -5.2522    5.8118   H         1 RES1   0.0000
   269 H148      0.9713   -6.6368    4.0981   H         1 RES1   0.0000
   270 H149      0.4409   -5.2732    3.1251   H         1 RES1   0.0000
   271 H150     -0.8003   -6.2075    5.7537   H         1 RES1   0.0000
   272 H151     -1.4078   -6.5395    4.1491   H         1 RES1   0.0000
   273 H152     -2.7885   -4.8596    4.8374   H         1 RES1   0.0000
   274 H153     -1.6355   -3.9836    3.8656   H         1 RES1   0.0000
   275 H154     -0.9239   -4.2039    6.7398   H         1 RES1   0.0000
   276 H155     -2.4708   -3.4280    6.5027   H         1 RES1   0.0000
   277 H156     -1.5053   -1.4469    5.7654   H         1 RES1   0.0000
   278 H157     -0.2221   -2.2651    4.8786   H         1 RES1   0.0000
   279 H158     -0.1244   -2.0597    6.6114   H         1 RES1   0.0000
   280 H159     -0.8572    3.2735    2.7721   H         1 RES1   0.0000
   281 H160     -1.2887    1.6341    3.2252   H         1 RES1   0.0000
   282 H161     -0.7276    3.7657    0.5265   H         1 RES1   0.0000
   283 H162     -2.4898    3.9355    0.7798   H         1 RES1   0.0000
   284 H163     -2.1358    3.7307   -1.5848   H         1 RES1   0.0000
   285 H164     -2.7761    2.1431   -1.0225   H         1 RES1   0.0000
   286 H165      0.2382    1.8303   -3.2146   H         1 RES1   0.0000
   287 H166     -1.2253    2.8455   -3.3727   H         1 RES1   0.0000
   288 H167     -2.5611   -1.5636   -3.6943   H         1 RES1   0.0000
   289 H168     -3.9392   -0.8706   -4.5633   H         1 RES1   0.0000
   290 H169     -3.5042   -0.6482   -1.5473   H         1 RES1   0.0000
   291 H170     -4.3777   -1.9744   -2.3209   H         1 RES1   0.0000
   292 H171     -6.1454   -0.6695   -1.6852   H         1 RES1   0.0000
   293 H172     -5.9151   -0.0850   -3.3055   H         1 RES1   0.0000
   294 H173     -4.7363    1.9265   -2.3984   H         1 RES1   0.0000
   295 H174     -4.7572    1.1866   -0.7960   H         1 RES1   0.0000
   296 H175     -6.4805    2.6728   -0.6195   H         1 RES1   0.0000
   297 H176     -7.3639    1.2280   -1.0602   H         1 RES1   0.0000
   298 H177     -6.5357    3.3810   -3.0546   H         1 RES1   0.0000
   299 H178     -7.9999    3.4512   -2.0998   H         1 RES1   0.0000
   300 H179     -8.9482    2.5493   -3.9254   H         1 RES1   0.0000
   301 H180     -8.4535    1.0544   -3.1593   H         1 RES1   0.0000
   302 H181     -7.8313    0.7237   -5.3533   H         1 RES1   0.0000
   303 H182     -6.3044    1.2672   -4.6675   H         1 RES1   0.0000
   304 H183     -8.2390    3.0701   -6.1643   H         1 RES1   0.0000
   305 H184     -6.9301    2.1752   -6.9212   H         1 RES1   0.0000
   306 H185     -5.4040    3.4056   -5.1400   H         1 RES1   0.0000
   307 H186     -6.7506    4.5488   -5.0626   H         1 RES1   0.0000
   308 H187     -6.5731    4.8929   -7.5248   H         1 RES1   0.0000
   309 H188     -5.2547    3.7307   -7.5917   H         1 RES1   0.0000
   310 H189     -5.2262    6.3579   -6.0288   H         1 RES1   0.0000
   311 H190     -4.3560    6.0349   -7.5275   H         1 RES1   0.0000
   312 H191     -3.9095    5.1793   -6.0464   H         1 RES1   0.0000
   313 H192     -2.9469    2.5106   -4.3481   H         1 RES1   0.0000
   314 H193     -4.2907    1.3787   -4.5216   H         1 RES1   0.0000
   315 H194     -3.6167    1.8391   -6.6960   H         1 RES1   0.0000
   316 H195     -2.9741    0.2377   -6.3849   H         1 RES1   0.0000
   317 H196     -1.2731    1.3974   -7.5252   H         1 RES1   0.0000
   318 H197     -0.7406    1.3264   -5.8481   H         1 RES1   0.0000
   319 H198     -1.4774    3.6981   -5.5515   H         1 RES1   0.0000
   320 H199     -2.0239    3.7343   -7.2179   H         1 RES1   0.0000
   321 H200      0.1676    3.6794   -8.0747   H         1 RES1   0.0000
   322 H201      0.8430    2.9611   -6.6235   H         1 RES1   0.0000
   323 H202     -0.3548    5.7343   -6.5451   H         1 RES1   0.0000
   324 H203      1.2989    5.5020   -7.0833   H         1 RES1   0.0000
   325 H204      2.0430    4.7121   -4.9979   H         1 RES1   0.0000
   326 H205      0.4319    4.2535   -4.4708   H         1 RES1   0.0000
   327 H206      1.4692    7.1001   -4.7671   H         1 RES1   0.0000
   328 H207      1.3478    6.2072   -3.2568   H         1 RES1   0.0000
   329 H208     -0.9661    7.1037   -5.0298   H         1 RES1   0.0000
   330 H209     -0.4760    7.8178   -3.5051   H         1 RES1   0.0000
   331 H210     -1.0247    5.6500   -2.3528   H         1 RES1   0.0000
   332 H211     -1.6227    5.0288   -3.9051   H         1 RES1   0.0000
   333 H212     -3.2261    6.9381   -4.0311   H         1 RES1   0.0000
   334 H213     -2.7135    7.4593   -2.4340   H         1 RES1   0.0000
   335 H214     -4.0120    4.7601   -3.0648   H         1 RES1   0.0000
   336 H215     -4.8209    6.1500   -2.3572   H         1 RES1   0.0000
   337 H216     -3.5579    5.3397   -1.4482   H         1 RES1   0.0000
@<TRIPOS>BOND
     1     1    28    1
     2     1    30    1
     3     1    33    1
     4     1    36    1
     5     1   196    1
     6     1   198    1
     7     1   201    1
     8     1   204    1
     9     2     3    1
    10     2    62    1
    11     2    63    1
    12     2    64    1
    13     3     4    1
    14     3    65    1
    15     3    66    1
    16     4     5    1
    17     4    67    1
    18     4    68    1
    19     5     6    1
    20     5    69    1
    21     5    70    1
    22     6     7    1
    23     6    71    1
    24     6    72    1
    25     7     8    1
    26     7    73    1
    27     7    74    1
    28     8     9    1
    29     8    75    1
    30     8    76    1
    31     9    10    1
    32     9    77    1
    33     9    78    1
    34    10    11    1
    35    10    79    1
    36    10    80    1
    37    11    12    1
    38    11    81    1
    39    11    82    1
    40    12    13    1
    41    12    83    1
    42    12    84    1
    43    13    14    1
    44    13    85    1
    45    13    86    1
    46    14    15    1
    47    14    27    1
    48    15    16    1
    49    15    87    1
    50    15    88    1
    51    16    17    1
    52    16    89    1
    53    16    90    1
    54    17    18    1
    55    17    91    1
    56    17    92    1
    57    18    19    1
    58    18    93    1
    59    18    94    1
    60    19    20    1
    61    19    95    1
    62    19    96    1
    63    20    21    1
    64    20    97    1
    65    20    98    1
    66    21    22    1
    67    21    99    1
    68    21   100    1
    69    22    23    1
    70    22   101    1
    71    22   102    1
    72    23    24    1
    73    23   103    1
    74    23   104    1
    75    24    25    1
    76    24   105    1
    77    24   106    1
    78    25    26    1
    79    25   107    1
    80    25   108    1
    81    26   109    1
    82    26   110    1
    83    26   111    1
    84    27    28    2
    85    27    29    1
    86    29    30    1
    87    29   112    1
    88    29   113    1
    89    30    31    1
    90    31    32    1
    91    31   114    1
    92    31   115    1
    93    32    33    1
    94    32   116    1
    95    32   117    1
    96    33    34    1
    97    34    35    1
    98    34   118    1
    99    34   119    1
   100    35    36    2
   101    35    37    1
   102    37    38    1
   103    37    50    1
   104    38    39    1
   105    38   120    1
   106    38   121    1
   107    39    40    1
   108    39   122    1
   109    39   123    1
   110    40    41    1
   111    40   124    1
   112    40   125    1
   113    41    42    1
   114    41   126    1
   115    41   127    1
   116    42    43    1
   117    42   128    1
   118    42   129    1
   119    43    44    1
   120    43   130    1
   121    43   131    1
   122    44    45    1
   123    44   132    1
   124    44   133    1
   125    45    46    1
   126    45   134    1
   127    45   135    1
   128    46    47    1
   129    46   136    1
   130    46   137    1
   131    47    48    1
   132    47   138    1
   133    47   139    1
   134    48    49    1
   135    48   140    1
   136    48   141    1
   137    49   142    1
   138    49   143    1
   139    49   144    1
   140    50    51    1
   141    50   145    1
   142    50   146    1
   143    51    52    1
   144    51   147    1
   145    51   148    1
   146    52    53    1
   147    52   149    1
   148    52   150    1
   149    53    54    1
   150    53   151    1
   151    53   152    1
   152    54    55    1
   153    54   153    1
   154    54   154    1
   155    55    56    1
   156    55   155    1
   157    55   156    1
   158    56    57    1
   159    56   157    1
   160    56   158    1
   161    57    58    1
   162    57   159    1
   163    57   160    1
   164    58    59    1
   165    58   161    1
   166    58   162    1
   167    59    60    1
   168    59   163    1
   169    59   164    1
   170    60    61    1
   171    60   165    1
   172    60   166    1
   173    61   167    1
   174    61   168    1
   175    61   169    1
   176   170   171    1
   177   170   230    1
   178   170   231    1
   179   170   232    1
   180   171   172    1
   181   171   233    1
   182   171   234    1
   183   172   173    1
   184   172   235    1
   185   172   236    1
   186   173   174    1
   187   173   237    1
   188   173   238    1
   189   174   175    1
   190   174   239    1
   191   174   240    1
   192   175   176    1
   193   175   241    1
   194   175   242    1
   195   176   177    1
   196   176   243    1
   197   176   244    1
   198   177   178    1
   199   177   245    1
   200   177   246    1
   201   178   179    1
   202   178   247    1
   203   178   248    1
   204   179   180    1
   205   179   249    1
   206   179   250    1
   207   180   181    1
   208   180   251    1
   209   180   252    1
   210   181   182    1
   211   181   253    1
   212   181   254    1
   213   182   183    1
   214   182   195    1
   215   183   184    1
   216   183   255    1
   217   183   256    1
   218   184   185    1
   219   184   257    1
   220   184   258    1
   221   185   186    1
   222   185   259    1
   223   185   260    1
   224   186   187    1
   225   186   261    1
   226   186   262    1
   227   187   188    1
   228   187   263    1
   229   187   264    1
   230   188   189    1
   231   188   265    1
   232   188   266    1
   233   189   190    1
   234   189   267    1
   235   189   268    1
   236   190   191    1
   237   190   269    1
   238   190   270    1
   239   191   192    1
   240   191   271    1
   241   191   272    1
   242   192   193    1
   243   192   273    1
   244   192   274    1
   245   193   194    1
   246   193   275    1
   247   193   276    1
   248   194   277    1
   249   194   278    1
   250   194   279    1
   251   195   196    2
   252   195   197    1
   253   197   198    1
   254   197   280    1
   255   197   281    1
   256   198   199    1
   257   199   200    1
   258   199   282    1
   259   199   283    1
   260   200   201    1
   261   200   284    1
   262   200   285    1
   263   201   202    1
   264   202   203    1
   265   202   286    1
   266   202   287    1
   267   203   204    2
   268   203   205    1
   269   205   206    1
   270   205   218    1
   271   206   207    1
   272   206   288    1
   273   206   289    1
   274   207   208    1
   275   207   290    1
   276   207   291    1
   277   208   209    1
   278   208   292    1
   279   208   293    1
   280   209   210    1
   281   209   294    1
   282   209   295    1
   283   210   211    1
   284   210   296    1
   285   210   297    1
   286   211   212    1
   287   211   298    1
   288   211   299    1
   289   212   213    1
   290   212   300    1
   291   212   301    1
   292   213   214    1
   293   213   302    1
   294   213   303    1
   295   214   215    1
   296   214   304    1
   297   214   305    1
   298   215   216    1
   299   215   306    1
   300   215   307    1
   301   216   217    1
   302   216   308    1
   303   216   309    1
   304   217   310    1
   305   217   311    1
   306   217   312    1
   307   218   219    1
   308   218   313    1
   309   218   314    1
   310   219   220    1
   311   219   315    1
   312   219   316    1
   313   220   221    1
   314   220   317    1
   315   220   318    1
   316   221   222    1
   317   221   319    1
   318   221   320    1
   319   222   223    1
   320   222   321    1
   321   222   322    1
   322   223   224    1
   323   223   323    1
   324   223   324    1
   325   224   225    1
   326   224   325    1
   327   224   326    1
   328   225   226    1
   329   225   327    1
   330   225   328    1
   331   226   227    1
   332   226   329    1
   333   226   330    1
   334   227   228    1
   335   227   331    1
   336   227   332    1
   337   228   229    1
   338   228   333    1
   339   228   334    1
   340   229   335    1
   341   229   336    1
   342   229   337    1
@<TRIPOS>SUBSTRUCTURE
     1 RES1      337 GROUP             0 ****  ****    0  
