@<TRIPOS>MOLECULE
ICIGOT_geomtry_0_nunpairedes_0_charge_3 Charge: 3 Unpaired_Electrons: 4 XTB_Unpaired_Electrons: 0 XTB_Charge: 3
    93   100     1     0     0
SMALL
NoCharges
****
Generated from Architector

@<TRIPOS>ATOM
     1 Ho1      -0.1278    0.0364    0.3024   Ho        1 RES1   0.0000
     2 O1       -1.9909   -0.5135   -0.6125   O.2       1 RES1   0.0000
     3 C1       -2.1256   -0.8317   -1.8205   C.2       1 RES1   0.0000
     4 C2       -1.1654   -0.2088   -2.8526   C.3       1 RES1   0.0000
     5 O2       -0.2035    0.6318   -2.2063   O.3       1 RES1   0.0000
     6 C3       -0.3299    2.0395   -2.4651   C.3       1 RES1   0.0000
     7 C4       -0.6691    2.7712   -1.1587   C.2       1 RES1   0.0000
     8 O3       -0.7015    2.0890   -0.1026   O.2       1 RES1   0.0000
     9 N1       -0.9015    4.0609   -1.1408   N.am      1 RES1   0.0000
    10 C5       -1.2643    4.6530    0.1518   C.3       1 RES1   0.0000
    11 C6       -1.4267    6.1619    0.0501   C.3       1 RES1   0.0000
    12 C7       -2.4703    6.5351   -1.0046   C.3       1 RES1   0.0000
    13 C8       -2.2988    5.6800   -2.2694   C.3       1 RES1   0.0000
    14 C9       -0.9473    4.9622   -2.2757   C.3       1 RES1   0.0000
    15 N2       -3.0267   -1.6984   -2.2241   N.am      1 RES1   0.0000
    16 C10      -3.2901   -2.0895   -3.5985   C.3       1 RES1   0.0000
    17 C11      -4.6415   -1.5206   -4.0346   C.3       1 RES1   0.0000
    18 C12      -5.7353   -2.0464   -3.1109   C.3       1 RES1   0.0000
    19 C13      -5.4036   -1.7064   -1.6600   C.3       1 RES1   0.0000
    20 C14      -4.0160   -2.2356   -1.2930   C.3       1 RES1   0.0000
    21 H1       -1.7331    0.3524   -3.6005   H         1 RES1   0.0000
    22 H2       -0.5953   -0.9942   -3.3625   H         1 RES1   0.0000
    23 H3       -1.0973    2.2291   -3.2210   H         1 RES1   0.0000
    24 H4        0.6357    2.3887   -2.8525   H         1 RES1   0.0000
    25 H5       -0.4846    4.3859    0.8718   H         1 RES1   0.0000
    26 H6       -2.1972    4.1853    0.4843   H         1 RES1   0.0000
    27 H7       -0.4666    6.6257   -0.1826   H         1 RES1   0.0000
    28 H8       -1.7368    6.5398    1.0238   H         1 RES1   0.0000
    29 H9       -2.3699    7.5940   -1.2365   H         1 RES1   0.0000
    30 H10      -3.4694    6.3907   -0.5959   H         1 RES1   0.0000
    31 H11      -2.3662    6.2982   -3.1608   H         1 RES1   0.0000
    32 H12      -3.0885    4.9293   -2.3291   H         1 RES1   0.0000
    33 H13      -0.1340    5.6871   -2.1801   H         1 RES1   0.0000
    34 H14      -0.8078    4.4175   -3.2074   H         1 RES1   0.0000
    35 H15      -3.3447   -3.1813   -3.6242   H         1 RES1   0.0000
    36 H16      -2.4902   -1.7705   -4.2625   H         1 RES1   0.0000
    37 H17      -4.8366   -1.8223   -5.0613   H         1 RES1   0.0000
    38 H18      -4.6100   -0.4301   -3.9966   H         1 RES1   0.0000
    39 H19      -5.8316   -3.1270   -3.2280   H         1 RES1   0.0000
    40 H20      -6.6936   -1.6079   -3.3816   H         1 RES1   0.0000
    41 H21      -6.1375   -2.1569   -0.9933   H         1 RES1   0.0000
    42 H22      -5.4264   -0.6250   -1.5118   H         1 RES1   0.0000
    43 H23      -4.0076   -3.3243   -1.3793   H         1 RES1   0.0000
    44 H24      -3.7346   -1.9494   -0.2783   H         1 RES1   0.0000
    45 O4        1.6425    1.2043    1.0552   O.2       1 RES1   0.0000
    46 C15       2.8529    1.1366    0.7134   C.2       1 RES1   0.0000
    47 C16       3.2594   -0.1217   -0.0731   C.3       1 RES1   0.0000
    48 O5        2.2054   -1.0838    0.0314   O.3       1 RES1   0.0000
    49 C17       2.4207   -2.1218    1.0012   C.3       1 RES1   0.0000
    50 C18       1.1392   -2.3511    1.8142   C.2       1 RES1   0.0000
    51 O6        0.1792   -1.5514    1.6611   O.2       1 RES1   0.0000
    52 N3        1.0375   -3.3533    2.6551   N.am      1 RES1   0.0000
    53 C19      -0.1839   -3.4256    3.4669   C.3       1 RES1   0.0000
    54 C20      -0.2191   -4.6981    4.2988   C.3       1 RES1   0.0000
    55 C21       1.0104   -4.7962    5.2036   C.3       1 RES1   0.0000
    56 C22       2.2846   -4.3957    4.4451   C.3       1 RES1   0.0000
    57 C23       2.0444   -4.3574    2.9361   C.3       1 RES1   0.0000
    58 N4        3.7299    2.0785    0.9676   N.am      1 RES1   0.0000
    59 C24       5.1418    2.0510    0.6258   C.3       1 RES1   0.0000
    60 C25       5.9763    1.9851    1.9078   C.3       1 RES1   0.0000
    61 C26       5.6626    3.1935    2.7852   C.3       1 RES1   0.0000
    62 C27       4.1621    3.2550    3.0648   C.3       1 RES1   0.0000
    63 C28       3.3737    3.2557    1.7530   C.3       1 RES1   0.0000
    64 H25       4.2045   -0.5433    0.2736   H         1 RES1   0.0000
    65 H26       3.3527    0.1262   -1.1384   H         1 RES1   0.0000
    66 H27       3.2224   -1.8460    1.6944   H         1 RES1   0.0000
    67 H28       2.7032   -3.0372    0.4665   H         1 RES1   0.0000
    68 H29      -1.0437   -3.3677    2.7922   H         1 RES1   0.0000
    69 H30      -0.2138   -2.5421    4.1146   H         1 RES1   0.0000
    70 H31      -0.2851   -5.5672    3.6426   H         1 RES1   0.0000
    71 H32      -1.1227   -4.6912    4.9073   H         1 RES1   0.0000
    72 H33       1.0874   -5.8150    5.5775   H         1 RES1   0.0000
    73 H34       0.8785   -4.1455    6.0669   H         1 RES1   0.0000
    74 H35       3.0905   -5.0954    4.6506   H         1 RES1   0.0000
    75 H36       2.6210   -3.4072    4.7610   H         1 RES1   0.0000
    76 H37       1.6777   -5.3264    2.5838   H         1 RES1   0.0000
    77 H38       2.9684   -4.1248    2.4114   H         1 RES1   0.0000
    78 H39       5.3695    2.9863    0.1074   H         1 RES1   0.0000
    79 H40       5.3690    1.2276   -0.0468   H         1 RES1   0.0000
    80 H41       7.0319    1.9689    1.6418   H         1 RES1   0.0000
    81 H42       5.7497    1.0642    2.4491   H         1 RES1   0.0000
    82 H43       5.9882    4.1069    2.2847   H         1 RES1   0.0000
    83 H44       6.2089    3.1244    3.7245   H         1 RES1   0.0000
    84 H45       3.9185    4.1588    3.6222   H         1 RES1   0.0000
    85 H46       3.8590    2.3953    3.6663   H         1 RES1   0.0000
    86 H47       3.6394    4.1402    1.1680   H         1 RES1   0.0000
    87 H48       2.2970    3.2448    1.9306   H         1 RES1   0.0000
    88 O7       -1.4125    0.4979    2.3866   O.3       1 RES1   0.0000
    89 H49      -1.0995    0.9966    3.1587   H         1 RES1   0.0000
    90 H50      -2.3120    0.2122    2.6218   H         1 RES1   0.0000
    91 O8        0.0293   -2.3502   -1.0408   O.3       1 RES1   0.0000
    92 H51       0.6917   -2.7044   -1.6481   H         1 RES1   0.0000
    93 H52      -0.4857   -3.1117   -0.7425   H         1 RES1   0.0000
@<TRIPOS>BOND
     1     1     2    1
     2     1     5    1
     3     1     8    1
     4     1    45    1
     5     1    48    1
     6     1    51    1
     7     1    88    1
     8     1    91    1
     9     2     3    2
    10     3     4    1
    11     3    15    1
    12     4     5    1
    13     4    21    1
    14     4    22    1
    15     5     6    1
    16     6     7    1
    17     6    23    1
    18     6    24    1
    19     7     8    2
    20     7     9    1
    21     9    10    1
    22     9    14    1
    23    10    11    1
    24    10    25    1
    25    10    26    1
    26    11    12    1
    27    11    27    1
    28    11    28    1
    29    12    13    1
    30    12    29    1
    31    12    30    1
    32    13    14    1
    33    13    31    1
    34    13    32    1
    35    14    33    1
    36    14    34    1
    37    15    16    1
    38    15    20    1
    39    16    17    1
    40    16    35    1
    41    16    36    1
    42    17    18    1
    43    17    37    1
    44    17    38    1
    45    18    19    1
    46    18    39    1
    47    18    40    1
    48    19    20    1
    49    19    41    1
    50    19    42    1
    51    20    43    1
    52    20    44    1
    53    45    46    2
    54    46    47    1
    55    46    58    1
    56    47    48    1
    57    47    64    1
    58    47    65    1
    59    48    49    1
    60    49    50    1
    61    49    66    1
    62    49    67    1
    63    50    51    2
    64    50    52    1
    65    52    53    1
    66    52    57    1
    67    53    54    1
    68    53    68    1
    69    53    69    1
    70    54    55    1
    71    54    70    1
    72    54    71    1
    73    55    56    1
    74    55    72    1
    75    55    73    1
    76    56    57    1
    77    56    74    1
    78    56    75    1
    79    57    76    1
    80    57    77    1
    81    58    59    1
    82    58    63    1
    83    59    60    1
    84    59    78    1
    85    59    79    1
    86    60    61    1
    87    60    80    1
    88    60    81    1
    89    61    62    1
    90    61    82    1
    91    61    83    1
    92    62    63    1
    93    62    84    1
    94    62    85    1
    95    63    86    1
    96    63    87    1
    97    88    89    1
    98    88    90    1
    99    91    92    1
   100    91    93    1
@<TRIPOS>SUBSTRUCTURE
     1 RES1       93 GROUP             0 ****  ****    0  
