@<TRIPOS>MOLECULE
hexagonal_bipyramidal_0_nunpairedes_0_charge_3 Charge: 3 Unpaired_Electrons: 4 XTB_Unpaired_Electrons: 0 XTB_Charge: 3
    79    91     1     0     0
SMALL
NoCharges
****
Generated from Architector

@<TRIPOS>ATOM
     1 Ho1      -0.3904   -1.4946    0.9214   Ho        1 RES1   0.0000
     2 C1        0.7572   -2.0107   -1.9628   C.3       1 RES1   0.0000
     3 C2        2.0346   -2.8860   -1.7722   C.3       1 RES1   0.0000
     4 C3        3.2398   -2.2583   -2.4741   C.3       1 RES1   0.0000
     5 C4        1.8362   -4.3480   -2.2291   C.3       1 RES1   0.0000
     6 C5        0.7022   -5.0786   -1.5168   C.3       1 RES1   0.0000
     7 C6        0.7863   -5.0343    0.0235   C.3       1 RES1   0.0000
     8 C7       -0.6070   -5.2710    0.6164   C.3       1 RES1   0.0000
     9 C8        1.7865   -6.0945    0.5460   C.3       1 RES1   0.0000
    10 C9        1.3195   -3.7164    0.4919   C.ar      1 RES1   0.0000
    11 N1        1.0371   -3.2053    1.7097   N.ar      1 RES1   0.0000
    12 C10       1.9724   -2.3934    2.2651   C.ar      1 RES1   0.0000
    13 C11       1.5709   -1.6177    3.4721   C.ar      1 RES1   0.0000
    14 C12       2.1110   -1.6572    4.7501   C.ar      1 RES1   0.0000
    15 C13       1.6350   -0.7226    5.6642   C.ar      1 RES1   0.0000
    16 C14       0.7010    0.2314    5.2790   C.ar      1 RES1   0.0000
    17 C15       0.2098    0.2091    3.9766   C.ar      1 RES1   0.0000
    18 C16      -0.8583    1.0743    3.4171   C.ar      1 RES1   0.0000
    19 C17      -1.4143    2.2245    3.9796   C.ar      1 RES1   0.0000
    20 C18      -2.5419    2.7808    3.3861   C.ar      1 RES1   0.0000
    21 C19      -3.1270    2.1772    2.2744   C.ar      1 RES1   0.0000
    22 C20      -2.4958    1.0574    1.7576   C.ar      1 RES1   0.0000
    23 C21      -3.0303    0.0001    0.8579   C.ar      1 RES1   0.0000
    24 N2       -2.1485   -0.5892    0.0421   N.ar      1 RES1   0.0000
    25 N3       -2.5017   -1.7541   -0.5568   N.ar      1 RES1   0.0000
    26 C22      -3.6632   -2.3194   -0.2775   C.ar      1 RES1   0.0000
    27 C23      -4.2665   -1.8872    0.9592   C.ar      1 RES1   0.0000
    28 N4       -4.0427   -0.6740    1.3794   N.ar      1 RES1   0.0000
    29 C24      -4.6925   -2.9597    1.9149   C.3       1 RES1   0.0000
    30 C25      -3.3068   -3.4796    2.4256   C.3       1 RES1   0.0000
    31 C26      -5.5152   -2.4119    3.0769   C.3       1 RES1   0.0000
    32 C27      -5.4871   -4.0418    1.1631   C.3       1 RES1   0.0000
    33 C28      -4.8568   -4.5027   -0.1478   C.3       1 RES1   0.0000
    34 C29      -4.3171   -3.3860   -1.0638   C.3       1 RES1   0.0000
    35 C30      -3.4308   -4.0049   -2.1438   C.3       1 RES1   0.0000
    36 C31      -5.4952   -2.5719   -1.6613   C.3       1 RES1   0.0000
    37 N5       -1.3729    0.5478    2.2904   N.ar      1 RES1   0.0000
    38 N6        0.6264   -0.7366    3.1048   N.ar      1 RES1   0.0000
    39 N7        3.0976   -2.0636    1.6539   N.ar      1 RES1   0.0000
    40 N8        3.1003   -2.1809    0.3643   N.ar      1 RES1   0.0000
    41 C32       2.2290   -2.9218   -0.2748   C.ar      1 RES1   0.0000
    42 H1        0.5730   -1.8449   -3.0276   H         1 RES1   0.0000
    43 H2        0.9325   -1.0002   -1.5169   H         1 RES1   0.0000
    44 H3       -0.1567   -2.5214   -1.5685   H         1 RES1   0.0000
    45 H4        3.1337   -2.3191   -3.5568   H         1 RES1   0.0000
    46 H5        4.1414   -2.7936   -2.1880   H         1 RES1   0.0000
    47 H6        3.3698   -1.2173   -2.1873   H         1 RES1   0.0000
    48 H7        2.7702   -4.8788   -2.0436   H         1 RES1   0.0000
    49 H8        1.6513   -4.3762   -3.3039   H         1 RES1   0.0000
    50 H9        0.7087   -6.1264   -1.8228   H         1 RES1   0.0000
    51 H10      -0.2571   -4.6691   -1.8372   H         1 RES1   0.0000
    52 H11      -1.0312   -6.1741    0.1804   H         1 RES1   0.0000
    53 H12      -1.2622   -4.4039    0.3837   H         1 RES1   0.0000
    54 H13      -0.5539   -5.4197    1.6933   H         1 RES1   0.0000
    55 H14       1.4368   -7.0804    0.2451   H         1 RES1   0.0000
    56 H15       1.8417   -6.0768    1.6309   H         1 RES1   0.0000
    57 H16       2.7844   -5.9336    0.1437   H         1 RES1   0.0000
    58 H17       2.8724   -2.3681    5.0382   H         1 RES1   0.0000
    59 H18       1.9922   -0.7417    6.6822   H         1 RES1   0.0000
    60 H19       0.3922    0.9769    5.9923   H         1 RES1   0.0000
    61 H20      -1.0130    2.6820    4.8708   H         1 RES1   0.0000
    62 H21      -2.9973    3.6616    3.8204   H         1 RES1   0.0000
    63 H22      -4.0366    2.5585    1.8370   H         1 RES1   0.0000
    64 H23      -2.4855   -2.7094    2.3290   H         1 RES1   0.0000
    65 H24      -3.0084   -4.3681    1.8762   H         1 RES1   0.0000
    66 H25      -3.3818   -3.7237    3.4804   H         1 RES1   0.0000
    67 H26      -4.9478   -1.7069    3.6783   H         1 RES1   0.0000
    68 H27      -5.8440   -3.2356    3.7029   H         1 RES1   0.0000
    69 H28      -6.3933   -1.8954    2.7033   H         1 RES1   0.0000
    70 H29      -6.4851   -3.6421    0.9815   H         1 RES1   0.0000
    71 H30      -5.6215   -4.9034    1.8166   H         1 RES1   0.0000
    72 H31      -5.6102   -5.0513   -0.7101   H         1 RES1   0.0000
    73 H32      -4.0408   -5.1964    0.0548   H         1 RES1   0.0000
    74 H33      -2.6632   -4.6192   -1.6751   H         1 RES1   0.0000
    75 H34      -2.9526   -3.2496   -2.7606   H         1 RES1   0.0000
    76 H35      -4.0240   -4.6532   -2.7838   H         1 RES1   0.0000
    77 H36      -6.1421   -2.1885   -0.8725   H         1 RES1   0.0000
    78 H37      -6.0941   -3.2101   -2.3084   H         1 RES1   0.0000
    79 H38      -5.1369   -1.7270   -2.2481   H         1 RES1   0.0000
@<TRIPOS>BOND
     1     1    11    1
     2     1    24    1
     3     1    25    1
     4     1    28    1
     5     1    37    1
     6     1    38    1
     7     1    39    1
     8     1    40    1
     9     2     3    1
    10     2    42    1
    11     2    43    1
    12     2    44    1
    13     3     4    1
    14     3     5    1
    15     3    41    1
    16     4    45    1
    17     4    46    1
    18     4    47    1
    19     5     6    1
    20     5    48    1
    21     5    49    1
    22     6     7    1
    23     6    50    1
    24     6    51    1
    25     7     8    1
    26     7     9    1
    27     7    10    1
    28     8    52    1
    29     8    53    1
    30     8    54    1
    31     9    55    1
    32     9    56    1
    33     9    57    1
    34    10    11    1
    35    10    41    2
    36    11    12    2
    37    12    13    1
    38    12    39    1
    39    13    14    1
    40    13    38    2
    41    14    15    2
    42    14    58    1
    43    15    16    1
    44    15    59    1
    45    16    17    2
    46    16    60    1
    47    17    18    1
    48    17    38    1
    49    18    19    1
    50    18    37    2
    51    19    20    2
    52    19    61    1
    53    20    21    1
    54    20    62    1
    55    21    22    2
    56    21    63    1
    57    22    23    1
    58    22    37    1
    59    23    24    1
    60    23    28    2
    61    24    25    2
    62    25    26    1
    63    26    27    2
    64    26    34    1
    65    27    28    1
    66    27    29    1
    67    29    30    1
    68    29    31    1
    69    29    32    1
    70    30    64    1
    71    30    65    1
    72    30    66    1
    73    31    67    1
    74    31    68    1
    75    31    69    1
    76    32    33    1
    77    32    70    1
    78    32    71    1
    79    33    34    1
    80    33    72    1
    81    33    73    1
    82    34    35    1
    83    34    36    1
    84    35    74    1
    85    35    75    1
    86    35    76    1
    87    36    77    1
    88    36    78    1
    89    36    79    1
    90    39    40    2
    91    40    41    1
@<TRIPOS>SUBSTRUCTURE
     1 RES1       79 GROUP             0 ****  ****    0  
