@<TRIPOS>MOLECULE
ICIGOT_geomtry_0_nunpairedes_0_charge_3 Charge: 3 Unpaired_Electrons: 4 XTB_Unpaired_Electrons: 0 XTB_Charge: 3
    61    66     1     0     0
SMALL
NoCharges
****
Generated from Architector

@<TRIPOS>ATOM
     1 Ho1      -0.4553    0.1642    0.0443   Ho        1 RES1   0.0000
     2 C1       -1.9071   -1.3520   -2.4369   C.3       1 RES1   0.0000
     3 O1       -0.9994   -1.7012   -1.3567   O.3       1 RES1   0.0000
     4 C2       -1.3548   -2.9966   -0.8174   C.3       1 RES1   0.0000
     5 C3       -0.2510   -3.6229    0.0479   C.3       1 RES1   0.0000
     6 N1        0.4278   -2.7697    1.0391   N.am      1 RES1   0.0000
     7 C4        1.8707   -2.9404    1.0688   C.3       1 RES1   0.0000
     8 C5        2.4631   -2.2827   -0.1867   C.3       1 RES1   0.0000
     9 O2        1.8547   -0.9960   -0.4401   O.3       1 RES1   0.0000
    10 C6        2.5912   -0.3982   -1.5200   C.3       1 RES1   0.0000
    11 C7       -0.1977   -1.7953    1.6960   C.2       1 RES1   0.0000
    12 O3       -1.3167   -1.3674    1.3435   O.2       1 RES1   0.0000
    13 C8        0.4618   -0.9846    2.8185   C.3       1 RES1   0.0000
    14 O4        0.7419    0.2696    2.1762   O.3       1 RES1   0.0000
    15 C9        0.3547    1.5062    2.8098   C.3       1 RES1   0.0000
    16 C10      -0.3288    2.2572    1.6638   C.2       1 RES1   0.0000
    17 O5       -1.3430    1.6712    1.2181   O.2       1 RES1   0.0000
    18 N2        0.1236    3.3578    1.0779   N.am      1 RES1   0.0000
    19 C11      -0.6676    3.8845   -0.0407   C.3       1 RES1   0.0000
    20 C12      -0.2725    3.3920   -1.4395   C.3       1 RES1   0.0000
    21 O6       -0.2651    1.9471   -1.5472   O.3       1 RES1   0.0000
    22 C13       0.0704    1.5812   -2.9026   C.3       1 RES1   0.0000
    23 C14       1.4571    3.8871    1.3039   C.3       1 RES1   0.0000
    24 C15       2.4764    3.0698    0.4813   C.3       1 RES1   0.0000
    25 O7        2.2891    1.6657    0.6445   O.3       1 RES1   0.0000
    26 C16       3.3649    1.0526    1.3729   C.3       1 RES1   0.0000
    27 H1       -1.5184   -1.7212   -3.3887   H         1 RES1   0.0000
    28 H2       -2.0091   -0.2630   -2.4601   H         1 RES1   0.0000
    29 H3       -2.8963   -1.7846   -2.2726   H         1 RES1   0.0000
    30 H4       -1.5282   -3.6811   -1.6566   H         1 RES1   0.0000
    31 H5       -2.2800   -2.9042   -0.2369   H         1 RES1   0.0000
    32 H6        0.5227   -4.0403   -0.6006   H         1 RES1   0.0000
    33 H7       -0.7136   -4.4588    0.5887   H         1 RES1   0.0000
    34 H8        2.1367   -4.0016    1.0936   H         1 RES1   0.0000
    35 H9        2.2849   -2.4824    1.9637   H         1 RES1   0.0000
    36 H10       2.3244   -2.9008   -1.0802   H         1 RES1   0.0000
    37 H11       3.5428   -2.1546   -0.0477   H         1 RES1   0.0000
    38 H12       3.6539   -0.3619   -1.2695   H         1 RES1   0.0000
    39 H13       2.2358    0.6220   -1.6512   H         1 RES1   0.0000
    40 H14       2.4755   -0.9915   -2.4315   H         1 RES1   0.0000
    41 H15       1.3712   -1.4101    3.2505   H         1 RES1   0.0000
    42 H16      -0.2898   -0.8828    3.6061   H         1 RES1   0.0000
    43 H17       1.2262    1.9853    3.2602   H         1 RES1   0.0000
    44 H18      -0.4064    1.3118    3.5734   H         1 RES1   0.0000
    45 H19      -0.5883    4.9764   -0.0415   H         1 RES1   0.0000
    46 H20      -1.7154    3.6091    0.1359   H         1 RES1   0.0000
    47 H21       0.7142    3.7595   -1.7411   H         1 RES1   0.0000
    48 H22      -1.0063    3.7992   -2.1469   H         1 RES1   0.0000
    49 H23      -0.7516    1.8143   -3.5841   H         1 RES1   0.0000
    50 H24       0.2882    0.5099   -2.9214   H         1 RES1   0.0000
    51 H25       0.9495    2.1338   -3.2454   H         1 RES1   0.0000
    52 H26       1.7051    3.8491    2.3651   H         1 RES1   0.0000
    53 H27       1.4954    4.9310    0.9912   H         1 RES1   0.0000
    54 H28       3.4777    3.3736    0.7895   H         1 RES1   0.0000
    55 H29       2.3746    3.2916   -0.5837   H         1 RES1   0.0000
    56 H30       4.3207    1.2642    0.8912   H         1 RES1   0.0000
    57 H31       3.1680   -0.0152    1.3657   H         1 RES1   0.0000
    58 H32       3.4153    1.4086    2.4039   H         1 RES1   0.0000
    59 O8       -3.0152    0.1923   -0.1982   O.3       1 RES1   0.0000
    60 H33      -3.5387    0.9693    0.0650   H         1 RES1   0.0000
    61 H34      -3.5413   -0.5553    0.1358   H         1 RES1   0.0000
@<TRIPOS>BOND
     1     1     3    1
     2     1     9    1
     3     1    12    1
     4     1    14    1
     5     1    17    1
     6     1    21    1
     7     1    25    1
     8     1    59    1
     9     2     3    1
    10     2    27    1
    11     2    28    1
    12     2    29    1
    13     3     4    1
    14     4     5    1
    15     4    30    1
    16     4    31    1
    17     5     6    1
    18     5    32    1
    19     5    33    1
    20     6     7    1
    21     6    11    1
    22     7     8    1
    23     7    34    1
    24     7    35    1
    25     8     9    1
    26     8    36    1
    27     8    37    1
    28     9    10    1
    29    10    38    1
    30    10    39    1
    31    10    40    1
    32    11    12    2
    33    11    13    1
    34    13    14    1
    35    13    41    1
    36    13    42    1
    37    14    15    1
    38    15    16    1
    39    15    43    1
    40    15    44    1
    41    16    17    2
    42    16    18    1
    43    18    19    1
    44    18    23    1
    45    19    20    1
    46    19    45    1
    47    19    46    1
    48    20    21    1
    49    20    47    1
    50    20    48    1
    51    21    22    1
    52    22    49    1
    53    22    50    1
    54    22    51    1
    55    23    24    1
    56    23    52    1
    57    23    53    1
    58    24    25    1
    59    24    54    1
    60    24    55    1
    61    25    26    1
    62    26    56    1
    63    26    57    1
    64    26    58    1
    65    59    60    1
    66    59    61    1
@<TRIPOS>SUBSTRUCTURE
     1 RES1       61 GROUP             0 ****  ****    0  
