@<TRIPOS>MOLECULE
ICIGOT_geomtry_0_nunpairedes_0_charge_3 Charge: 3 Unpaired_Electrons: 4 XTB_Unpaired_Electrons: 0 XTB_Charge: 3
   233   236     1     0     0
SMALL
NoCharges
****
Generated from Architector

@<TRIPOS>ATOM
     1 Ho1      -0.0123   -0.3334   -0.0347   Ho        1 RES1   0.0000
     2 C1        3.0690   -3.8128   -4.5059   C.3       1 RES1   0.0000
     3 C2        1.6136   -3.3800   -4.6353   C.3       1 RES1   0.0000
     4 C3        0.6685   -4.2194   -3.7724   C.3       1 RES1   0.0000
     5 C4       -0.7864   -3.7403   -3.8596   C.3       1 RES1   0.0000
     6 C5       -1.5989   -4.0645   -2.6002   C.3       1 RES1   0.0000
     7 C6       -2.8523   -3.1944   -2.4460   C.3       1 RES1   0.0000
     8 C7       -3.4010   -3.2601   -1.0178   C.3       1 RES1   0.0000
     9 C8       -4.5399   -2.2867   -0.7193   C.3       1 RES1   0.0000
    10 N1       -4.2836   -0.8578   -0.9384   N.am      1 RES1   0.0000
    11 C9       -5.5104   -0.0675   -1.0662   C.3       1 RES1   0.0000
    12 C10      -6.3142   -0.2429   -2.3567   C.3       1 RES1   0.0000
    13 C11      -5.7385    0.4935   -3.5661   C.3       1 RES1   0.0000
    14 C12      -4.5096   -0.1805   -4.1779   C.3       1 RES1   0.0000
    15 C13      -3.8832    0.7045   -5.2516   C.3       1 RES1   0.0000
    16 C14      -2.6257    0.0964   -5.8631   C.3       1 RES1   0.0000
    17 C15      -1.9455    1.0348   -6.8624   C.3       1 RES1   0.0000
    18 C16      -2.8087    1.3353   -8.0822   C.3       1 RES1   0.0000
    19 C17      -3.1107   -0.3007   -0.7115   C.2       1 RES1   0.0000
    20 O1       -2.1439   -0.8804   -0.1579   O.2       1 RES1   0.0000
    21 C18      -2.8431    1.1381   -1.2108   C.3       1 RES1   0.0000
    22 O2       -1.4269    1.1709   -1.3882   O.3       1 RES1   0.0000
    23 C19      -0.8821    2.4139   -1.8321   C.3       1 RES1   0.0000
    24 C20       0.5443    2.0401   -2.2804   C.2       1 RES1   0.0000
    25 O3        1.0722    1.0570   -1.7102   O.2       1 RES1   0.0000
    26 N2        1.1063    2.6726   -3.2968   N.am      1 RES1   0.0000
    27 C21       0.6538    3.9932   -3.7138   C.3       1 RES1   0.0000
    28 C22       0.9930    5.0782   -2.6738   C.3       1 RES1   0.0000
    29 C23      -0.0758    6.1634   -2.5485   C.3       1 RES1   0.0000
    30 C24       0.3855    7.2290   -1.5481   C.3       1 RES1   0.0000
    31 C25      -0.7429    8.1191   -1.0272   C.3       1 RES1   0.0000
    32 C26      -1.7509    7.4130   -0.1175   C.3       1 RES1   0.0000
    33 C27      -1.1175    6.8315    1.1468   C.3       1 RES1   0.0000
    34 C28      -2.1633    6.2552    2.0932   C.3       1 RES1   0.0000
    35 C29       2.1859    2.0194   -4.0460   C.3       1 RES1   0.0000
    36 C30       3.5751    1.9030   -3.4075   C.3       1 RES1   0.0000
    37 C31       4.3427    3.2206   -3.2168   C.3       1 RES1   0.0000
    38 C32       4.2198    3.7846   -1.7977   C.3       1 RES1   0.0000
    39 C33       5.1901    3.1291   -0.8137   C.3       1 RES1   0.0000
    40 C34       4.9461    3.6179    0.6112   C.3       1 RES1   0.0000
    41 C35       5.9055    3.0047    1.6294   C.3       1 RES1   0.0000
    42 C36       5.6036    3.4567    3.0536   C.3       1 RES1   0.0000
    43 H1        3.7039   -3.2044   -5.1440   H         1 RES1   0.0000
    44 H2        3.1835   -4.8504   -4.8019   H         1 RES1   0.0000
    45 H3        3.4218   -3.7091   -3.4831   H         1 RES1   0.0000
    46 H4        1.3102   -3.4610   -5.6787   H         1 RES1   0.0000
    47 H5        1.5356   -2.3182   -4.3605   H         1 RES1   0.0000
    48 H6        1.0043   -4.1943   -2.7349   H         1 RES1   0.0000
    49 H7        0.7311   -5.2569   -4.0971   H         1 RES1   0.0000
    50 H8       -1.2635   -4.1858   -4.7286   H         1 RES1   0.0000
    51 H9       -0.8002   -2.6606   -4.0298   H         1 RES1   0.0000
    52 H10      -0.9712   -3.9095   -1.7188   H         1 RES1   0.0000
    53 H11      -1.8870   -5.1157   -2.6169   H         1 RES1   0.0000
    54 H12      -3.6127   -3.5176   -3.1573   H         1 RES1   0.0000
    55 H13      -2.5935   -2.1588   -2.6865   H         1 RES1   0.0000
    56 H14      -2.5828   -3.0989   -0.3132   H         1 RES1   0.0000
    57 H15      -3.8001   -4.2610   -0.8421   H         1 RES1   0.0000
    58 H16      -4.8616   -2.4150    0.3190   H         1 RES1   0.0000
    59 H17      -5.3799   -2.5353   -1.3674   H         1 RES1   0.0000
    60 H18      -5.2757    0.9909   -0.9414   H         1 RES1   0.0000
    61 H19      -6.1374   -0.3749   -0.2200   H         1 RES1   0.0000
    62 H20      -7.3047    0.1657   -2.1462   H         1 RES1   0.0000
    63 H21      -6.4343   -1.2996   -2.5953   H         1 RES1   0.0000
    64 H22      -5.5076    1.5264   -3.2862   H         1 RES1   0.0000
    65 H23      -6.5137    0.5401   -4.3310   H         1 RES1   0.0000
    66 H24      -4.8079   -1.1319   -4.6207   H         1 RES1   0.0000
    67 H25      -3.7694   -0.4066   -3.4059   H         1 RES1   0.0000
    68 H26      -3.6459    1.6842   -4.8254   H         1 RES1   0.0000
    69 H27      -4.6209    0.8656   -6.0340   H         1 RES1   0.0000
    70 H28      -2.8853   -0.8359   -6.3659   H         1 RES1   0.0000
    71 H29      -1.9138   -0.1467   -5.0631   H         1 RES1   0.0000
    72 H30      -1.0154    0.5707   -7.1986   H         1 RES1   0.0000
    73 H31      -1.6858    1.9748   -6.3632   H         1 RES1   0.0000
    74 H32      -3.1075    0.4131   -8.5719   H         1 RES1   0.0000
    75 H33      -2.2508    1.9349   -8.7963   H         1 RES1   0.0000
    76 H34      -3.7027    1.8874   -7.8077   H         1 RES1   0.0000
    77 H35      -3.1452    1.9008   -0.4818   H         1 RES1   0.0000
    78 H36      -3.3510    1.3238   -2.1639   H         1 RES1   0.0000
    79 H37      -0.8923    3.1420   -1.0090   H         1 RES1   0.0000
    80 H38      -1.4639    2.8119   -2.6697   H         1 RES1   0.0000
    81 H39      -0.4250    3.9717   -3.8974   H         1 RES1   0.0000
    82 H40       1.1472    4.2263   -4.6548   H         1 RES1   0.0000
    83 H41       1.9379    5.5500   -2.9425   H         1 RES1   0.0000
    84 H42       1.1300    4.6144   -1.6927   H         1 RES1   0.0000
    85 H43      -1.0114    5.7069   -2.2194   H         1 RES1   0.0000
    86 H44      -0.2569    6.6280   -3.5184   H         1 RES1   0.0000
    87 H45       1.1337    7.8549   -2.0367   H         1 RES1   0.0000
    88 H46       0.8767    6.7400   -0.7036   H         1 RES1   0.0000
    89 H47      -1.2703    8.5547   -1.8757   H         1 RES1   0.0000
    90 H48      -0.2925    8.9368   -0.4649   H         1 RES1   0.0000
    91 H49      -2.2776    6.6239   -0.6615   H         1 RES1   0.0000
    92 H50      -2.5012    8.1451    0.1809   H         1 RES1   0.0000
    93 H51      -0.5641    7.6191    1.6595   H         1 RES1   0.0000
    94 H52      -0.4042    6.0443    0.8828   H         1 RES1   0.0000
    95 H53      -2.8688    7.0235    2.3923   H         1 RES1   0.0000
    96 H54      -1.6968    5.8619    2.9940   H         1 RES1   0.0000
    97 H55      -2.7194    5.4597    1.6053   H         1 RES1   0.0000
    98 H56       2.2759    2.5688   -4.9810   H         1 RES1   0.0000
    99 H57       1.8321    1.0053   -4.2674   H         1 RES1   0.0000
   100 H58       4.1417    1.2658   -4.0891   H         1 RES1   0.0000
   101 H59       3.4854    1.3795   -2.4548   H         1 RES1   0.0000
   102 H60       3.9957    3.9573   -3.9435   H         1 RES1   0.0000
   103 H61       5.4012    3.0445   -3.4188   H         1 RES1   0.0000
   104 H62       3.1949    3.6490   -1.4410   H         1 RES1   0.0000
   105 H63       4.4206    4.8559   -1.8047   H         1 RES1   0.0000
   106 H64       6.2139    3.3660   -1.1026   H         1 RES1   0.0000
   107 H65       5.0861    2.0413   -0.8615   H         1 RES1   0.0000
   108 H66       3.9115    3.4045    0.8985   H         1 RES1   0.0000
   109 H67       5.0679    4.6999    0.6298   H         1 RES1   0.0000
   110 H68       6.9247    3.2962    1.3762   H         1 RES1   0.0000
   111 H69       5.8630    1.9115    1.5784   H         1 RES1   0.0000
   112 H70       5.7042    4.5348    3.1380   H         1 RES1   0.0000
   113 H71       6.3014    3.0015    3.7508   H         1 RES1   0.0000
   114 H72       4.5906    3.1815    3.3469   H         1 RES1   0.0000
   115 C37      -3.4339   -6.4710    2.0419   C.3       1 RES1   0.0000
   116 C38      -1.9882   -6.1928    2.4353   C.3       1 RES1   0.0000
   117 C39      -1.1841   -5.6998    1.2365   C.3       1 RES1   0.0000
   118 C40       0.2412   -5.2747    1.5777   C.3       1 RES1   0.0000
   119 C41       0.9401   -4.7157    0.3400   C.3       1 RES1   0.0000
   120 C42       2.3316   -4.1461    0.6110   C.3       1 RES1   0.0000
   121 C43       2.9711   -3.6690   -0.6977   C.3       1 RES1   0.0000
   122 C44       4.2314   -2.8250   -0.5448   C.3       1 RES1   0.0000
   123 N3        4.1276   -1.4683    0.0184   N.am      1 RES1   0.0000
   124 C45       5.4405   -0.8588    0.2139   C.3       1 RES1   0.0000
   125 C46       6.3235   -1.5294    1.2765   C.3       1 RES1   0.0000
   126 C47       5.7756   -1.5207    2.7082   C.3       1 RES1   0.0000
   127 C48       4.5471   -2.4094    2.9060   C.3       1 RES1   0.0000
   128 C49       4.0959   -2.5271    4.3589   C.3       1 RES1   0.0000
   129 C50       2.8145   -3.3545    4.4413   C.3       1 RES1   0.0000
   130 C51       2.2454   -3.4719    5.8543   C.3       1 RES1   0.0000
   131 C52       3.1528   -4.2529    6.7969   C.3       1 RES1   0.0000
   132 C53       2.9936   -0.8405    0.2518   C.2       1 RES1   0.0000
   133 O4        1.8594   -1.3160    0.0008   O.2       1 RES1   0.0000
   134 C54       2.9775    0.5858    0.8353   C.3       1 RES1   0.0000
   135 O5        1.6648    0.8971    1.3167   O.3       1 RES1   0.0000
   136 C55       1.4916    0.7662    2.7317   C.3       1 RES1   0.0000
   137 C56       0.3528   -0.2156    3.0491   C.2       1 RES1   0.0000
   138 O6       -0.0743   -0.9445    2.1232   O.2       1 RES1   0.0000
   139 N4       -0.1228   -0.2526    4.2814   N.am      1 RES1   0.0000
   140 C57       0.4506    0.5641    5.3463   C.3       1 RES1   0.0000
   141 C58      -0.1258    1.9875    5.3725   C.3       1 RES1   0.0000
   142 C59       0.8642    3.0443    5.8585   C.3       1 RES1   0.0000
   143 C60       0.2124    4.4264    5.7647   C.3       1 RES1   0.0000
   144 C61       1.1973    5.5847    5.9147   C.3       1 RES1   0.0000
   145 C62       2.2448    5.6887    4.8044   C.3       1 RES1   0.0000
   146 C63       1.6456    5.8439    3.4065   C.3       1 RES1   0.0000
   147 C64       2.7287    6.0625    2.3580   C.3       1 RES1   0.0000
   148 C65      -1.1482   -1.2530    4.5940   C.3       1 RES1   0.0000
   149 C66      -2.5691   -0.9983    4.0594   C.3       1 RES1   0.0000
   150 C67      -3.3793    0.1077    4.7612   C.3       1 RES1   0.0000
   151 C68      -3.3497    1.4811    4.0771   C.3       1 RES1   0.0000
   152 C69      -4.3184    1.6172    2.8969   C.3       1 RES1   0.0000
   153 C70      -4.2357    3.0066    2.2603   C.3       1 RES1   0.0000
   154 C71      -5.3360    3.2530    1.2283   C.3       1 RES1   0.0000
   155 C72      -5.1478    4.5653    0.4752   C.3       1 RES1   0.0000
   156 H73      -4.0015   -6.8282    2.8950   H         1 RES1   0.0000
   157 H74      -3.4779   -7.2288    1.2650   H         1 RES1   0.0000
   158 H75      -3.9114   -5.5675    1.6671   H         1 RES1   0.0000
   159 H76      -1.5398   -7.1049    2.8277   H         1 RES1   0.0000
   160 H77      -1.9627   -5.4445    3.2315   H         1 RES1   0.0000
   161 H78      -1.7039   -4.8473    0.7949   H         1 RES1   0.0000
   162 H79      -1.1508   -6.4893    0.4848   H         1 RES1   0.0000
   163 H80       0.7987   -6.1285    1.9601   H         1 RES1   0.0000
   164 H81       0.2242   -4.5127    2.3596   H         1 RES1   0.0000
   165 H82       0.3295   -3.8926   -0.0675   H         1 RES1   0.0000
   166 H83       1.0085   -5.5042   -0.4141   H         1 RES1   0.0000
   167 H84       2.9636   -4.9050    1.0720   H         1 RES1   0.0000
   168 H85       2.2243   -3.3201    1.3153   H         1 RES1   0.0000
   169 H86       2.2312   -3.1256   -1.2870   H         1 RES1   0.0000
   170 H87       3.2671   -4.5549   -1.2673   H         1 RES1   0.0000
   171 H88       4.6952   -2.7097   -1.5310   H         1 RES1   0.0000
   172 H89       4.9229   -3.3803    0.0902   H         1 RES1   0.0000
   173 H90       5.3312    0.1984    0.4516   H         1 RES1   0.0000
   174 H91       5.9558   -0.9181   -0.7506   H         1 RES1   0.0000
   175 H92       7.2700   -0.9846    1.2622   H         1 RES1   0.0000
   176 H93       6.5519   -2.5536    0.9817   H         1 RES1   0.0000
   177 H94       5.5620   -0.4935    3.0187   H         1 RES1   0.0000
   178 H95       6.5734   -1.8905    3.3530   H         1 RES1   0.0000
   179 H96       4.7738   -3.4122    2.5376   H         1 RES1   0.0000
   180 H97       3.7067   -2.0251    2.3249   H         1 RES1   0.0000
   181 H98       3.9324   -1.5333    4.7844   H         1 RES1   0.0000
   182 H99       4.8813   -3.0029    4.9408   H         1 RES1   0.0000
   183 H100      3.0149   -4.3562    4.0573   H         1 RES1   0.0000
   184 H101      2.0560   -2.9023    3.7908   H         1 RES1   0.0000
   185 H102      1.2814   -3.9833    5.7946   H         1 RES1   0.0000
   186 H103      2.0686   -2.4716    6.2628   H         1 RES1   0.0000
   187 H104      3.3585   -5.2410    6.3944   H         1 RES1   0.0000
   188 H105      2.6729   -4.3718    7.7642   H         1 RES1   0.0000
   189 H106      4.0959   -3.7371    6.9496   H         1 RES1   0.0000
   190 H107      3.1718    1.2905    0.0186   H         1 RES1   0.0000
   191 H108      3.7128    0.7244    1.6280   H         1 RES1   0.0000
   192 H109      1.2696    1.7587    3.1395   H         1 RES1   0.0000
   193 H110      2.4003    0.3892    3.2087   H         1 RES1   0.0000
   194 H111      1.5349    0.6032    5.2219   H         1 RES1   0.0000
   195 H112      0.2571    0.0713    6.2965   H         1 RES1   0.0000
   196 H113     -1.0099    2.0122    6.0076   H         1 RES1   0.0000
   197 H114     -0.4434    2.2724    4.3644   H         1 RES1   0.0000
   198 H115      1.7664    3.0047    5.2448   H         1 RES1   0.0000
   199 H116      1.1564    2.8431    6.8885   H         1 RES1   0.0000
   200 H117     -0.5466    4.5034    6.5450   H         1 RES1   0.0000
   201 H118     -0.3032    4.5162    4.8039   H         1 RES1   0.0000
   202 H119      1.7059    5.4936    6.8739   H         1 RES1   0.0000
   203 H120      0.6232    6.5107    5.9330   H         1 RES1   0.0000
   204 H121      2.9126    4.8242    4.8214   H         1 RES1   0.0000
   205 H122      2.8594    6.5652    5.0081   H         1 RES1   0.0000
   206 H123      0.9596    6.6920    3.4026   H         1 RES1   0.0000
   207 H124      1.0705    4.9496    3.1403   H         1 RES1   0.0000
   208 H125      3.2779    6.9750    2.5647   H         1 RES1   0.0000
   209 H126      2.2981    6.1480    1.3624   H         1 RES1   0.0000
   210 H127      3.4300    5.2344    2.3653   H         1 RES1   0.0000
   211 H128     -1.1893   -1.3495    5.6776   H         1 RES1   0.0000
   212 H129     -0.8004   -2.1972    4.1609   H         1 RES1   0.0000
   213 H130     -3.0895   -1.9431    4.2306   H         1 RES1   0.0000
   214 H131     -2.5383   -0.8335    2.9778   H         1 RES1   0.0000
   215 H132     -3.0230    0.2117    5.7882   H         1 RES1   0.0000
   216 H133     -4.4234   -0.2061    4.8186   H         1 RES1   0.0000
   217 H134     -2.3272    1.6987    3.7596   H         1 RES1   0.0000
   218 H135     -3.6224    2.2467    4.8062   H         1 RES1   0.0000
   219 H136     -5.3352    1.4656    3.2615   H         1 RES1   0.0000
   220 H137     -4.1308    0.8406    2.1447   H         1 RES1   0.0000
   221 H138     -3.2594    3.1526    1.7856   H         1 RES1   0.0000
   222 H139     -4.3204    3.7600    3.0430   H         1 RES1   0.0000
   223 H140     -5.3659    2.4220    0.5165   H         1 RES1   0.0000
   224 H141     -6.2988    3.2734    1.7378   H         1 RES1   0.0000
   225 H142     -5.1647    5.4045    1.1636   H         1 RES1   0.0000
   226 H143     -5.9521    4.7084   -0.2402   H         1 RES1   0.0000
   227 H144     -4.2004    4.5806   -0.0628   H         1 RES1   0.0000
   228 O7       -1.1747    1.5631    1.4319   O.3       1 RES1   0.0000
   229 H145     -2.0426    1.3212    1.8009   H         1 RES1   0.0000
   230 H146     -0.9421    2.4042    1.8566   H         1 RES1   0.0000
   231 O8        0.0241   -1.3200   -2.1674   O.3       1 RES1   0.0000
   232 H147     -0.5585   -1.0937   -2.9141   H         1 RES1   0.0000
   233 H148      0.8206   -1.7079   -2.5781   H         1 RES1   0.0000
@<TRIPOS>BOND
     1     1    20    1
     2     1    22    1
     3     1    25    1
     4     1   133    1
     5     1   135    1
     6     1   138    1
     7     1   228    1
     8     1   231    1
     9     2     3    1
    10     2    43    1
    11     2    44    1
    12     2    45    1
    13     3     4    1
    14     3    46    1
    15     3    47    1
    16     4     5    1
    17     4    48    1
    18     4    49    1
    19     5     6    1
    20     5    50    1
    21     5    51    1
    22     6     7    1
    23     6    52    1
    24     6    53    1
    25     7     8    1
    26     7    54    1
    27     7    55    1
    28     8     9    1
    29     8    56    1
    30     8    57    1
    31     9    10    1
    32     9    58    1
    33     9    59    1
    34    10    11    1
    35    10    19    1
    36    11    12    1
    37    11    60    1
    38    11    61    1
    39    12    13    1
    40    12    62    1
    41    12    63    1
    42    13    14    1
    43    13    64    1
    44    13    65    1
    45    14    15    1
    46    14    66    1
    47    14    67    1
    48    15    16    1
    49    15    68    1
    50    15    69    1
    51    16    17    1
    52    16    70    1
    53    16    71    1
    54    17    18    1
    55    17    72    1
    56    17    73    1
    57    18    74    1
    58    18    75    1
    59    18    76    1
    60    19    20    2
    61    19    21    1
    62    21    22    1
    63    21    77    1
    64    21    78    1
    65    22    23    1
    66    23    24    1
    67    23    79    1
    68    23    80    1
    69    24    25    2
    70    24    26    1
    71    26    27    1
    72    26    35    1
    73    27    28    1
    74    27    81    1
    75    27    82    1
    76    28    29    1
    77    28    83    1
    78    28    84    1
    79    29    30    1
    80    29    85    1
    81    29    86    1
    82    30    31    1
    83    30    87    1
    84    30    88    1
    85    31    32    1
    86    31    89    1
    87    31    90    1
    88    32    33    1
    89    32    91    1
    90    32    92    1
    91    33    34    1
    92    33    93    1
    93    33    94    1
    94    34    95    1
    95    34    96    1
    96    34    97    1
    97    35    36    1
    98    35    98    1
    99    35    99    1
   100    36    37    1
   101    36   100    1
   102    36   101    1
   103    37    38    1
   104    37   102    1
   105    37   103    1
   106    38    39    1
   107    38   104    1
   108    38   105    1
   109    39    40    1
   110    39   106    1
   111    39   107    1
   112    40    41    1
   113    40   108    1
   114    40   109    1
   115    41    42    1
   116    41   110    1
   117    41   111    1
   118    42   112    1
   119    42   113    1
   120    42   114    1
   121   115   116    1
   122   115   156    1
   123   115   157    1
   124   115   158    1
   125   116   117    1
   126   116   159    1
   127   116   160    1
   128   117   118    1
   129   117   161    1
   130   117   162    1
   131   118   119    1
   132   118   163    1
   133   118   164    1
   134   119   120    1
   135   119   165    1
   136   119   166    1
   137   120   121    1
   138   120   167    1
   139   120   168    1
   140   121   122    1
   141   121   169    1
   142   121   170    1
   143   122   123    1
   144   122   171    1
   145   122   172    1
   146   123   124    1
   147   123   132    1
   148   124   125    1
   149   124   173    1
   150   124   174    1
   151   125   126    1
   152   125   175    1
   153   125   176    1
   154   126   127    1
   155   126   177    1
   156   126   178    1
   157   127   128    1
   158   127   179    1
   159   127   180    1
   160   128   129    1
   161   128   181    1
   162   128   182    1
   163   129   130    1
   164   129   183    1
   165   129   184    1
   166   130   131    1
   167   130   185    1
   168   130   186    1
   169   131   187    1
   170   131   188    1
   171   131   189    1
   172   132   133    2
   173   132   134    1
   174   134   135    1
   175   134   190    1
   176   134   191    1
   177   135   136    1
   178   136   137    1
   179   136   192    1
   180   136   193    1
   181   137   138    2
   182   137   139    1
   183   139   140    1
   184   139   148    1
   185   140   141    1
   186   140   194    1
   187   140   195    1
   188   141   142    1
   189   141   196    1
   190   141   197    1
   191   142   143    1
   192   142   198    1
   193   142   199    1
   194   143   144    1
   195   143   200    1
   196   143   201    1
   197   144   145    1
   198   144   202    1
   199   144   203    1
   200   145   146    1
   201   145   204    1
   202   145   205    1
   203   146   147    1
   204   146   206    1
   205   146   207    1
   206   147   208    1
   207   147   209    1
   208   147   210    1
   209   148   149    1
   210   148   211    1
   211   148   212    1
   212   149   150    1
   213   149   213    1
   214   149   214    1
   215   150   151    1
   216   150   215    1
   217   150   216    1
   218   151   152    1
   219   151   217    1
   220   151   218    1
   221   152   153    1
   222   152   219    1
   223   152   220    1
   224   153   154    1
   225   153   221    1
   226   153   222    1
   227   154   155    1
   228   154   223    1
   229   154   224    1
   230   155   225    1
   231   155   226    1
   232   155   227    1
   233   228   229    1
   234   228   230    1
   235   231   232    1
   236   231   233    1
@<TRIPOS>SUBSTRUCTURE
     1 RES1      233 GROUP             0 ****  ****    0  
