@<TRIPOS>MOLECULE
axial_bicapped_trigonal_prismatic_0_nunpairedes_0_charge_3 Charge: 3 Unpaired_Electrons: 4 XTB_Unpaired_Electrons: 0 XTB_Charge: 3
   281   288     1     0     0
SMALL
NoCharges
****
Generated from Architector

@<TRIPOS>ATOM
     1 Ho1       0.0364   -0.0694   -0.0059   Ho        1 RES1   0.0000
     2 C1       -1.2331   -0.7849   -8.0236   C.3       1 RES1   0.0000
     3 C2       -0.9320    0.5986   -7.4621   C.3       1 RES1   0.0000
     4 C3       -0.8196    0.5792   -5.9387   C.3       1 RES1   0.0000
     5 C4       -0.4834    1.9218   -5.2801   C.3       1 RES1   0.0000
     6 C5        0.8799    2.4961   -5.6674   C.3       1 RES1   0.0000
     7 C6        1.1749    3.8430   -5.0064   C.3       1 RES1   0.0000
     8 C7        1.2598    3.7826   -3.4770   C.3       1 RES1   0.0000
     9 C8        2.5106    3.0542   -2.9703   C.3       1 RES1   0.0000
    10 P1        2.4229    2.6532   -1.1738   P.3       1 RES1   0.0000
    11 O1        1.6056    1.3936   -1.0220   O.2       1 RES1   0.0000
    12 C9        1.5716    4.0806   -0.3711   C.3       1 RES1   0.0000
    13 C10       1.5472    3.7334    1.1051   C.2       1 RES1   0.0000
    14 O2        1.4166    2.5487    1.4242   O.2       1 RES1   0.0000
    15 N1        1.7638    4.7140    2.0084   N.am      1 RES1   0.0000
    16 C11       2.5545    4.3744    3.1980   C.3       1 RES1   0.0000
    17 C12       1.8686    4.2694    4.5692   C.3       1 RES1   0.0000
    18 C13       1.3261    2.8660    4.8215   C.3       1 RES1   0.0000
    19 C14       0.8090    5.3351    4.8092   C.3       1 RES1   0.0000
    20 C15       1.7735    6.1363    1.6535   C.3       1 RES1   0.0000
    21 C16       0.4883    6.6402    0.9627   C.3       1 RES1   0.0000
    22 C17      -0.4604    7.3191    1.9492   C.3       1 RES1   0.0000
    23 C18       0.8119    7.6164   -0.1727   C.3       1 RES1   0.0000
    24 C19       4.1700    2.6779   -0.5665   C.ar      1 RES1   0.0000
    25 C20       5.1578    1.9605   -1.2365   C.ar      1 RES1   0.0000
    26 C21       6.4851    2.0326   -0.8484   C.ar      1 RES1   0.0000
    27 C22       6.8580    2.8417    0.2105   C.ar      1 RES1   0.0000
    28 C23       5.8926    3.5851    0.8619   C.ar      1 RES1   0.0000
    29 C24       4.5676    3.5125    0.4730   C.ar      1 RES1   0.0000
    30 H1       -1.2820   -0.7492   -9.1052   H         1 RES1   0.0000
    31 H2       -2.1837   -1.1637   -7.6598   H         1 RES1   0.0000
    32 H3       -0.4598   -1.4959   -7.7475   H         1 RES1   0.0000
    33 H4       -1.7186    1.2909   -7.7587   H         1 RES1   0.0000
    34 H5       -0.0016    0.9593   -7.8966   H         1 RES1   0.0000
    35 H6       -0.0621   -0.1524   -5.6487   H         1 RES1   0.0000
    36 H7       -1.7770    0.2550   -5.5207   H         1 RES1   0.0000
    37 H8       -0.5150    1.7634   -4.1944   H         1 RES1   0.0000
    38 H9       -1.2620    2.6443   -5.5342   H         1 RES1   0.0000
    39 H10       0.9161    2.6416   -6.7453   H         1 RES1   0.0000
    40 H11       1.6598    1.7755   -5.4153   H         1 RES1   0.0000
    41 H12       0.3908    4.5534   -5.2806   H         1 RES1   0.0000
    42 H13       2.1181    4.2288   -5.3956   H         1 RES1   0.0000
    43 H14       0.3698    3.2774   -3.0922   H         1 RES1   0.0000
    44 H15       1.2593    4.8076   -3.1004   H         1 RES1   0.0000
    45 H16       3.4040    3.6398   -3.1870   H         1 RES1   0.0000
    46 H17       2.6008    2.0841   -3.4679   H         1 RES1   0.0000
    47 H18       0.5778    4.1758   -0.8113   H         1 RES1   0.0000
    48 H19       2.1207    4.9981   -0.5671   H         1 RES1   0.0000
    49 H20       3.3320    5.1411    3.2577   H         1 RES1   0.0000
    50 H21       3.0376    3.4149    2.9953   H         1 RES1   0.0000
    51 H22       2.6672    4.4395    5.2964   H         1 RES1   0.0000
    52 H23       0.5545    2.5943    4.1087   H         1 RES1   0.0000
    53 H24       0.9300    2.8080    5.8314   H         1 RES1   0.0000
    54 H25       2.1223    2.1329    4.7348   H         1 RES1   0.0000
    55 H26       0.0140    5.2538    4.0748   H         1 RES1   0.0000
    56 H27       1.2374    6.3325    4.7608   H         1 RES1   0.0000
    57 H28       0.3828    5.2136    5.8014   H         1 RES1   0.0000
    58 H29       2.6365    6.3666    1.0168   H         1 RES1   0.0000
    59 H30       1.9247    6.6888    2.5821   H         1 RES1   0.0000
    60 H31      -0.0413    5.7748    0.5467   H         1 RES1   0.0000
    61 H32       0.0059    8.1731    2.4348   H         1 RES1   0.0000
    62 H33      -0.7921    6.6256    2.7149   H         1 RES1   0.0000
    63 H34      -1.3464    7.6690    1.4262   H         1 RES1   0.0000
    64 H35       1.3633    8.4780    0.1960   H         1 RES1   0.0000
    65 H36      -0.1072    7.9790   -0.6274   H         1 RES1   0.0000
    66 H37       1.4046    7.1537   -0.9584   H         1 RES1   0.0000
    67 H38       4.8932    1.3600   -2.0879   H         1 RES1   0.0000
    68 H39       7.2314    1.4723   -1.3890   H         1 RES1   0.0000
    69 H40       7.8886    2.9031    0.5179   H         1 RES1   0.0000
    70 H41       6.1814    4.2385    1.6672   H         1 RES1   0.0000
    71 H42       3.8568    4.1274    0.9874   H         1 RES1   0.0000
    72 C25       3.8164    1.2738    7.1929   C.3       1 RES1   0.0000
    73 C26       4.8834    2.0360    6.4061   C.3       1 RES1   0.0000
    74 C27       5.6031    1.1779    5.3494   C.3       1 RES1   0.0000
    75 C28       5.1407    1.4363    3.9064   C.3       1 RES1   0.0000
    76 C29       5.6962    0.3892    2.9275   C.3       1 RES1   0.0000
    77 C30       4.7298   -0.0137    1.8080   C.3       1 RES1   0.0000
    78 C31       5.3639   -1.0490    0.8762   C.3       1 RES1   0.0000
    79 C32       4.4158   -1.6365   -0.1791   C.3       1 RES1   0.0000
    80 P2        2.7810   -2.3562    0.2919   P.3       1 RES1   0.0000
    81 O3        1.8697   -1.2433    0.7198   O.2       1 RES1   0.0000
    82 C33       2.1155   -3.1274   -1.2758   C.3       1 RES1   0.0000
    83 C34       1.8773   -2.0703   -2.3274   C.2       1 RES1   0.0000
    84 O4        1.1203   -1.1197   -2.0212   O.2       1 RES1   0.0000
    85 N2        2.4502   -2.1909   -3.5308   N.am      1 RES1   0.0000
    86 C35       3.0384   -3.4289   -4.0332   C.3       1 RES1   0.0000
    87 C36       1.9901   -4.5181   -4.3476   C.3       1 RES1   0.0000
    88 C37       2.6889   -5.8673   -4.5176   C.3       1 RES1   0.0000
    89 C38       1.1904   -4.1944   -5.6118   C.3       1 RES1   0.0000
    90 C39       2.3571   -1.1056   -4.4980   C.3       1 RES1   0.0000
    91 C40       3.7097   -0.5096   -4.9629   C.3       1 RES1   0.0000
    92 C41       4.7351   -0.5058   -3.8347   C.3       1 RES1   0.0000
    93 C42       4.2922   -1.1231   -6.2377   C.3       1 RES1   0.0000
    94 C43       2.8438   -3.8174    1.4026   C.ar      1 RES1   0.0000
    95 C44       3.8180   -3.9367    2.3887   C.ar      1 RES1   0.0000
    96 C45       3.9529   -5.1145    3.1098   C.ar      1 RES1   0.0000
    97 C46       3.1270   -6.1939    2.8462   C.ar      1 RES1   0.0000
    98 C47       2.1310   -6.0660    1.8947   C.ar      1 RES1   0.0000
    99 C48       1.9738   -4.8877    1.1876   C.ar      1 RES1   0.0000
   100 H43       3.3427    1.9402    7.9108   H         1 RES1   0.0000
   101 H44       3.0444    0.8686    6.5413   H         1 RES1   0.0000
   102 H45       4.2667    0.4546    7.7505   H         1 RES1   0.0000
   103 H46       5.6153    2.4139    7.1217   H         1 RES1   0.0000
   104 H47       4.4302    2.9067    5.9257   H         1 RES1   0.0000
   105 H48       5.4577    0.1256    5.6046   H         1 RES1   0.0000
   106 H49       6.6752    1.3703    5.4062   H         1 RES1   0.0000
   107 H50       5.4559    2.4380    3.6056   H         1 RES1   0.0000
   108 H51       4.0507    1.4377    3.8532   H         1 RES1   0.0000
   109 H52       5.9567   -0.5093    3.4884   H         1 RES1   0.0000
   110 H53       6.6221    0.7718    2.5012   H         1 RES1   0.0000
   111 H54       4.4408    0.8622    1.2262   H         1 RES1   0.0000
   112 H55       3.8229   -0.4396    2.2395   H         1 RES1   0.0000
   113 H56       5.8063   -1.8586    1.4611   H         1 RES1   0.0000
   114 H57       6.1834   -0.5750    0.3255   H         1 RES1   0.0000
   115 H58       4.9689   -2.3642   -0.7779   H         1 RES1   0.0000
   116 H59       4.0664   -0.8297   -0.8352   H         1 RES1   0.0000
   117 H60       1.1215   -3.4970   -1.0010   H         1 RES1   0.0000
   118 H61       2.7425   -3.9638   -1.5717   H         1 RES1   0.0000
   119 H62       3.7836   -3.8078   -3.3296   H         1 RES1   0.0000
   120 H63       3.5629   -3.1958   -4.9586   H         1 RES1   0.0000
   121 H64       1.2891   -4.5867   -3.5050   H         1 RES1   0.0000
   122 H65       3.3885   -5.8464   -5.3509   H         1 RES1   0.0000
   123 H66       1.9563   -6.6456   -4.7197   H         1 RES1   0.0000
   124 H67       3.2341   -6.1384   -3.6163   H         1 RES1   0.0000
   125 H68       1.8474   -4.0299   -6.4646   H         1 RES1   0.0000
   126 H69       0.5666   -3.3145   -5.4683   H         1 RES1   0.0000
   127 H70       0.5362   -5.0291   -5.8585   H         1 RES1   0.0000
   128 H71       1.7685   -0.3262   -4.0107   H         1 RES1   0.0000
   129 H72       1.8075   -1.4478   -5.3767   H         1 RES1   0.0000
   130 H73       3.4775    0.5313   -5.2067   H         1 RES1   0.0000
   131 H74       5.1682   -1.4892   -3.6733   H         1 RES1   0.0000
   132 H75       4.2513   -0.1968   -2.9110   H         1 RES1   0.0000
   133 H76       5.5480    0.1780   -4.0691   H         1 RES1   0.0000
   134 H77       4.8381   -2.0415   -6.0426   H         1 RES1   0.0000
   135 H78       5.0011   -0.4303   -6.6839   H         1 RES1   0.0000
   136 H79       3.5158   -1.3126   -6.9741   H         1 RES1   0.0000
   137 H80       4.4756   -3.1059    2.5959   H         1 RES1   0.0000
   138 H81       4.7235   -5.2109    3.8571   H         1 RES1   0.0000
   139 H82       3.2502   -7.1292    3.3715   H         1 RES1   0.0000
   140 H83       1.4932   -6.9058    1.6707   H         1 RES1   0.0000
   141 H84       1.1665   -4.8329    0.4716   H         1 RES1   0.0000
   142 C49      -2.2600   -0.6567    7.5416   C.3       1 RES1   0.0000
   143 C50      -2.7670   -2.0919    7.6733   C.3       1 RES1   0.0000
   144 C51      -4.1100   -2.3392    6.9708   C.3       1 RES1   0.0000
   145 C52      -3.9442   -2.6430    5.4726   C.3       1 RES1   0.0000
   146 C53      -5.0397   -2.0563    4.5693   C.3       1 RES1   0.0000
   147 C54      -4.5779   -1.8677    3.1135   C.3       1 RES1   0.0000
   148 C55      -5.5847   -2.2829    2.0457   C.3       1 RES1   0.0000
   149 C56      -5.0810   -1.9680    0.6287   C.3       1 RES1   0.0000
   150 P3       -4.3837   -0.2744    0.3392   P.3       1 RES1   0.0000
   151 O5       -3.0451   -0.1301    0.9836   O.2       1 RES1   0.0000
   152 C57      -4.2167   -0.0328   -1.4971   C.3       1 RES1   0.0000
   153 C58      -2.9791   -0.6385   -2.1148   C.2       1 RES1   0.0000
   154 O6       -1.8632   -0.4364   -1.5780   O.2       1 RES1   0.0000
   155 N3       -3.1364   -1.3335   -3.2483   N.am      1 RES1   0.0000
   156 C59      -4.3959   -1.4339   -3.9921   C.3       1 RES1   0.0000
   157 C60      -4.9563   -0.1055   -4.5680   C.3       1 RES1   0.0000
   158 C61      -6.4395    0.0686   -4.2203   C.3       1 RES1   0.0000
   159 C62      -4.8337   -0.0677   -6.0939   C.3       1 RES1   0.0000
   160 C63      -1.9986   -2.0504   -3.8103   C.3       1 RES1   0.0000
   161 C64      -1.9512   -3.5473   -3.4484   C.3       1 RES1   0.0000
   162 C65      -1.8975   -3.7372   -1.9347   C.3       1 RES1   0.0000
   163 C66      -3.0783   -4.3965   -4.0367   C.3       1 RES1   0.0000
   164 C67      -5.7137    0.9533    0.7361   C.ar      1 RES1   0.0000
   165 C68      -6.1858    1.0136    2.0452   C.ar      1 RES1   0.0000
   166 C69      -7.2479    1.8275    2.3998   C.ar      1 RES1   0.0000
   167 C70      -7.8878    2.5890    1.4399   C.ar      1 RES1   0.0000
   168 C71      -7.4099    2.5622    0.1425   C.ar      1 RES1   0.0000
   169 C72      -6.3393    1.7593   -0.2159   C.ar      1 RES1   0.0000
   170 H85      -1.2822   -0.5572    8.0119   H         1 RES1   0.0000
   171 H86      -2.9359    0.0352    8.0403   H         1 RES1   0.0000
   172 H87      -2.1703   -0.3560    6.4980   H         1 RES1   0.0000
   173 H88      -2.8718   -2.3140    8.7355   H         1 RES1   0.0000
   174 H89      -2.0145   -2.7750    7.2722   H         1 RES1   0.0000
   175 H90      -4.7435   -1.4638    7.1171   H         1 RES1   0.0000
   176 H91      -4.6057   -3.1735    7.4636   H         1 RES1   0.0000
   177 H92      -3.9019   -3.7257    5.3286   H         1 RES1   0.0000
   178 H93      -2.9803   -2.2388    5.1628   H         1 RES1   0.0000
   179 H94      -5.3633   -1.0914    4.9664   H         1 RES1   0.0000
   180 H95      -5.9095   -2.7077    4.6099   H         1 RES1   0.0000
   181 H96      -3.6658   -2.4315    2.9334   H         1 RES1   0.0000
   182 H97      -4.3345   -0.8187    2.9405   H         1 RES1   0.0000
   183 H98      -6.5424   -1.7851    2.2030   H         1 RES1   0.0000
   184 H99      -5.7664   -3.3608    2.1135   H         1 RES1   0.0000
   185 H100     -5.8947   -2.1535   -0.0722   H         1 RES1   0.0000
   186 H101     -4.2431   -2.6262    0.3726   H         1 RES1   0.0000
   187 H102     -4.1408    1.0521   -1.6163   H         1 RES1   0.0000
   188 H103     -5.1352   -0.3602   -1.9651   H         1 RES1   0.0000
   189 H104     -5.1570   -1.9030   -3.3678   H         1 RES1   0.0000
   190 H105     -4.2220   -2.1121   -4.8249   H         1 RES1   0.0000
   191 H106     -4.3735    0.7258   -4.1524   H         1 RES1   0.0000
   192 H107     -7.0433   -0.6858   -4.7215   H         1 RES1   0.0000
   193 H108     -6.7920    1.0436   -4.5500   H         1 RES1   0.0000
   194 H109     -6.6327   -0.0184   -3.1533   H         1 RES1   0.0000
   195 H110     -5.4822   -0.8192   -6.5445   H         1 RES1   0.0000
   196 H111     -3.8138   -0.2486   -6.4238   H         1 RES1   0.0000
   197 H112     -5.1363    0.9076   -6.4726   H         1 RES1   0.0000
   198 H113     -1.0965   -1.5724   -3.4173   H         1 RES1   0.0000
   199 H114     -2.0086   -1.9304   -4.8943   H         1 RES1   0.0000
   200 H115     -1.0168   -3.9113   -3.8818   H         1 RES1   0.0000
   201 H116     -1.2070   -3.0353   -1.4566   H         1 RES1   0.0000
   202 H117     -1.5903   -4.7573   -1.7133   H         1 RES1   0.0000
   203 H118     -2.8855   -3.5835   -1.5020   H         1 RES1   0.0000
   204 H119     -4.0291   -4.1777   -3.5587   H         1 RES1   0.0000
   205 H120     -2.8696   -5.4512   -3.8672   H         1 RES1   0.0000
   206 H121     -3.1683   -4.2456   -5.1095   H         1 RES1   0.0000
   207 H122     -5.7319    0.3997    2.8024   H         1 RES1   0.0000
   208 H123     -7.5790    1.8531    3.4246   H         1 RES1   0.0000
   209 H124     -8.7477    3.1895    1.6903   H         1 RES1   0.0000
   210 H125     -7.8796    3.1749   -0.6075   H         1 RES1   0.0000
   211 H126     -6.0295    1.7869   -1.2497   H         1 RES1   0.0000
   212 C73      -1.7250   -7.6800   -0.4142   C.3       1 RES1   0.0000
   213 C74      -3.2151   -7.7220   -0.7531   C.3       1 RES1   0.0000
   214 C75      -4.0013   -6.4629   -0.3430   C.3       1 RES1   0.0000
   215 C76      -4.7212   -6.5431    1.0092   C.3       1 RES1   0.0000
   216 C77      -3.8379   -6.6876    2.2529   C.3       1 RES1   0.0000
   217 C78      -3.3797   -5.3824    2.9078   C.3       1 RES1   0.0000
   218 C79      -2.4658   -4.4730    2.0662   C.3       1 RES1   0.0000
   219 C80      -1.4230   -3.7934    2.9718   C.3       1 RES1   0.0000
   220 P4       -0.6934   -2.1336    2.6003   P.3       1 RES1   0.0000
   221 O7       -0.6332   -1.9410    1.1100   O.2       1 RES1   0.0000
   222 C81      -1.4759   -0.6810    3.5217   C.3       1 RES1   0.0000
   223 C82      -1.4120    0.6615    2.8078   C.2       1 RES1   0.0000
   224 O8       -0.5460    0.7887    1.9141   O.2       1 RES1   0.0000
   225 N4       -2.1497    1.7104    3.1914   N.am      1 RES1   0.0000
   226 C83      -1.7981    3.0424    2.6801   C.3       1 RES1   0.0000
   227 C84      -2.4657    3.6234    1.4121   C.3       1 RES1   0.0000
   228 C85      -3.9327    4.0055    1.6188   C.3       1 RES1   0.0000
   229 C86      -2.3363    2.7409    0.1727   C.3       1 RES1   0.0000
   230 C87      -3.3162    1.6191    4.0602   C.3       1 RES1   0.0000
   231 C88      -3.3808    2.4068    5.3981   C.3       1 RES1   0.0000
   232 C89      -4.1908    3.7021    5.3134   C.3       1 RES1   0.0000
   233 C90      -2.0265    2.6844    6.0396   C.3       1 RES1   0.0000
   234 C91       0.8559   -2.2295    3.5742   C.ar      1 RES1   0.0000
   235 C92       1.0855   -3.2747    4.4655   C.ar      1 RES1   0.0000
   236 C93       2.1556   -3.2426    5.3412   C.ar      1 RES1   0.0000
   237 C94       3.0198   -2.1644    5.3360   C.ar      1 RES1   0.0000
   238 C95       2.7772   -1.1067    4.4761   C.ar      1 RES1   0.0000
   239 C96       1.6916   -1.1172    3.6179   C.ar      1 RES1   0.0000
   240 H127     -1.2186   -8.5152   -0.8905   H         1 RES1   0.0000
   241 H128     -1.5450   -7.7512    0.6560   H         1 RES1   0.0000
   242 H129     -1.2693   -6.7584   -0.7779   H         1 RES1   0.0000
   243 H130     -3.6598   -8.6058   -0.2914   H         1 RES1   0.0000
   244 H131     -3.3116   -7.8411   -1.8365   H         1 RES1   0.0000
   245 H132     -4.7789   -6.2953   -1.0954   H         1 RES1   0.0000
   246 H133     -3.3350   -5.5988   -0.3651   H         1 RES1   0.0000
   247 H134     -5.3951   -7.4017    0.9633   H         1 RES1   0.0000
   248 H135     -5.3473   -5.6509    1.1157   H         1 RES1   0.0000
   249 H136     -2.9709   -7.3028    2.0185   H         1 RES1   0.0000
   250 H137     -4.4190   -7.2240    3.0072   H         1 RES1   0.0000
   251 H138     -2.8303   -5.6756    3.8019   H         1 RES1   0.0000
   252 H139     -4.2573   -4.8229    3.2340   H         1 RES1   0.0000
   253 H140     -3.0572   -3.7429    1.5203   H         1 RES1   0.0000
   254 H141     -1.9424   -5.0758    1.3238   H         1 RES1   0.0000
   255 H142     -0.5456   -4.4471    2.9472   H         1 RES1   0.0000
   256 H143     -1.7850   -3.7635    4.0001   H         1 RES1   0.0000
   257 H144     -0.8780   -0.5735    4.4337   H         1 RES1   0.0000
   258 H145     -2.4845   -0.9497    3.8035   H         1 RES1   0.0000
   259 H146     -0.7197    3.0145    2.4949   H         1 RES1   0.0000
   260 H147     -2.0165    3.7393    3.4911   H         1 RES1   0.0000
   261 H148     -1.9151    4.5560    1.2312   H         1 RES1   0.0000
   262 H149     -4.5560    3.1275    1.7639   H         1 RES1   0.0000
   263 H150     -4.3116    4.5335    0.7465   H         1 RES1   0.0000
   264 H151     -4.0457    4.6672    2.4730   H         1 RES1   0.0000
   265 H152     -3.0443    1.9223    0.2566   H         1 RES1   0.0000
   266 H153     -1.3200    2.3164    0.0599   H         1 RES1   0.0000
   267 H154     -2.5866    3.3232   -0.7140   H         1 RES1   0.0000
   268 H155     -3.4274    0.5730    4.3184   H         1 RES1   0.0000
   269 H156     -4.1870    1.9104    3.4699   H         1 RES1   0.0000
   270 H157     -3.9425    1.7425    6.0648   H         1 RES1   0.0000
   271 H158     -3.6503    4.4984    4.8073   H         1 RES1   0.0000
   272 H159     -4.4137    4.0476    6.3209   H         1 RES1   0.0000
   273 H160     -5.1346    3.5473    4.7960   H         1 RES1   0.0000
   274 H161     -1.5023    3.4865    5.5293   H         1 RES1   0.0000
   275 H162     -1.3946    1.8019    6.0401   H         1 RES1   0.0000
   276 H163     -2.1764    2.9954    7.0699   H         1 RES1   0.0000
   277 H164      0.4359   -4.1324    4.5060   H         1 RES1   0.0000
   278 H165      2.2858   -4.0443    6.0504   H         1 RES1   0.0000
   279 H166      3.8629   -2.1283    6.0085   H         1 RES1   0.0000
   280 H167      3.4307   -0.2575    4.5145   H         1 RES1   0.0000
   281 H168      1.4952   -0.2641    2.9747   H         1 RES1   0.0000
@<TRIPOS>BOND
     1     1    11    1
     2     1    14    1
     3     1    81    1
     4     1    84    1
     5     1   151    1
     6     1   154    1
     7     1   221    1
     8     1   224    1
     9     2     3    1
    10     2    30    1
    11     2    31    1
    12     2    32    1
    13     3     4    1
    14     3    33    1
    15     3    34    1
    16     4     5    1
    17     4    35    1
    18     4    36    1
    19     5     6    1
    20     5    37    1
    21     5    38    1
    22     6     7    1
    23     6    39    1
    24     6    40    1
    25     7     8    1
    26     7    41    1
    27     7    42    1
    28     8     9    1
    29     8    43    1
    30     8    44    1
    31     9    10    1
    32     9    45    1
    33     9    46    1
    34    10    11    2
    35    10    12    1
    36    10    24    1
    37    12    13    1
    38    12    47    1
    39    12    48    1
    40    13    14    2
    41    13    15    1
    42    15    16    1
    43    15    20    1
    44    16    17    1
    45    16    49    1
    46    16    50    1
    47    17    18    1
    48    17    19    1
    49    17    51    1
    50    18    52    1
    51    18    53    1
    52    18    54    1
    53    19    55    1
    54    19    56    1
    55    19    57    1
    56    20    21    1
    57    20    58    1
    58    20    59    1
    59    21    22    1
    60    21    23    1
    61    21    60    1
    62    22    61    1
    63    22    62    1
    64    22    63    1
    65    23    64    1
    66    23    65    1
    67    23    66    1
    68    24    25    1
    69    24    29    2
    70    25    26    2
    71    25    67    1
    72    26    27    1
    73    26    68    1
    74    27    28    2
    75    27    69    1
    76    28    29    1
    77    28    70    1
    78    29    71    1
    79    72    73    1
    80    72   100    1
    81    72   101    1
    82    72   102    1
    83    73    74    1
    84    73   103    1
    85    73   104    1
    86    74    75    1
    87    74   105    1
    88    74   106    1
    89    75    76    1
    90    75   107    1
    91    75   108    1
    92    76    77    1
    93    76   109    1
    94    76   110    1
    95    77    78    1
    96    77   111    1
    97    77   112    1
    98    78    79    1
    99    78   113    1
   100    78   114    1
   101    79    80    1
   102    79   115    1
   103    79   116    1
   104    80    81    2
   105    80    82    1
   106    80    94    1
   107    82    83    1
   108    82   117    1
   109    82   118    1
   110    83    84    2
   111    83    85    1
   112    85    86    1
   113    85    90    1
   114    86    87    1
   115    86   119    1
   116    86   120    1
   117    87    88    1
   118    87    89    1
   119    87   121    1
   120    88   122    1
   121    88   123    1
   122    88   124    1
   123    89   125    1
   124    89   126    1
   125    89   127    1
   126    90    91    1
   127    90   128    1
   128    90   129    1
   129    91    92    1
   130    91    93    1
   131    91   130    1
   132    92   131    1
   133    92   132    1
   134    92   133    1
   135    93   134    1
   136    93   135    1
   137    93   136    1
   138    94    95    1
   139    94    99    2
   140    95    96    2
   141    95   137    1
   142    96    97    1
   143    96   138    1
   144    97    98    2
   145    97   139    1
   146    98    99    1
   147    98   140    1
   148    99   141    1
   149   142   143    1
   150   142   170    1
   151   142   171    1
   152   142   172    1
   153   143   144    1
   154   143   173    1
   155   143   174    1
   156   144   145    1
   157   144   175    1
   158   144   176    1
   159   145   146    1
   160   145   177    1
   161   145   178    1
   162   146   147    1
   163   146   179    1
   164   146   180    1
   165   147   148    1
   166   147   181    1
   167   147   182    1
   168   148   149    1
   169   148   183    1
   170   148   184    1
   171   149   150    1
   172   149   185    1
   173   149   186    1
   174   150   151    2
   175   150   152    1
   176   150   164    1
   177   152   153    1
   178   152   187    1
   179   152   188    1
   180   153   154    2
   181   153   155    1
   182   155   156    1
   183   155   160    1
   184   156   157    1
   185   156   189    1
   186   156   190    1
   187   157   158    1
   188   157   159    1
   189   157   191    1
   190   158   192    1
   191   158   193    1
   192   158   194    1
   193   159   195    1
   194   159   196    1
   195   159   197    1
   196   160   161    1
   197   160   198    1
   198   160   199    1
   199   161   162    1
   200   161   163    1
   201   161   200    1
   202   162   201    1
   203   162   202    1
   204   162   203    1
   205   163   204    1
   206   163   205    1
   207   163   206    1
   208   164   165    1
   209   164   169    2
   210   165   166    2
   211   165   207    1
   212   166   167    1
   213   166   208    1
   214   167   168    2
   215   167   209    1
   216   168   169    1
   217   168   210    1
   218   169   211    1
   219   212   213    1
   220   212   240    1
   221   212   241    1
   222   212   242    1
   223   213   214    1
   224   213   243    1
   225   213   244    1
   226   214   215    1
   227   214   245    1
   228   214   246    1
   229   215   216    1
   230   215   247    1
   231   215   248    1
   232   216   217    1
   233   216   249    1
   234   216   250    1
   235   217   218    1
   236   217   251    1
   237   217   252    1
   238   218   219    1
   239   218   253    1
   240   218   254    1
   241   219   220    1
   242   219   255    1
   243   219   256    1
   244   220   221    2
   245   220   222    1
   246   220   234    1
   247   222   223    1
   248   222   257    1
   249   222   258    1
   250   223   224    2
   251   223   225    1
   252   225   226    1
   253   225   230    1
   254   226   227    1
   255   226   259    1
   256   226   260    1
   257   227   228    1
   258   227   229    1
   259   227   261    1
   260   228   262    1
   261   228   263    1
   262   228   264    1
   263   229   265    1
   264   229   266    1
   265   229   267    1
   266   230   231    1
   267   230   268    1
   268   230   269    1
   269   231   232    1
   270   231   233    1
   271   231   270    1
   272   232   271    1
   273   232   272    1
   274   232   273    1
   275   233   274    1
   276   233   275    1
   277   233   276    1
   278   234   235    1
   279   234   239    2
   280   235   236    2
   281   235   277    1
   282   236   237    1
   283   236   278    1
   284   237   238    2
   285   237   279    1
   286   238   239    1
   287   238   280    1
   288   239   281    1
@<TRIPOS>SUBSTRUCTURE
     1 RES1      281 GROUP             0 ****  ****    0  
