@<TRIPOS>MOLECULE
ICIGOT_geomtry_0_nunpairedes_0_charge_3 Charge: 3 Unpaired_Electrons: 4 XTB_Unpaired_Electrons: 0 XTB_Charge: 3
   241   246     1     0     0
SMALL
NoCharges
****
Generated from Architector

@<TRIPOS>ATOM
     1 Ho1      -0.3344   -0.2184    0.4241   Ho        1 RES1   0.0000
     2 C1       -4.9856    0.9653   -7.7743   C.3       1 RES1   0.0000
     3 C2       -5.8790    1.9925   -7.0895   C.3       1 RES1   0.0000
     4 C3       -5.3593    2.5259   -5.7511   C.3       1 RES1   0.0000
     5 C4       -5.7835    1.6767   -4.5462   C.3       1 RES1   0.0000
     6 C5       -5.3204    2.3152   -3.2331   C.3       1 RES1   0.0000
     7 C6       -5.4414    1.5195   -1.9222   C.3       1 RES1   0.0000
     8 C7       -4.1317    1.4791   -1.1037   C.3       1 RES1   0.0000
     9 C8       -3.5812    2.8973   -0.8945   C.3       1 RES1   0.0000
    10 N1       -2.5477    3.1460    0.1222   N.am      1 RES1   0.0000
    11 C9       -2.2151    4.5547    0.3711   C.3       1 RES1   0.0000
    12 C10      -0.7425    5.0776    0.2566   C.3       1 RES1   0.0000
    13 C11       0.2942    4.3593   -0.6175   C.3       1 RES1   0.0000
    14 C12       1.6928    4.9881   -0.5308   C.3       1 RES1   0.0000
    15 C13       2.6928    4.2244   -1.4133   C.3       1 RES1   0.0000
    16 C14       4.1150    4.7867   -1.3117   C.3       1 RES1   0.0000
    17 C15       5.1304    4.0903   -2.2282   C.3       1 RES1   0.0000
    18 C16       5.1154    4.5673   -3.6775   C.3       1 RES1   0.0000
    19 C17      -1.9558    2.1997    0.8037   C.2       1 RES1   0.0000
    20 O1       -2.0855    0.9653    0.5936   O.2       1 RES1   0.0000
    21 C18      -1.0504    2.6282    1.9548   C.3       1 RES1   0.0000
    22 O2       -0.3358    1.5050    2.4394   O.3       1 RES1   0.0000
    23 C19      -0.7608    1.0098    3.7010   C.3       1 RES1   0.0000
    24 C20      -1.9678    0.0927    3.5636   C.3       1 RES1   0.0000
    25 O3       -1.6586   -0.9230    2.6075   O.3       1 RES1   0.0000
    26 C21      -2.7868   -1.7586    2.3734   C.3       1 RES1   0.0000
    27 C22      -2.7062   -2.2700    0.9413   C.2       1 RES1   0.0000
    28 O4       -1.7186   -1.9188    0.2379   O.2       1 RES1   0.0000
    29 N2       -3.6614   -3.0591    0.4956   N.am      1 RES1   0.0000
    30 C23      -3.5617   -3.5950   -0.8538   C.3       1 RES1   0.0000
    31 C24      -3.1416   -5.0649   -0.9051   C.3       1 RES1   0.0000
    32 C25      -1.6838   -5.2621   -0.4736   C.3       1 RES1   0.0000
    33 C26      -1.5513   -5.5427    1.0214   C.3       1 RES1   0.0000
    34 C27      -0.0871   -5.5807    1.4521   C.3       1 RES1   0.0000
    35 C28       0.0725   -5.5951    2.9719   C.3       1 RES1   0.0000
    36 C29      -0.4293   -4.3116    3.6341   C.3       1 RES1   0.0000
    37 C30       0.0436   -4.1749    5.0725   C.3       1 RES1   0.0000
    38 C31      -4.8772   -3.3729    1.2343   C.3       1 RES1   0.0000
    39 C32      -5.9608   -2.3115    0.9984   C.3       1 RES1   0.0000
    40 C33      -7.1633   -2.4780    1.9284   C.3       1 RES1   0.0000
    41 C34      -8.1515   -1.3155    1.8141   C.3       1 RES1   0.0000
    42 C35      -7.6395    0.0063    2.3932   C.3       1 RES1   0.0000
    43 C36      -7.3620   -0.0517    3.9051   C.3       1 RES1   0.0000
    44 C37      -5.8755   -0.0117    4.2670   C.3       1 RES1   0.0000
    45 C38      -5.6891   -0.0123    5.7802   C.3       1 RES1   0.0000
    46 H1       -5.3632    0.7927   -8.7774   H         1 RES1   0.0000
    47 H2       -4.9677    0.0176   -7.2397   H         1 RES1   0.0000
    48 H3       -3.9623    1.3199   -7.8741   H         1 RES1   0.0000
    49 H4       -6.8628    1.5538   -6.9316   H         1 RES1   0.0000
    50 H5       -5.9999    2.8420   -7.7607   H         1 RES1   0.0000
    51 H6       -5.7557    3.5320   -5.6079   H         1 RES1   0.0000
    52 H7       -4.2710    2.6166   -5.8234   H         1 RES1   0.0000
    53 H8       -5.3889    0.6725   -4.6787   H         1 RES1   0.0000
    54 H9       -6.8697    1.6126   -4.5517   H         1 RES1   0.0000
    55 H10      -5.8909    3.2379   -3.1310   H         1 RES1   0.0000
    56 H11      -4.2742    2.5904   -3.3393   H         1 RES1   0.0000
    57 H12      -5.7621    0.4967   -2.1167   H         1 RES1   0.0000
    58 H13      -6.2135    1.9666   -1.2965   H         1 RES1   0.0000
    59 H14      -3.3868    0.8665   -1.6218   H         1 RES1   0.0000
    60 H15      -4.3632    0.9928   -0.1527   H         1 RES1   0.0000
    61 H16      -4.4290    3.5376   -0.6379   H         1 RES1   0.0000
    62 H17      -3.1518    3.2372   -1.8333   H         1 RES1   0.0000
    63 H18      -2.5451    4.7962    1.3873   H         1 RES1   0.0000
    64 H19      -2.8494    5.1374   -0.2972   H         1 RES1   0.0000
    65 H20      -0.3319    5.1976    1.2660   H         1 RES1   0.0000
    66 H21      -0.8279    6.0901   -0.1481   H         1 RES1   0.0000
    67 H22      -0.0151    4.4293   -1.6577   H         1 RES1   0.0000
    68 H23       0.3880    3.2963   -0.3780   H         1 RES1   0.0000
    69 H24       2.0470    4.9676    0.5030   H         1 RES1   0.0000
    70 H25       1.6433    6.0315   -0.8501   H         1 RES1   0.0000
    71 H26       2.3524    4.2609   -2.4526   H         1 RES1   0.0000
    72 H27       2.7024    3.1722   -1.0959   H         1 RES1   0.0000
    73 H28       4.4487    4.6784   -0.2755   H         1 RES1   0.0000
    74 H29       4.0990    5.8535   -1.5409   H         1 RES1   0.0000
    75 H30       4.9716    3.0071   -2.2004   H         1 RES1   0.0000
    76 H31       6.1233    4.2888   -1.8235   H         1 RES1   0.0000
    77 H32       4.2044    4.2716   -4.1952   H         1 RES1   0.0000
    78 H33       5.9622    4.1336   -4.2058   H         1 RES1   0.0000
    79 H34       5.2076    5.6505   -3.7242   H         1 RES1   0.0000
    80 H35      -1.6475    3.0908    2.7467   H         1 RES1   0.0000
    81 H36      -0.2996    3.3396    1.6150   H         1 RES1   0.0000
    82 H37      -0.9986    1.8394    4.3769   H         1 RES1   0.0000
    83 H38       0.0910    0.4516    4.0946   H         1 RES1   0.0000
    84 H39      -2.8250    0.6747    3.2034   H         1 RES1   0.0000
    85 H40      -2.2129   -0.3559    4.5312   H         1 RES1   0.0000
    86 H41      -3.7089   -1.1768    2.4648   H         1 RES1   0.0000
    87 H42      -2.8032   -2.5786    3.1098   H         1 RES1   0.0000
    88 H43      -2.7990   -3.0033   -1.3620   H         1 RES1   0.0000
    89 H44      -4.5283   -3.4470   -1.3377   H         1 RES1   0.0000
    90 H45      -3.2776   -5.4087   -1.9328   H         1 RES1   0.0000
    91 H46      -3.7993   -5.6671   -0.2773   H         1 RES1   0.0000
    92 H47      -1.1168   -4.3565   -0.7169   H         1 RES1   0.0000
    93 H48      -1.2428   -6.0888   -1.0322   H         1 RES1   0.0000
    94 H49      -2.0262   -6.4976    1.2567   H         1 RES1   0.0000
    95 H50      -2.0718   -4.7618    1.5795   H         1 RES1   0.0000
    96 H51       0.4269   -4.7052    1.0362   H         1 RES1   0.0000
    97 H52       0.3800   -6.4714    1.0269   H         1 RES1   0.0000
    98 H53       1.1264   -5.7373    3.2140   H         1 RES1   0.0000
    99 H54      -0.4684   -6.4471    3.3832   H         1 RES1   0.0000
   100 H55      -1.5185   -4.3059    3.6303   H         1 RES1   0.0000
   101 H56      -0.1056   -3.4444    3.0432   H         1 RES1   0.0000
   102 H57      -0.3437   -4.9914    5.6735   H         1 RES1   0.0000
   103 H58      -0.2939   -3.2370    5.5051   H         1 RES1   0.0000
   104 H59       1.1268   -4.2007    5.1279   H         1 RES1   0.0000
   105 H60      -4.6615   -3.4584    2.2996   H         1 RES1   0.0000
   106 H61      -5.2475   -4.3401    0.8927   H         1 RES1   0.0000
   107 H62      -6.3115   -2.3650   -0.0323   H         1 RES1   0.0000
   108 H63      -5.5337   -1.3180    1.1436   H         1 RES1   0.0000
   109 H64      -6.8290   -2.5602    2.9596   H         1 RES1   0.0000
   110 H65      -7.6778   -3.4065    1.6894   H         1 RES1   0.0000
   111 H66      -9.0697   -1.5878    2.3367   H         1 RES1   0.0000
   112 H67      -8.4071   -1.1678    0.7640   H         1 RES1   0.0000
   113 H68      -8.3990    0.7650    2.1996   H         1 RES1   0.0000
   114 H69      -6.7356    0.3256    1.8644   H         1 RES1   0.0000
   115 H70      -7.8073   -0.9556    4.3253   H         1 RES1   0.0000
   116 H71      -7.8406    0.7981    4.3927   H         1 RES1   0.0000
   117 H72      -5.4268    0.8957    3.8455   H         1 RES1   0.0000
   118 H73      -5.3603   -0.8750    3.8302   H         1 RES1   0.0000
   119 H74      -6.2171    0.8333    6.2140   H         1 RES1   0.0000
   120 H75      -4.6385    0.0576    6.0573   H         1 RES1   0.0000
   121 H76      -6.0948   -0.9230    6.2134   H         1 RES1   0.0000
   122 C39      10.5444    1.4656    2.4907   C.3       1 RES1   0.0000
   123 C40       9.6820    1.4265    3.7505   C.3       1 RES1   0.0000
   124 C41       8.7143    0.2448    3.7092   C.3       1 RES1   0.0000
   125 C42       7.7211    0.2227    4.8685   C.3       1 RES1   0.0000
   126 C43       6.6752   -0.8751    4.6685   C.3       1 RES1   0.0000
   127 C44       5.4349   -0.6446    5.5292   C.3       1 RES1   0.0000
   128 C45       4.2301   -1.5397    5.1974   C.3       1 RES1   0.0000
   129 C46       3.8044   -1.6880    3.7291   C.3       1 RES1   0.0000
   130 N3        2.9811   -0.6367    3.1304   N.am      1 RES1   0.0000
   131 C47       3.0820    0.7390    3.6082   C.3       1 RES1   0.0000
   132 C48       4.3288    1.4381    3.0666   C.3       1 RES1   0.0000
   133 C49       4.1728    1.9762    1.6369   C.3       1 RES1   0.0000
   134 C50       5.3820    1.6486    0.7597   C.3       1 RES1   0.0000
   135 C51       5.2911    0.2394    0.1833   C.3       1 RES1   0.0000
   136 C52       6.5745   -0.1686   -0.5352   C.3       1 RES1   0.0000
   137 C53       6.4566   -1.4925   -1.2922   C.3       1 RES1   0.0000
   138 C54       6.4020   -2.7042   -0.3679   C.3       1 RES1   0.0000
   139 C55       2.2490   -0.8912    2.0680   C.2       1 RES1   0.0000
   140 O5        1.5413   -0.0206    1.4893   O.2       1 RES1   0.0000
   141 C56       2.1925   -2.2907    1.4658   C.3       1 RES1   0.0000
   142 O6        1.3860   -2.2535    0.2885   O.3       1 RES1   0.0000
   143 C57       2.1640   -2.2030   -0.9174   C.3       1 RES1   0.0000
   144 C58       1.2037   -1.9567   -2.0761   C.3       1 RES1   0.0000
   145 O7        0.5020   -0.7266   -1.8408   O.3       1 RES1   0.0000
   146 C59       0.4570    0.1758   -2.9565   C.3       1 RES1   0.0000
   147 C60      -0.5783    1.2440   -2.5663   C.2       1 RES1   0.0000
   148 O8       -0.4763    1.6077   -1.3775   O.2       1 RES1   0.0000
   149 N4       -1.4794    1.7429   -3.4515   N.am      1 RES1   0.0000
   150 C61      -1.2490    3.1552   -3.8810   C.3       1 RES1   0.0000
   151 C62      -2.3840    4.1367   -4.2504   C.3       1 RES1   0.0000
   152 C63      -2.5799    5.2956   -3.2415   C.3       1 RES1   0.0000
   153 C64      -4.0406    5.7418   -3.0691   C.3       1 RES1   0.0000
   154 C65      -4.2058    6.9651   -2.1384   C.3       1 RES1   0.0000
   155 C66      -5.1303    6.7821   -0.9226   C.3       1 RES1   0.0000
   156 C67      -6.6314    6.8646   -1.2514   C.3       1 RES1   0.0000
   157 C68      -7.3980    5.6695   -0.6914   C.3       1 RES1   0.0000
   158 C69      -2.1991    0.8034   -4.3310   C.3       1 RES1   0.0000
   159 C70      -2.1874   -0.6381   -3.7797   C.3       1 RES1   0.0000
   160 C71      -3.5503   -1.3465   -3.6580   C.3       1 RES1   0.0000
   161 C72      -3.7898   -2.4170   -4.7322   C.3       1 RES1   0.0000
   162 C73      -4.8503   -3.4633   -4.3541   C.3       1 RES1   0.0000
   163 C74      -6.2231   -2.8747   -4.0205   C.3       1 RES1   0.0000
   164 C75      -7.1069   -3.8201   -3.1928   C.3       1 RES1   0.0000
   165 C76      -7.8876   -4.8583   -3.9944   C.3       1 RES1   0.0000
   166 H77      11.2205    2.3167    2.5227   H         1 RES1   0.0000
   167 H78       9.9185    1.5575    1.6016   H         1 RES1   0.0000
   168 H79      11.1348    0.5538    2.4070   H         1 RES1   0.0000
   169 H80       9.1110    2.3567    3.8354   H         1 RES1   0.0000
   170 H81      10.3229    1.3472    4.6315   H         1 RES1   0.0000
   171 H82       9.2834   -0.6860    3.6926   H         1 RES1   0.0000
   172 H83       8.1439    0.2940    2.7756   H         1 RES1   0.0000
   173 H84       7.2181    1.1918    4.9190   H         1 RES1   0.0000
   174 H85       8.2446    0.0801    5.8110   H         1 RES1   0.0000
   175 H86       7.1037   -1.8543    4.8799   H         1 RES1   0.0000
   176 H87       6.4022   -0.8631    3.6109   H         1 RES1   0.0000
   177 H88       5.1604    0.4090    5.4681   H         1 RES1   0.0000
   178 H89       5.6865   -0.8403    6.5732   H         1 RES1   0.0000
   179 H90       3.3763   -1.2204    5.7975   H         1 RES1   0.0000
   180 H91       4.4713   -2.5550    5.5252   H         1 RES1   0.0000
   181 H92       3.2273   -2.6107    3.6803   H         1 RES1   0.0000
   182 H93       4.7026   -1.8243    3.1214   H         1 RES1   0.0000
   183 H94       3.0968    0.7319    4.6967   H         1 RES1   0.0000
   184 H95       2.1970    1.2715    3.2588   H         1 RES1   0.0000
   185 H96       5.1711    0.7525    3.1104   H         1 RES1   0.0000
   186 H97       4.5537    2.2665    3.7333   H         1 RES1   0.0000
   187 H98       4.0333    3.0558    1.6711   H         1 RES1   0.0000
   188 H99       3.2766    1.5609    1.1684   H         1 RES1   0.0000
   189 H100      6.3047    1.7526    1.3305   H         1 RES1   0.0000
   190 H101      5.4456    2.3542   -0.0666   H         1 RES1   0.0000
   191 H102      4.4556    0.2069   -0.5250   H         1 RES1   0.0000
   192 H103      5.0691   -0.4752    0.9791   H         1 RES1   0.0000
   193 H104      7.3829   -0.2485    0.1927   H         1 RES1   0.0000
   194 H105      6.8404    0.6185   -1.2422   H         1 RES1   0.0000
   195 H106      7.3223   -1.5980   -1.9501   H         1 RES1   0.0000
   196 H107      5.5594   -1.4690   -1.9201   H         1 RES1   0.0000
   197 H108      7.2914   -2.7368    0.2564   H         1 RES1   0.0000
   198 H109      6.3606   -3.6199   -0.9513   H         1 RES1   0.0000
   199 H110      5.5242   -2.6812    0.2801   H         1 RES1   0.0000
   200 H111      1.7029   -2.9714    2.1712   H         1 RES1   0.0000
   201 H112      3.1963   -2.6645    1.2485   H         1 RES1   0.0000
   202 H113      2.6908   -3.1527   -1.0774   H         1 RES1   0.0000
   203 H114      2.8999   -1.3863   -0.8707   H         1 RES1   0.0000
   204 H115      0.4626   -2.7637   -2.1336   H         1 RES1   0.0000
   205 H116      1.7490   -1.9016   -3.0203   H         1 RES1   0.0000
   206 H117      0.2831   -0.3497   -3.8977   H         1 RES1   0.0000
   207 H118      1.4050    0.7451   -3.0229   H         1 RES1   0.0000
   208 H119     -0.5720    3.0773   -4.7431   H         1 RES1   0.0000
   209 H120     -0.6955    3.5895   -3.0502   H         1 RES1   0.0000
   210 H121     -3.3262    3.6185   -4.4109   H         1 RES1   0.0000
   211 H122     -2.1194    4.5692   -5.2178   H         1 RES1   0.0000
   212 H123     -2.0084    6.1618   -3.5790   H         1 RES1   0.0000
   213 H124     -2.1800    5.0109   -2.2705   H         1 RES1   0.0000
   214 H125     -4.6336    4.9162   -2.6833   H         1 RES1   0.0000
   215 H126     -4.4271    6.0003   -4.0517   H         1 RES1   0.0000
   216 H127     -4.6034    7.8079   -2.7078   H         1 RES1   0.0000
   217 H128     -3.2279    7.2747   -1.7629   H         1 RES1   0.0000
   218 H129     -4.8866    7.5652   -0.2012   H         1 RES1   0.0000
   219 H130     -4.9368    5.8266   -0.4249   H         1 RES1   0.0000
   220 H131     -6.7775    6.9118   -2.3309   H         1 RES1   0.0000
   221 H132     -7.0494    7.7873   -0.8451   H         1 RES1   0.0000
   222 H133     -7.0096    4.7390   -1.1184   H         1 RES1   0.0000
   223 H134     -8.4554    5.7363   -0.9482   H         1 RES1   0.0000
   224 H135     -7.3010    5.6344    0.3966   H         1 RES1   0.0000
   225 H136     -1.8216    0.8428   -5.3550   H         1 RES1   0.0000
   226 H137     -3.2295    1.1645   -4.3637   H         1 RES1   0.0000
   227 H138     -1.7561   -0.6346   -2.7685   H         1 RES1   0.0000
   228 H139     -1.5505   -1.2582   -4.4132   H         1 RES1   0.0000
   229 H140     -4.3536   -0.6138   -3.6754   H         1 RES1   0.0000
   230 H141     -3.5877   -1.8302   -2.6834   H         1 RES1   0.0000
   231 H142     -2.8579   -2.9609   -4.9141   H         1 RES1   0.0000
   232 H143     -4.0880   -1.9215   -5.6557   H         1 RES1   0.0000
   233 H144     -4.4861   -4.0376   -3.4974   H         1 RES1   0.0000
   234 H145     -4.9465   -4.1593   -5.1880   H         1 RES1   0.0000
   235 H146     -6.7319   -2.5932   -4.9440   H         1 RES1   0.0000
   236 H147     -6.0740   -1.9644   -3.4356   H         1 RES1   0.0000
   237 H148     -7.8222   -3.2122   -2.6324   H         1 RES1   0.0000
   238 H149     -6.4806   -4.3442   -2.4611   H         1 RES1   0.0000
   239 H150     -8.5651   -4.3784   -4.6994   H         1 RES1   0.0000
   240 H151     -8.4846   -5.4574   -3.3079   H         1 RES1   0.0000
   241 H152     -7.2268   -5.5304   -4.5398   H         1 RES1   0.0000
@<TRIPOS>BOND
     1     1    20    1
     2     1    22    1
     3     1    25    1
     4     1    28    1
     5     1   140    1
     6     1   142    1
     7     1   145    1
     8     1   148    1
     9     2     3    1
    10     2    46    1
    11     2    47    1
    12     2    48    1
    13     3     4    1
    14     3    49    1
    15     3    50    1
    16     4     5    1
    17     4    51    1
    18     4    52    1
    19     5     6    1
    20     5    53    1
    21     5    54    1
    22     6     7    1
    23     6    55    1
    24     6    56    1
    25     7     8    1
    26     7    57    1
    27     7    58    1
    28     8     9    1
    29     8    59    1
    30     8    60    1
    31     9    10    1
    32     9    61    1
    33     9    62    1
    34    10    11    1
    35    10    19    1
    36    11    12    1
    37    11    63    1
    38    11    64    1
    39    12    13    1
    40    12    65    1
    41    12    66    1
    42    13    14    1
    43    13    67    1
    44    13    68    1
    45    14    15    1
    46    14    69    1
    47    14    70    1
    48    15    16    1
    49    15    71    1
    50    15    72    1
    51    16    17    1
    52    16    73    1
    53    16    74    1
    54    17    18    1
    55    17    75    1
    56    17    76    1
    57    18    77    1
    58    18    78    1
    59    18    79    1
    60    19    20    2
    61    19    21    1
    62    21    22    1
    63    21    80    1
    64    21    81    1
    65    22    23    1
    66    23    24    1
    67    23    82    1
    68    23    83    1
    69    24    25    1
    70    24    84    1
    71    24    85    1
    72    25    26    1
    73    26    27    1
    74    26    86    1
    75    26    87    1
    76    27    28    2
    77    27    29    1
    78    29    30    1
    79    29    38    1
    80    30    31    1
    81    30    88    1
    82    30    89    1
    83    31    32    1
    84    31    90    1
    85    31    91    1
    86    32    33    1
    87    32    92    1
    88    32    93    1
    89    33    34    1
    90    33    94    1
    91    33    95    1
    92    34    35    1
    93    34    96    1
    94    34    97    1
    95    35    36    1
    96    35    98    1
    97    35    99    1
    98    36    37    1
    99    36   100    1
   100    36   101    1
   101    37   102    1
   102    37   103    1
   103    37   104    1
   104    38    39    1
   105    38   105    1
   106    38   106    1
   107    39    40    1
   108    39   107    1
   109    39   108    1
   110    40    41    1
   111    40   109    1
   112    40   110    1
   113    41    42    1
   114    41   111    1
   115    41   112    1
   116    42    43    1
   117    42   113    1
   118    42   114    1
   119    43    44    1
   120    43   115    1
   121    43   116    1
   122    44    45    1
   123    44   117    1
   124    44   118    1
   125    45   119    1
   126    45   120    1
   127    45   121    1
   128   122   123    1
   129   122   166    1
   130   122   167    1
   131   122   168    1
   132   123   124    1
   133   123   169    1
   134   123   170    1
   135   124   125    1
   136   124   171    1
   137   124   172    1
   138   125   126    1
   139   125   173    1
   140   125   174    1
   141   126   127    1
   142   126   175    1
   143   126   176    1
   144   127   128    1
   145   127   177    1
   146   127   178    1
   147   128   129    1
   148   128   179    1
   149   128   180    1
   150   129   130    1
   151   129   181    1
   152   129   182    1
   153   130   131    1
   154   130   139    1
   155   131   132    1
   156   131   183    1
   157   131   184    1
   158   132   133    1
   159   132   185    1
   160   132   186    1
   161   133   134    1
   162   133   187    1
   163   133   188    1
   164   134   135    1
   165   134   189    1
   166   134   190    1
   167   135   136    1
   168   135   191    1
   169   135   192    1
   170   136   137    1
   171   136   193    1
   172   136   194    1
   173   137   138    1
   174   137   195    1
   175   137   196    1
   176   138   197    1
   177   138   198    1
   178   138   199    1
   179   139   140    2
   180   139   141    1
   181   141   142    1
   182   141   200    1
   183   141   201    1
   184   142   143    1
   185   143   144    1
   186   143   202    1
   187   143   203    1
   188   144   145    1
   189   144   204    1
   190   144   205    1
   191   145   146    1
   192   146   147    1
   193   146   206    1
   194   146   207    1
   195   147   148    2
   196   147   149    1
   197   149   150    1
   198   149   158    1
   199   150   151    1
   200   150   208    1
   201   150   209    1
   202   151   152    1
   203   151   210    1
   204   151   211    1
   205   152   153    1
   206   152   212    1
   207   152   213    1
   208   153   154    1
   209   153   214    1
   210   153   215    1
   211   154   155    1
   212   154   216    1
   213   154   217    1
   214   155   156    1
   215   155   218    1
   216   155   219    1
   217   156   157    1
   218   156   220    1
   219   156   221    1
   220   157   222    1
   221   157   223    1
   222   157   224    1
   223   158   159    1
   224   158   225    1
   225   158   226    1
   226   159   160    1
   227   159   227    1
   228   159   228    1
   229   160   161    1
   230   160   229    1
   231   160   230    1
   232   161   162    1
   233   161   231    1
   234   161   232    1
   235   162   163    1
   236   162   233    1
   237   162   234    1
   238   163   164    1
   239   163   235    1
   240   163   236    1
   241   164   165    1
   242   164   237    1
   243   164   238    1
   244   165   239    1
   245   165   240    1
   246   165   241    1
@<TRIPOS>SUBSTRUCTURE
     1 RES1      241 GROUP             0 ****  ****    0  
