@<TRIPOS>MOLECULE
axial_bicapped_trigonal_prismatic_0_nunpairedes_0_charge_3 Charge: 3 Unpaired_Electrons: 4 XTB_Unpaired_Electrons: 0 XTB_Charge: 3
   281   284     1     0     0
SMALL
NoCharges
****
Generated from Architector

@<TRIPOS>ATOM
     1 Ho1      -0.0436    0.1166   -0.1017   Ho        1 RES1   0.0000
     2 C1       -5.9878    0.4715   -9.8975   C.3       1 RES1   0.0000
     3 C2       -4.7931    1.1873   -9.2799   C.3       1 RES1   0.0000
     4 C3       -3.5533    0.2941   -9.2367   C.3       1 RES1   0.0000
     5 C4       -2.3816    1.0038   -8.5640   C.3       1 RES1   0.0000
     6 C5       -1.1257    0.1365   -8.4991   C.3       1 RES1   0.0000
     7 C6        0.0500    0.8413   -7.8165   C.3       1 RES1   0.0000
     8 C7       -0.1931    1.1425   -6.3339   C.3       1 RES1   0.0000
     9 C8       -0.1607   -0.1162   -5.4567   C.3       1 RES1   0.0000
    10 N1       -0.8446    0.0623   -4.1807   N.am      1 RES1   0.0000
    11 C9       -2.2760   -0.2437   -4.1228   C.3       1 RES1   0.0000
    12 C10      -3.2584    0.9139   -4.3168   C.3       1 RES1   0.0000
    13 C11      -3.1819    2.0107   -3.2532   C.3       1 RES1   0.0000
    14 C12      -2.1060    3.0662   -3.5353   C.3       1 RES1   0.0000
    15 C13      -2.6304    4.2895   -4.2916   C.3       1 RES1   0.0000
    16 C14      -3.1548    3.9415   -5.6797   C.3       1 RES1   0.0000
    17 C15      -1.5578    5.3815   -4.3696   C.3       1 RES1   0.0000
    18 C16      -0.2620    4.9739   -5.0700   C.3       1 RES1   0.0000
    19 C17       0.6865    6.1682   -5.1784   C.3       1 RES1   0.0000
    20 C18       2.0486    5.8729   -5.8212   C.3       1 RES1   0.0000
    21 C19       2.8481    4.8574   -5.0098   C.3       1 RES1   0.0000
    22 C20       1.9215    5.4044   -7.2675   C.3       1 RES1   0.0000
    23 C21      -0.2435    0.4863   -3.0885   C.2       1 RES1   0.0000
    24 O1       -0.8527    0.7425   -2.0194   O.2       1 RES1   0.0000
    25 C22       1.2802    0.6486   -3.0311   C.3       1 RES1   0.0000
    26 O2        1.6235    1.0158   -1.6983   O.3       1 RES1   0.0000
    27 C23       1.5770    2.4349   -1.4881   C.3       1 RES1   0.0000
    28 C24       1.5612    2.6552    0.0356   C.2       1 RES1   0.0000
    29 O3        1.0779    1.7119    0.7037   O.2       1 RES1   0.0000
    30 N2        1.9872    3.7794    0.5770   N.am      1 RES1   0.0000
    31 C25       2.3740    4.9552   -0.1967   C.3       1 RES1   0.0000
    32 C26       1.3762    6.1110   -0.0319   C.3       1 RES1   0.0000
    33 C27      -0.0429    5.7032   -0.4172   C.3       1 RES1   0.0000
    34 C28      -1.0680    6.7371    0.0540   C.3       1 RES1   0.0000
    35 C29      -2.5147    6.4099   -0.3318   C.3       1 RES1   0.0000
    36 C30      -2.9667    5.0420    0.1811   C.3       1 RES1   0.0000
    37 C31      -4.4322    4.7056   -0.1048   C.3       1 RES1   0.0000
    38 C32      -5.4179    5.5451    0.6964   C.3       1 RES1   0.0000
    39 C33       1.9357    4.0468    2.0261   C.3       1 RES1   0.0000
    40 C34       2.0808    2.8704    2.9885   C.3       1 RES1   0.0000
    41 C35       3.4269    2.1503    2.8770   C.3       1 RES1   0.0000
    42 C36       3.3603    0.7333    3.4512   C.3       1 RES1   0.0000
    43 C37       2.8947    0.6481    4.9096   C.3       1 RES1   0.0000
    44 C38       3.8955    1.3205    5.8446   C.3       1 RES1   0.0000
    45 C39       2.6960   -0.8139    5.3321   C.3       1 RES1   0.0000
    46 C40       1.4822   -1.5037    4.6914   C.3       1 RES1   0.0000
    47 C41       0.2262   -1.5748    5.5696   C.3       1 RES1   0.0000
    48 C42      -0.5123   -0.2443    5.7873   C.3       1 RES1   0.0000
    49 C43      -2.0140   -0.4781    5.9728   C.3       1 RES1   0.0000
    50 C44      -0.0046    0.5045    7.0162   C.3       1 RES1   0.0000
    51 H1       -6.8492    1.1338   -9.9338   H         1 RES1   0.0000
    52 H2       -6.2530   -0.4083   -9.3126   H         1 RES1   0.0000
    53 H3       -5.7542    0.1553  -10.9112   H         1 RES1   0.0000
    54 H4       -5.0472    1.5049   -8.2631   H         1 RES1   0.0000
    55 H5       -4.5635    2.0837   -9.8595   H         1 RES1   0.0000
    56 H6       -3.2705    0.0082  -10.2509   H         1 RES1   0.0000
    57 H7       -3.7895   -0.6210   -8.6857   H         1 RES1   0.0000
    58 H8       -2.7024    1.2810   -7.5569   H         1 RES1   0.0000
    59 H9       -2.1594    1.9252   -9.1069   H         1 RES1   0.0000
    60 H10      -0.8329   -0.1263   -9.5164   H         1 RES1   0.0000
    61 H11      -1.3572   -0.8034   -7.9903   H         1 RES1   0.0000
    62 H12       0.2254    1.7926   -8.3231   H         1 RES1   0.0000
    63 H13       0.9486    0.2343   -7.9259   H         1 RES1   0.0000
    64 H14      -1.1677    1.6121   -6.2507   H         1 RES1   0.0000
    65 H15       0.5435    1.8667   -5.9837   H         1 RES1   0.0000
    66 H16       0.8700   -0.4324   -5.2876   H         1 RES1   0.0000
    67 H17      -0.6740   -0.9203   -5.9831   H         1 RES1   0.0000
    68 H18      -2.4532   -0.6996   -3.1446   H         1 RES1   0.0000
    69 H19      -2.4745   -0.9867   -4.8960   H         1 RES1   0.0000
    70 H20      -4.2511    0.4604   -4.2946   H         1 RES1   0.0000
    71 H21      -3.1338    1.3489   -5.3042   H         1 RES1   0.0000
    72 H22      -2.9755    1.5426   -2.2893   H         1 RES1   0.0000
    73 H23      -4.1573    2.4942   -3.1855   H         1 RES1   0.0000
    74 H24      -1.2975    2.6180   -4.1110   H         1 RES1   0.0000
    75 H25      -1.6787    3.4047   -2.5847   H         1 RES1   0.0000
    76 H26      -3.4681    4.7007   -3.7188   H         1 RES1   0.0000
    77 H27      -2.4086    3.4181   -6.2701   H         1 RES1   0.0000
    78 H28      -3.4173    4.8500   -6.2105   H         1 RES1   0.0000
    79 H29      -4.0506    3.3330   -5.6162   H         1 RES1   0.0000
    80 H30      -1.3164    5.7183   -3.3578   H         1 RES1   0.0000
    81 H31      -1.9835    6.2343   -4.8980   H         1 RES1   0.0000
    82 H32      -0.4883    4.6026   -6.0679   H         1 RES1   0.0000
    83 H33       0.2276    4.1716   -4.5092   H         1 RES1   0.0000
    84 H34       0.8590    6.5744   -4.1773   H         1 RES1   0.0000
    85 H35       0.1958    6.9464   -5.7630   H         1 RES1   0.0000
    86 H36       2.6053    6.8153   -5.8174   H         1 RES1   0.0000
    87 H37       2.3687    3.8800   -5.0576   H         1 RES1   0.0000
    88 H38       2.9290    5.1673   -3.9683   H         1 RES1   0.0000
    89 H39       3.8507    4.7622   -5.4160   H         1 RES1   0.0000
    90 H40       1.4424    4.4290   -7.3279   H         1 RES1   0.0000
    91 H41       2.9060    5.3242   -7.7203   H         1 RES1   0.0000
    92 H42       1.3384    6.1131   -7.8476   H         1 RES1   0.0000
    93 H43       1.6505    1.3879   -3.7490   H         1 RES1   0.0000
    94 H44       1.7803   -0.3073   -3.2233   H         1 RES1   0.0000
    95 H45       0.6394    2.8482   -1.8947   H         1 RES1   0.0000
    96 H46       2.4353    2.8920   -1.9915   H         1 RES1   0.0000
    97 H47       2.4413    4.6970   -1.2506   H         1 RES1   0.0000
    98 H48       3.3571    5.2864    0.1438   H         1 RES1   0.0000
    99 H49       1.7113    6.9384   -0.6565   H         1 RES1   0.0000
   100 H50       1.3816    6.4741    0.9954   H         1 RES1   0.0000
   101 H51      -0.2576    4.7352    0.0443   H         1 RES1   0.0000
   102 H52      -0.1092    5.5818   -1.5003   H         1 RES1   0.0000
   103 H53      -0.8104    7.7038   -0.3795   H         1 RES1   0.0000
   104 H54      -1.0001    6.8360    1.1408   H         1 RES1   0.0000
   105 H55      -2.6175    6.4385   -1.4186   H         1 RES1   0.0000
   106 H56      -3.1567    7.1858    0.0857   H         1 RES1   0.0000
   107 H57      -2.7896    4.9955    1.2606   H         1 RES1   0.0000
   108 H58      -2.3492    4.2860   -0.3198   H         1 RES1   0.0000
   109 H59      -4.5929    3.6483    0.1355   H         1 RES1   0.0000
   110 H60      -4.6303    4.8337   -1.1699   H         1 RES1   0.0000
   111 H61      -5.2108    5.4799    1.7620   H         1 RES1   0.0000
   112 H62      -6.4313    5.1946    0.5230   H         1 RES1   0.0000
   113 H63      -5.3747    6.5885    0.4030   H         1 RES1   0.0000
   114 H64       0.9898    4.5574    2.2351   H         1 RES1   0.0000
   115 H65       2.7480    4.7485    2.2268   H         1 RES1   0.0000
   116 H66       1.2750    2.1477    2.8463   H         1 RES1   0.0000
   117 H67       1.9706    3.2926    3.9890   H         1 RES1   0.0000
   118 H68       4.2056    2.7274    3.3757   H         1 RES1   0.0000
   119 H69       3.7136    2.0700    1.8255   H         1 RES1   0.0000
   120 H70       4.3497    0.2811    3.3699   H         1 RES1   0.0000
   121 H71       2.6800    0.1541    2.8159   H         1 RES1   0.0000
   122 H72       1.9341    1.1582    5.0077   H         1 RES1   0.0000
   123 H73       4.8666    0.8400    5.7700   H         1 RES1   0.0000
   124 H74       3.5637    1.2532    6.8774   H         1 RES1   0.0000
   125 H75       4.0147    2.3730    5.6071   H         1 RES1   0.0000
   126 H76       2.5919   -0.8483    6.4157   H         1 RES1   0.0000
   127 H77       3.5982   -1.3754    5.0845   H         1 RES1   0.0000
   128 H78       1.7643   -2.5347    4.4556   H         1 RES1   0.0000
   129 H79       1.2362   -1.0049    3.7480   H         1 RES1   0.0000
   130 H80       0.5012   -1.9967    6.5359   H         1 RES1   0.0000
   131 H81      -0.4698   -2.2798    5.1035   H         1 RES1   0.0000
   132 H82      -0.3563    0.3914    4.9020   H         1 RES1   0.0000
   133 H83      -2.1865   -1.0346    6.8892   H         1 RES1   0.0000
   134 H84      -2.4593   -1.0446    5.1562   H         1 RES1   0.0000
   135 H85      -2.5354    0.4732    6.0593   H         1 RES1   0.0000
   136 H86      -0.1815   -0.0828    7.9130   H         1 RES1   0.0000
   137 H87      -0.5294    1.4503    7.1261   H         1 RES1   0.0000
   138 H88       1.0555    0.7133    6.9518   H         1 RES1   0.0000
   139 C45     -11.0687    0.6344   -0.1086   C.3       1 RES1   0.0000
   140 C46     -10.0051   -0.1990    0.5943   C.3       1 RES1   0.0000
   141 C47      -9.3484    0.5506    1.7549   C.3       1 RES1   0.0000
   142 C48      -8.2582   -0.3003    2.4061   C.3       1 RES1   0.0000
   143 C49      -7.5253    0.4199    3.5377   C.3       1 RES1   0.0000
   144 C50      -6.4440   -0.4397    4.2040   C.3       1 RES1   0.0000
   145 C51      -5.3438   -0.9408    3.2555   C.3       1 RES1   0.0000
   146 C52      -4.4800    0.2203    2.7358   C.3       1 RES1   0.0000
   147 N3       -3.8544    0.0208    1.4329   N.am      1 RES1   0.0000
   148 C53      -4.5572    0.5117    0.2404   C.3       1 RES1   0.0000
   149 C54      -5.4225   -0.5071   -0.5139   C.3       1 RES1   0.0000
   150 C55      -4.6433   -1.5167   -1.3617   C.3       1 RES1   0.0000
   151 C56      -4.1185   -2.7183   -0.5713   C.3       1 RES1   0.0000
   152 C57      -5.0341   -3.9468   -0.5428   C.3       1 RES1   0.0000
   153 C58      -6.4468   -3.6322   -0.0616   C.3       1 RES1   0.0000
   154 C59      -4.3850   -5.0489    0.3088   C.3       1 RES1   0.0000
   155 C60      -4.0798   -4.6385    1.7502   C.3       1 RES1   0.0000
   156 C61      -3.6038   -5.8318    2.5754   C.3       1 RES1   0.0000
   157 C62      -3.2368   -5.5223    4.0340   C.3       1 RES1   0.0000
   158 C63      -1.9817   -4.6596    4.1443   C.3       1 RES1   0.0000
   159 C64      -4.3874   -4.8790    4.8020   C.3       1 RES1   0.0000
   160 C65      -2.6406   -0.4656    1.2683   C.2       1 RES1   0.0000
   161 O4       -2.0946   -0.5545    0.1395   O.2       1 RES1   0.0000
   162 C66      -1.8008   -0.9786    2.4361   C.3       1 RES1   0.0000
   163 O5       -0.4687   -1.1638    1.9554   O.3       1 RES1   0.0000
   164 C67      -0.0637   -2.5297    1.7897   C.3       1 RES1   0.0000
   165 C68       1.1844   -2.5065    0.8806   C.2       1 RES1   0.0000
   166 O6        1.4062   -1.4093    0.3166   O.2       1 RES1   0.0000
   167 N4        1.9325   -3.5804    0.7335   N.am      1 RES1   0.0000
   168 C69       1.5535   -4.8867    1.2762   C.3       1 RES1   0.0000
   169 C70       1.1550   -5.9109    0.1984   C.3       1 RES1   0.0000
   170 C71       0.0708   -5.4043   -0.7506   C.3       1 RES1   0.0000
   171 C72      -0.1527   -6.3750   -1.9152   C.3       1 RES1   0.0000
   172 C73      -1.3149   -5.9994   -2.8433   C.3       1 RES1   0.0000
   173 C74      -1.0913   -4.6681   -3.5583   C.3       1 RES1   0.0000
   174 C75      -2.2295   -4.2243   -4.4786   C.3       1 RES1   0.0000
   175 C76      -2.2986   -5.0222   -5.7715   C.3       1 RES1   0.0000
   176 C77       3.1432   -3.6649   -0.1092   C.3       1 RES1   0.0000
   177 C78       3.7818   -2.3982   -0.6807   C.3       1 RES1   0.0000
   178 C79       4.6710   -1.6649    0.3245   C.3       1 RES1   0.0000
   179 C80       5.1063   -0.2857   -0.1722   C.3       1 RES1   0.0000
   180 C81       5.9114   -0.2666   -1.4784   C.3       1 RES1   0.0000
   181 C82       7.2462   -0.9907   -1.3326   C.3       1 RES1   0.0000
   182 C83       6.1734    1.1837   -1.9104   C.3       1 RES1   0.0000
   183 C84       4.9265    1.9229   -2.4104   C.3       1 RES1   0.0000
   184 C85       4.7452    1.9771   -3.9307   C.3       1 RES1   0.0000
   185 C86       4.5141    0.6391   -4.6515   C.3       1 RES1   0.0000
   186 C87       3.6307    0.8481   -5.8825   C.3       1 RES1   0.0000
   187 C88       5.8194   -0.0030   -5.1090   C.3       1 RES1   0.0000
   188 H89     -11.5215    0.0636   -0.9153   H         1 RES1   0.0000
   189 H90     -10.6348    1.5403   -0.5283   H         1 RES1   0.0000
   190 H91     -11.8510    0.9174    0.5903   H         1 RES1   0.0000
   191 H92      -9.2350   -0.4861   -0.1295   H         1 RES1   0.0000
   192 H93     -10.4565   -1.1161    0.9777   H         1 RES1   0.0000
   193 H94     -10.1029    0.8103    2.4988   H         1 RES1   0.0000
   194 H95      -8.9120    1.4829    1.3827   H         1 RES1   0.0000
   195 H96      -7.5501   -0.5745    1.6199   H         1 RES1   0.0000
   196 H97      -8.7053   -1.2184    2.7944   H         1 RES1   0.0000
   197 H98      -8.2517    0.7072    4.3001   H         1 RES1   0.0000
   198 H99      -7.0976    1.3534    3.1594   H         1 RES1   0.0000
   199 H100     -6.9205   -1.3118    4.6564   H         1 RES1   0.0000
   200 H101     -5.9873    0.1393    5.0079   H         1 RES1   0.0000
   201 H102     -5.8142   -1.4652    2.4274   H         1 RES1   0.0000
   202 H103     -4.7308   -1.6660    3.7941   H         1 RES1   0.0000
   203 H104     -3.7154    0.4580    3.4787   H         1 RES1   0.0000
   204 H105     -5.1229    1.0940    2.6279   H         1 RES1   0.0000
   205 H106     -3.7976    0.8898   -0.4542   H         1 RES1   0.0000
   206 H107     -5.1970    1.3336    0.5639   H         1 RES1   0.0000
   207 H108     -6.0551    0.0795   -1.1807   H         1 RES1   0.0000
   208 H109     -6.0790   -1.0415    0.1661   H         1 RES1   0.0000
   209 H110     -3.7942   -0.9933   -1.8001   H         1 RES1   0.0000
   210 H111     -5.2727   -1.8679   -2.1815   H         1 RES1   0.0000
   211 H112     -3.9319   -2.4006    0.4520   H         1 RES1   0.0000
   212 H113     -3.1573   -3.0370   -0.9960   H         1 RES1   0.0000
   213 H114     -5.1121   -4.3332   -1.5641   H         1 RES1   0.0000
   214 H115     -6.4454   -3.1398    0.9070   H         1 RES1   0.0000
   215 H116     -7.0102   -4.5540    0.0398   H         1 RES1   0.0000
   216 H117     -6.9708   -3.0025   -0.7741   H         1 RES1   0.0000
   217 H118     -3.4587   -5.3768   -0.1735   H         1 RES1   0.0000
   218 H119     -5.0550   -5.9080    0.3285   H         1 RES1   0.0000
   219 H120     -4.9800   -4.2253    2.2015   H         1 RES1   0.0000
   220 H121     -3.3062   -3.8636    1.7583   H         1 RES1   0.0000
   221 H122     -2.7348   -6.2782    2.0840   H         1 RES1   0.0000
   222 H123     -4.3949   -6.5810    2.5791   H         1 RES1   0.0000
   223 H124     -3.0129   -6.4833    4.5049   H         1 RES1   0.0000
   224 H125     -2.1714   -3.6599    3.7529   H         1 RES1   0.0000
   225 H126     -1.1542   -5.1076    3.5959   H         1 RES1   0.0000
   226 H127     -1.6892   -4.5599    5.1856   H         1 RES1   0.0000
   227 H128     -4.5958   -3.8740    4.4391   H         1 RES1   0.0000
   228 H129     -4.1383   -4.8105    5.8571   H         1 RES1   0.0000
   229 H130     -5.2897   -5.4739    4.7022   H         1 RES1   0.0000
   230 H131     -2.2369   -1.9133    2.8036   H         1 RES1   0.0000
   231 H132     -1.7475   -0.2626    3.2614   H         1 RES1   0.0000
   232 H133     -0.8665   -3.1093    1.3167   H         1 RES1   0.0000
   233 H134      0.1712   -2.9493    2.7730   H         1 RES1   0.0000
   234 H135      0.7305   -4.7633    1.9760   H         1 RES1   0.0000
   235 H136      2.4006   -5.2968    1.8292   H         1 RES1   0.0000
   236 H137      0.8082   -6.8093    0.7095   H         1 RES1   0.0000
   237 H138      2.0314   -6.2028   -0.3805   H         1 RES1   0.0000
   238 H139      0.3888   -4.4335   -1.1364   H         1 RES1   0.0000
   239 H140     -0.8662   -5.2673   -0.2049   H         1 RES1   0.0000
   240 H141     -0.3553   -7.3627   -1.5008   H         1 RES1   0.0000
   241 H142      0.7636   -6.4470   -2.5057   H         1 RES1   0.0000
   242 H143     -2.2416   -5.9498   -2.2653   H         1 RES1   0.0000
   243 H144     -1.4279   -6.7938   -3.5809   H         1 RES1   0.0000
   244 H145     -0.1616   -4.7139   -4.1311   H         1 RES1   0.0000
   245 H146     -0.9842   -3.9007   -2.7889   H         1 RES1   0.0000
   246 H147     -2.0667   -3.1699   -4.7241   H         1 RES1   0.0000
   247 H148     -3.1811   -4.2962   -3.9478   H         1 RES1   0.0000
   248 H149     -1.3471   -4.9793   -6.2960   H         1 RES1   0.0000
   249 H150     -3.0682   -4.6190   -6.4236   H         1 RES1   0.0000
   250 H151     -2.5363   -6.0618   -5.5737   H         1 RES1   0.0000
   251 H152      2.8925   -4.3266   -0.9413   H         1 RES1   0.0000
   252 H153      3.8954   -4.1770    0.4972   H         1 RES1   0.0000
   253 H154      3.0324   -1.7104   -1.0739   H         1 RES1   0.0000
   254 H155      4.3925   -2.7294   -1.5222   H         1 RES1   0.0000
   255 H156      5.5475   -2.2730    0.5460   H         1 RES1   0.0000
   256 H157      4.1251   -1.5250    1.2603   H         1 RES1   0.0000
   257 H158      5.7067    0.1832    0.6087   H         1 RES1   0.0000
   258 H159      4.2013    0.3173   -0.2967   H         1 RES1   0.0000
   259 H160      5.3330   -0.7607   -2.2628   H         1 RES1   0.0000
   260 H161      7.8457   -0.5273   -0.5545   H         1 RES1   0.0000
   261 H162      7.8088   -0.9423   -2.2617   H         1 RES1   0.0000
   262 H163      7.1128   -2.0395   -1.0862   H         1 RES1   0.0000
   263 H164      6.9330    1.1893   -2.6902   H         1 RES1   0.0000
   264 H165      6.5916    1.7268   -1.0615   H         1 RES1   0.0000
   265 H166      4.9773    2.9600   -2.0634   H         1 RES1   0.0000
   266 H167      4.0453    1.4638   -1.9565   H         1 RES1   0.0000
   267 H168      5.6142    2.4712   -4.3639   H         1 RES1   0.0000
   268 H169      3.8847    2.6210   -4.1289   H         1 RES1   0.0000
   269 H170      4.0047   -0.0543   -3.9681   H         1 RES1   0.0000
   270 H171      4.1239    1.5160   -6.5826   H         1 RES1   0.0000
   271 H172      2.6659    1.2850   -5.6292   H         1 RES1   0.0000
   272 H173      3.4519   -0.0966   -6.3909   H         1 RES1   0.0000
   273 H174      6.3602    0.6679   -5.7707   H         1 RES1   0.0000
   274 H175      5.6171   -0.9205   -5.6553   H         1 RES1   0.0000
   275 H176      6.4592   -0.2445   -4.2698   H         1 RES1   0.0000
   276 O7       -1.5491    2.1005    0.9503   O.3       1 RES1   0.0000
   277 H177     -2.1639    2.6891    0.4686   H         1 RES1   0.0000
   278 H178     -1.3921    2.5409    1.7958   H         1 RES1   0.0000
   279 O8       -0.3705   -1.9362   -1.5641   O.3       1 RES1   0.0000
   280 H179     -1.2682   -2.2367   -1.3355   H         1 RES1   0.0000
   281 H180     -0.0180   -2.6043   -2.1835   H         1 RES1   0.0000
@<TRIPOS>BOND
     1     1    24    1
     2     1    26    1
     3     1    29    1
     4     1   161    1
     5     1   163    1
     6     1   166    1
     7     1   276    1
     8     1   279    1
     9     2     3    1
    10     2    51    1
    11     2    52    1
    12     2    53    1
    13     3     4    1
    14     3    54    1
    15     3    55    1
    16     4     5    1
    17     4    56    1
    18     4    57    1
    19     5     6    1
    20     5    58    1
    21     5    59    1
    22     6     7    1
    23     6    60    1
    24     6    61    1
    25     7     8    1
    26     7    62    1
    27     7    63    1
    28     8     9    1
    29     8    64    1
    30     8    65    1
    31     9    10    1
    32     9    66    1
    33     9    67    1
    34    10    11    1
    35    10    23    1
    36    11    12    1
    37    11    68    1
    38    11    69    1
    39    12    13    1
    40    12    70    1
    41    12    71    1
    42    13    14    1
    43    13    72    1
    44    13    73    1
    45    14    15    1
    46    14    74    1
    47    14    75    1
    48    15    16    1
    49    15    17    1
    50    15    76    1
    51    16    77    1
    52    16    78    1
    53    16    79    1
    54    17    18    1
    55    17    80    1
    56    17    81    1
    57    18    19    1
    58    18    82    1
    59    18    83    1
    60    19    20    1
    61    19    84    1
    62    19    85    1
    63    20    21    1
    64    20    22    1
    65    20    86    1
    66    21    87    1
    67    21    88    1
    68    21    89    1
    69    22    90    1
    70    22    91    1
    71    22    92    1
    72    23    24    2
    73    23    25    1
    74    25    26    1
    75    25    93    1
    76    25    94    1
    77    26    27    1
    78    27    28    1
    79    27    95    1
    80    27    96    1
    81    28    29    2
    82    28    30    1
    83    30    31    1
    84    30    39    1
    85    31    32    1
    86    31    97    1
    87    31    98    1
    88    32    33    1
    89    32    99    1
    90    32   100    1
    91    33    34    1
    92    33   101    1
    93    33   102    1
    94    34    35    1
    95    34   103    1
    96    34   104    1
    97    35    36    1
    98    35   105    1
    99    35   106    1
   100    36    37    1
   101    36   107    1
   102    36   108    1
   103    37    38    1
   104    37   109    1
   105    37   110    1
   106    38   111    1
   107    38   112    1
   108    38   113    1
   109    39    40    1
   110    39   114    1
   111    39   115    1
   112    40    41    1
   113    40   116    1
   114    40   117    1
   115    41    42    1
   116    41   118    1
   117    41   119    1
   118    42    43    1
   119    42   120    1
   120    42   121    1
   121    43    44    1
   122    43    45    1
   123    43   122    1
   124    44   123    1
   125    44   124    1
   126    44   125    1
   127    45    46    1
   128    45   126    1
   129    45   127    1
   130    46    47    1
   131    46   128    1
   132    46   129    1
   133    47    48    1
   134    47   130    1
   135    47   131    1
   136    48    49    1
   137    48    50    1
   138    48   132    1
   139    49   133    1
   140    49   134    1
   141    49   135    1
   142    50   136    1
   143    50   137    1
   144    50   138    1
   145   139   140    1
   146   139   188    1
   147   139   189    1
   148   139   190    1
   149   140   141    1
   150   140   191    1
   151   140   192    1
   152   141   142    1
   153   141   193    1
   154   141   194    1
   155   142   143    1
   156   142   195    1
   157   142   196    1
   158   143   144    1
   159   143   197    1
   160   143   198    1
   161   144   145    1
   162   144   199    1
   163   144   200    1
   164   145   146    1
   165   145   201    1
   166   145   202    1
   167   146   147    1
   168   146   203    1
   169   146   204    1
   170   147   148    1
   171   147   160    1
   172   148   149    1
   173   148   205    1
   174   148   206    1
   175   149   150    1
   176   149   207    1
   177   149   208    1
   178   150   151    1
   179   150   209    1
   180   150   210    1
   181   151   152    1
   182   151   211    1
   183   151   212    1
   184   152   153    1
   185   152   154    1
   186   152   213    1
   187   153   214    1
   188   153   215    1
   189   153   216    1
   190   154   155    1
   191   154   217    1
   192   154   218    1
   193   155   156    1
   194   155   219    1
   195   155   220    1
   196   156   157    1
   197   156   221    1
   198   156   222    1
   199   157   158    1
   200   157   159    1
   201   157   223    1
   202   158   224    1
   203   158   225    1
   204   158   226    1
   205   159   227    1
   206   159   228    1
   207   159   229    1
   208   160   161    2
   209   160   162    1
   210   162   163    1
   211   162   230    1
   212   162   231    1
   213   163   164    1
   214   164   165    1
   215   164   232    1
   216   164   233    1
   217   165   166    2
   218   165   167    1
   219   167   168    1
   220   167   176    1
   221   168   169    1
   222   168   234    1
   223   168   235    1
   224   169   170    1
   225   169   236    1
   226   169   237    1
   227   170   171    1
   228   170   238    1
   229   170   239    1
   230   171   172    1
   231   171   240    1
   232   171   241    1
   233   172   173    1
   234   172   242    1
   235   172   243    1
   236   173   174    1
   237   173   244    1
   238   173   245    1
   239   174   175    1
   240   174   246    1
   241   174   247    1
   242   175   248    1
   243   175   249    1
   244   175   250    1
   245   176   177    1
   246   176   251    1
   247   176   252    1
   248   177   178    1
   249   177   253    1
   250   177   254    1
   251   178   179    1
   252   178   255    1
   253   178   256    1
   254   179   180    1
   255   179   257    1
   256   179   258    1
   257   180   181    1
   258   180   182    1
   259   180   259    1
   260   181   260    1
   261   181   261    1
   262   181   262    1
   263   182   183    1
   264   182   263    1
   265   182   264    1
   266   183   184    1
   267   183   265    1
   268   183   266    1
   269   184   185    1
   270   184   267    1
   271   184   268    1
   272   185   186    1
   273   185   187    1
   274   185   269    1
   275   186   270    1
   276   186   271    1
   277   186   272    1
   278   187   273    1
   279   187   274    1
   280   187   275    1
   281   276   277    1
   282   276   278    1
   283   279   280    1
   284   279   281    1
@<TRIPOS>SUBSTRUCTURE
     1 RES1      281 GROUP             0 ****  ****    0  
