@<TRIPOS>MOLECULE
YEMSEP_geometry_0_nunpairedes_0_charge_3 Charge: 3 Unpaired_Electrons: 4 XTB_Unpaired_Electrons: 0 XTB_Charge: 3
   233   236     1     0     0
SMALL
NoCharges
****
Generated from Architector

@<TRIPOS>ATOM
     1 Ho1       0.0110   -0.1073   -0.0719   Ho        1 RES1   0.0000
     2 C1      -10.7972    0.4739    4.9282   C.3       1 RES1   0.0000
     3 C2       -9.8493   -0.1782    3.9305   C.3       1 RES1   0.0000
     4 C3       -8.9236    0.8371    3.2612   C.3       1 RES1   0.0000
     5 C4       -7.9231    0.1672    2.3167   C.3       1 RES1   0.0000
     6 C5       -6.7766   -0.4940    3.0892   C.3       1 RES1   0.0000
     7 C6       -6.1767   -1.7263    2.4117   C.3       1 RES1   0.0000
     8 C7       -5.4840   -1.4158    1.0865   C.3       1 RES1   0.0000
     9 C8       -4.7324   -2.6223    0.5125   C.3       1 RES1   0.0000
    10 C9       -3.4745   -2.9753    1.3104   C.3       1 RES1   0.0000
    11 C10      -2.6749   -4.1324    0.7040   C.3       1 RES1   0.0000
    12 N1       -2.2524   -3.8723   -0.6747   N.am      1 RES1   0.0000
    13 C11      -2.5380   -4.9234   -1.6400   C.3       1 RES1   0.0000
    14 C12      -1.6193   -6.1400   -1.4329   C.3       1 RES1   0.0000
    15 C13      -0.1358   -5.8172   -1.6003   C.3       1 RES1   0.0000
    16 C14       0.7554   -6.9977   -1.2073   C.3       1 RES1   0.0000
    17 C15       2.2444   -6.7273   -1.4239   C.3       1 RES1   0.0000
    18 C16       2.8689   -5.6037   -0.5898   C.3       1 RES1   0.0000
    19 C17       2.9950   -5.8747    0.9170   C.3       1 RES1   0.0000
    20 C18       1.8017   -5.4740    1.7934   C.3       1 RES1   0.0000
    21 C19       1.4583   -3.9895    1.6635   C.3       1 RES1   0.0000
    22 C20       0.5812   -3.4320    2.7829   C.3       1 RES1   0.0000
    23 C21      -1.4967   -2.8244   -0.9388   C.2       1 RES1   0.0000
    24 O1       -0.9950   -2.0916   -0.0481   O.2       1 RES1   0.0000
    25 C22      -1.2435   -2.4134   -2.3971   C.3       1 RES1   0.0000
    26 O2       -0.5884   -1.1398   -2.3776   O.3       1 RES1   0.0000
    27 C23      -1.0579   -0.1701   -3.3139   C.3       1 RES1   0.0000
    28 C24      -1.6808    1.0043   -2.5466   C.2       1 RES1   0.0000
    29 O3       -1.6898    0.9277   -1.2943   O.2       1 RES1   0.0000
    30 N2       -2.1838    2.0345   -3.2068   N.am      1 RES1   0.0000
    31 C25      -2.1154    2.1794   -4.6580   C.3       1 RES1   0.0000
    32 C26      -3.4037    1.8275   -5.4078   C.3       1 RES1   0.0000
    33 C27      -3.7955    0.3497   -5.4088   C.3       1 RES1   0.0000
    34 C28      -4.4380   -0.1653   -4.1161   C.3       1 RES1   0.0000
    35 C29      -5.8376    0.4000   -3.8787   C.3       1 RES1   0.0000
    36 C30      -6.4739   -0.2019   -2.6351   C.3       1 RES1   0.0000
    37 C31      -2.9750    3.0337   -2.4813   C.3       1 RES1   0.0000
    38 C32      -2.1704    4.0916   -1.7194   C.3       1 RES1   0.0000
    39 C33      -1.4652    5.1266   -2.6020   C.3       1 RES1   0.0000
    40 C34      -0.7454    6.1843   -1.7586   C.3       1 RES1   0.0000
    41 C35       0.0074    7.2276   -2.5902   C.3       1 RES1   0.0000
    42 C36       1.3480    6.7400   -3.1254   C.3       1 RES1   0.0000
    43 H1      -11.4445   -0.2726    5.3820   H         1 RES1   0.0000
    44 H2      -11.4255    1.2112    4.4352   H         1 RES1   0.0000
    45 H3      -10.2402    0.9697    5.7199   H         1 RES1   0.0000
    46 H4      -10.4342   -0.6858    3.1606   H         1 RES1   0.0000
    47 H5       -9.2601   -0.9382    4.4484   H         1 RES1   0.0000
    48 H6       -8.3817    1.4033    4.0219   H         1 RES1   0.0000
    49 H7       -9.5321    1.5482    2.7026   H         1 RES1   0.0000
    50 H8       -7.5228    0.9097    1.6217   H         1 RES1   0.0000
    51 H9       -8.4506   -0.5841    1.7272   H         1 RES1   0.0000
    52 H10      -7.1463   -0.8069    4.0660   H         1 RES1   0.0000
    53 H11      -5.9900    0.2422    3.2692   H         1 RES1   0.0000
    54 H12      -6.9718   -2.4498    2.2321   H         1 RES1   0.0000
    55 H13      -5.4642   -2.1819    3.1038   H         1 RES1   0.0000
    56 H14      -4.7876   -0.5818    1.2288   H         1 RES1   0.0000
    57 H15      -6.2398   -1.0950    0.3665   H         1 RES1   0.0000
    58 H16      -4.4501   -2.4069   -0.5219   H         1 RES1   0.0000
    59 H17      -5.4112   -3.4751    0.4941   H         1 RES1   0.0000
    60 H18      -3.7509   -3.2812    2.3199   H         1 RES1   0.0000
    61 H19      -2.8384   -2.0915    1.3825   H         1 RES1   0.0000
    62 H20      -3.2974   -5.0273    0.6921   H         1 RES1   0.0000
    63 H21      -1.7944   -4.3169    1.3259   H         1 RES1   0.0000
    64 H22      -2.4150   -4.5474   -2.6532   H         1 RES1   0.0000
    65 H23      -3.5768   -5.2398   -1.5220   H         1 RES1   0.0000
    66 H24      -1.9074   -6.9019   -2.1579   H         1 RES1   0.0000
    67 H25      -1.7834   -6.5613   -0.4414   H         1 RES1   0.0000
    68 H26       0.1144   -4.9571   -0.9752   H         1 RES1   0.0000
    69 H27       0.0644   -5.5542   -2.6426   H         1 RES1   0.0000
    70 H28       0.4805   -7.8566   -1.8200   H         1 RES1   0.0000
    71 H29       0.5768   -7.2733   -0.1688   H         1 RES1   0.0000
    72 H30       2.3992   -6.4841   -2.4782   H         1 RES1   0.0000
    73 H31       2.7914   -7.6500   -1.2276   H         1 RES1   0.0000
    74 H32       2.3334   -4.6661   -0.7712   H         1 RES1   0.0000
    75 H33       3.8809   -5.4666   -0.9779   H         1 RES1   0.0000
    76 H34       3.8700   -5.3302    1.2842   H         1 RES1   0.0000
    77 H35       3.1923   -6.9364    1.0675   H         1 RES1   0.0000
    78 H36       2.0714   -5.6836    2.8302   H         1 RES1   0.0000
    79 H37       0.9266   -6.0780    1.5595   H         1 RES1   0.0000
    80 H38       0.9414   -3.8140    0.7147   H         1 RES1   0.0000
    81 H39       2.4005   -3.4375    1.6572   H         1 RES1   0.0000
    82 H40      -0.2755   -4.0764    2.9632   H         1 RES1   0.0000
    83 H41       0.2150   -2.4321    2.5101   H         1 RES1   0.0000
    84 H42       1.1421   -3.3605    3.7110   H         1 RES1   0.0000
    85 H43      -2.1943   -2.3582   -2.9358   H         1 RES1   0.0000
    86 H44      -0.5754   -3.1339   -2.8865   H         1 RES1   0.0000
    87 H45      -1.7873   -0.6036   -4.0004   H         1 RES1   0.0000
    88 H46      -0.1896    0.1680   -3.8891   H         1 RES1   0.0000
    89 H47      -1.2961    1.5716   -5.0402   H         1 RES1   0.0000
    90 H48      -1.8805    3.2269   -4.8645   H         1 RES1   0.0000
    91 H49      -3.2375    2.1315   -6.4420   H         1 RES1   0.0000
    92 H50      -4.2315    2.4210   -5.0255   H         1 RES1   0.0000
    93 H51      -2.9217   -0.2511   -5.6739   H         1 RES1   0.0000
    94 H52      -4.5238    0.2019   -6.2062   H         1 RES1   0.0000
    95 H53      -3.8240    0.0579   -3.2384   H         1 RES1   0.0000
    96 H54      -4.5232   -1.2531   -4.1900   H         1 RES1   0.0000
    97 H55      -6.4629    0.1888   -4.7449   H         1 RES1   0.0000
    98 H56      -5.7849    1.4821   -3.7623   H         1 RES1   0.0000
    99 H57      -6.5944   -1.2749   -2.7489   H         1 RES1   0.0000
   100 H58      -7.4524    0.2311   -2.4589   H         1 RES1   0.0000
   101 H59      -5.8572   -0.0135   -1.7590   H         1 RES1   0.0000
   102 H60      -3.5949    2.4977   -1.7578   H         1 RES1   0.0000
   103 H61      -3.6219    3.5210   -3.2096   H         1 RES1   0.0000
   104 H62      -1.4669    3.5892   -1.0532   H         1 RES1   0.0000
   105 H63      -2.8810    4.6264   -1.0855   H         1 RES1   0.0000
   106 H64      -2.2110    5.6350   -3.2149   H         1 RES1   0.0000
   107 H65      -0.7530    4.6508   -3.2833   H         1 RES1   0.0000
   108 H66      -0.0439    5.7002   -1.0718   H         1 RES1   0.0000
   109 H67      -1.4924    6.6991   -1.1522   H         1 RES1   0.0000
   110 H68       0.1926    8.0981   -1.9607   H         1 RES1   0.0000
   111 H69      -0.6209    7.5539   -3.4192   H         1 RES1   0.0000
   112 H70       2.0011    6.4423   -2.3063   H         1 RES1   0.0000
   113 H71       1.8379    7.5453   -3.6631   H         1 RES1   0.0000
   114 H72       1.2347    5.9036   -3.8127   H         1 RES1   0.0000
   115 C37       8.6553   -5.0084    4.4507   C.3       1 RES1   0.0000
   116 C38       7.6986   -3.8477    4.2191   C.3       1 RES1   0.0000
   117 C39       6.8268   -4.0558    2.9814   C.3       1 RES1   0.0000
   118 C40       5.8608   -2.8900    2.7621   C.3       1 RES1   0.0000
   119 C41       4.6865   -2.9155    3.7502   C.3       1 RES1   0.0000
   120 C42       4.2553   -1.5288    4.2281   C.3       1 RES1   0.0000
   121 C43       3.7665   -0.6425    3.0852   C.3       1 RES1   0.0000
   122 C44       3.2742    0.7304    3.5475   C.3       1 RES1   0.0000
   123 C45       1.8702    0.6406    4.1498   C.3       1 RES1   0.0000
   124 C46       1.1533    1.9863    4.2674   C.3       1 RES1   0.0000
   125 N3        1.1380    2.8222    3.0573   N.am      1 RES1   0.0000
   126 C47       1.2682    4.2487    3.3285   C.3       1 RES1   0.0000
   127 C48       0.0733    4.7794    4.1308   C.3       1 RES1   0.0000
   128 C49      -1.2599    4.7134    3.3862   C.3       1 RES1   0.0000
   129 C50      -2.4104    5.1225    4.3101   C.3       1 RES1   0.0000
   130 C51      -3.7671    5.2162    3.6122   C.3       1 RES1   0.0000
   131 C52      -4.4046    3.8965    3.1687   C.3       1 RES1   0.0000
   132 C53      -5.0519    3.0599    4.2792   C.3       1 RES1   0.0000
   133 C54      -4.1293    2.1256    5.0652   C.3       1 RES1   0.0000
   134 C55      -3.2656    1.2216    4.1799   C.3       1 RES1   0.0000
   135 C56      -2.7256    0.0208    4.9534   C.3       1 RES1   0.0000
   136 C57       0.9024    2.3175    1.8642   C.2       1 RES1   0.0000
   137 O4        0.6731    1.0999    1.6646   O.2       1 RES1   0.0000
   138 C58       0.9681    3.2313    0.6213   C.3       1 RES1   0.0000
   139 O5        0.5236    2.4656   -0.4978   O.3       1 RES1   0.0000
   140 C59       1.0931    2.7812   -1.7720   C.3       1 RES1   0.0000
   141 C60       1.7130    1.4810   -2.3240   C.2       1 RES1   0.0000
   142 O6        1.5883    0.4609   -1.6105   O.2       1 RES1   0.0000
   143 N4        2.3240    1.4391   -3.4938   N.am      1 RES1   0.0000
   144 C61       2.4922    2.5906   -4.3743   C.3       1 RES1   0.0000
   145 C62       3.9138    3.1635   -4.3848   C.3       1 RES1   0.0000
   146 C63       4.2957    4.0028   -3.1640   C.3       1 RES1   0.0000
   147 C64       4.5824    3.2257   -1.8767   C.3       1 RES1   0.0000
   148 C65       5.8579    2.3881   -1.9180   C.3       1 RES1   0.0000
   149 C66       6.0891    1.6931   -0.5812   C.3       1 RES1   0.0000
   150 C67       3.0684    0.2201   -3.8392   C.3       1 RES1   0.0000
   151 C68       2.2302   -1.0201   -4.1697   C.3       1 RES1   0.0000
   152 C69       1.5579   -1.0019   -5.5454   C.3       1 RES1   0.0000
   153 C70       0.8259   -2.3196   -5.8136   C.3       1 RES1   0.0000
   154 C71       0.2252   -2.4281   -7.2179   C.3       1 RES1   0.0000
   155 C72      -1.0958   -1.6868   -7.3867   C.3       1 RES1   0.0000
   156 H73       9.2573   -4.8324    5.3380   H         1 RES1   0.0000
   157 H74       9.3266   -5.1272    3.6047   H         1 RES1   0.0000
   158 H75       8.1070   -5.9365    4.5881   H         1 RES1   0.0000
   159 H76       8.2749   -2.9278    4.0953   H         1 RES1   0.0000
   160 H77       7.0694   -3.7239    5.1031   H         1 RES1   0.0000
   161 H78       6.2617   -4.9853    3.0737   H         1 RES1   0.0000
   162 H79       7.4746   -4.1568    2.1092   H         1 RES1   0.0000
   163 H80       5.4880   -2.9202    1.7334   H         1 RES1   0.0000
   164 H81       6.4206   -1.9600    2.8797   H         1 RES1   0.0000
   165 H82       4.9742   -3.4929    4.6275   H         1 RES1   0.0000
   166 H83       3.8355   -3.4334    3.3032   H         1 RES1   0.0000
   167 H84       5.0992   -1.0445    4.7190   H         1 RES1   0.0000
   168 H85       3.4577   -1.6436    4.9645   H         1 RES1   0.0000
   169 H86       2.9279   -1.1544    2.5991   H         1 RES1   0.0000
   170 H87       4.5812   -0.5130    2.3683   H         1 RES1   0.0000
   171 H88       3.2620    1.4087    2.6893   H         1 RES1   0.0000
   172 H89       3.9752    1.1380    4.2753   H         1 RES1   0.0000
   173 H90       1.9309    0.2290    5.1586   H         1 RES1   0.0000
   174 H91       1.2708   -0.0492    3.5507   H         1 RES1   0.0000
   175 H92       1.6451    2.5791    5.0396   H         1 RES1   0.0000
   176 H93       0.1218    1.7967    4.5766   H         1 RES1   0.0000
   177 H94       1.3629    4.8060    2.4007   H         1 RES1   0.0000
   178 H95       2.1790    4.4114    3.9093   H         1 RES1   0.0000
   179 H96       0.2793    5.8162    4.3969   H         1 RES1   0.0000
   180 H97      -0.0132    4.2214    5.0621   H         1 RES1   0.0000
   181 H98      -1.4197    3.6996    3.0090   H         1 RES1   0.0000
   182 H99      -1.2354    5.3900    2.5286   H         1 RES1   0.0000
   183 H100     -2.1764    6.1083    4.7138   H         1 RES1   0.0000
   184 H101     -2.4680    4.4347    5.1516   H         1 RES1   0.0000
   185 H102     -3.6474    5.8474    2.7281   H         1 RES1   0.0000
   186 H103     -4.4592    5.7290    4.2802   H         1 RES1   0.0000
   187 H104     -3.6779    3.2986    2.6134   H         1 RES1   0.0000
   188 H105     -5.2035    4.1587    2.4702   H         1 RES1   0.0000
   189 H106     -5.8323    2.4485    3.8198   H         1 RES1   0.0000
   190 H107     -5.5442    3.7257    4.9872   H         1 RES1   0.0000
   191 H108     -4.7582    1.4929    5.6946   H         1 RES1   0.0000
   192 H109     -3.4831    2.6939    5.7327   H         1 RES1   0.0000
   193 H110     -2.4234    1.7980    3.7822   H         1 RES1   0.0000
   194 H111     -3.8766    0.8725    3.3398   H         1 RES1   0.0000
   195 H112     -2.2241    0.3571    5.8568   H         1 RES1   0.0000
   196 H113     -2.0112   -0.5592    4.3649   H         1 RES1   0.0000
   197 H114     -3.5391   -0.6375    5.2470   H         1 RES1   0.0000
   198 H115      2.0058    3.5617    0.4939   H         1 RES1   0.0000
   199 H116      0.3169    4.1061    0.7287   H         1 RES1   0.0000
   200 H117      1.8342    3.5824   -1.7017   H         1 RES1   0.0000
   201 H118      0.2863    3.1212   -2.4325   H         1 RES1   0.0000
   202 H119      1.7853    3.3650   -4.0817   H         1 RES1   0.0000
   203 H120      2.2409    2.2681   -5.3892   H         1 RES1   0.0000
   204 H121      3.9830    3.8043   -5.2657   H         1 RES1   0.0000
   205 H122      4.6325    2.3566   -4.5119   H         1 RES1   0.0000
   206 H123      3.5142    4.7469   -2.9866   H         1 RES1   0.0000
   207 H124      5.2007    4.5540   -3.4189   H         1 RES1   0.0000
   208 H125      3.7571    2.5573   -1.6230   H         1 RES1   0.0000
   209 H126      4.6828    3.9532   -1.0689   H         1 RES1   0.0000
   210 H127      6.7108    3.0232   -2.1505   H         1 RES1   0.0000
   211 H128      5.7848    1.6342   -2.7013   H         1 RES1   0.0000
   212 H129      6.2529    2.4239    0.2065   H         1 RES1   0.0000
   213 H130      6.9606    1.0471   -0.6282   H         1 RES1   0.0000
   214 H131      5.2240    1.0853   -0.3122   H         1 RES1   0.0000
   215 H132      3.6916   -0.0285   -2.9754   H         1 RES1   0.0000
   216 H133      3.7102    0.4591   -4.6859   H         1 RES1   0.0000
   217 H134      1.5101   -1.1971   -3.3681   H         1 RES1   0.0000
   218 H135      2.9228   -1.8653   -4.1630   H         1 RES1   0.0000
   219 H136      2.3305   -0.8855   -6.3056   H         1 RES1   0.0000
   220 H137      0.8698   -0.1578   -5.6476   H         1 RES1   0.0000
   221 H138      0.0360   -2.4679   -5.0720   H         1 RES1   0.0000
   222 H139      1.5449   -3.1299   -5.6903   H         1 RES1   0.0000
   223 H140      0.0495   -3.4825   -7.4360   H         1 RES1   0.0000
   224 H141      0.9433   -2.0603   -7.9509   H         1 RES1   0.0000
   225 H142     -1.8456   -2.0757   -6.6971   H         1 RES1   0.0000
   226 H143     -1.4669   -1.8366   -8.3967   H         1 RES1   0.0000
   227 H144     -0.9841   -0.6148   -7.2289   H         1 RES1   0.0000
   228 O7        2.0404   -1.4042    0.1995   O.3       1 RES1   0.0000
   229 H145      2.3022   -2.2251   -0.2486   H         1 RES1   0.0000
   230 H146      2.7739   -1.2074    0.8139   H         1 RES1   0.0000
   231 O8       -1.9408    0.2382    1.3600   O.3       1 RES1   0.0000
   232 H147     -2.6637    0.6799    0.8908   H         1 RES1   0.0000
   233 H148     -2.2756    0.0475    2.2596   H         1 RES1   0.0000
@<TRIPOS>BOND
     1     1    24    1
     2     1    26    1
     3     1    29    1
     4     1   137    1
     5     1   139    1
     6     1   142    1
     7     1   228    1
     8     1   231    1
     9     2     3    1
    10     2    43    1
    11     2    44    1
    12     2    45    1
    13     3     4    1
    14     3    46    1
    15     3    47    1
    16     4     5    1
    17     4    48    1
    18     4    49    1
    19     5     6    1
    20     5    50    1
    21     5    51    1
    22     6     7    1
    23     6    52    1
    24     6    53    1
    25     7     8    1
    26     7    54    1
    27     7    55    1
    28     8     9    1
    29     8    56    1
    30     8    57    1
    31     9    10    1
    32     9    58    1
    33     9    59    1
    34    10    11    1
    35    10    60    1
    36    10    61    1
    37    11    12    1
    38    11    62    1
    39    11    63    1
    40    12    13    1
    41    12    23    1
    42    13    14    1
    43    13    64    1
    44    13    65    1
    45    14    15    1
    46    14    66    1
    47    14    67    1
    48    15    16    1
    49    15    68    1
    50    15    69    1
    51    16    17    1
    52    16    70    1
    53    16    71    1
    54    17    18    1
    55    17    72    1
    56    17    73    1
    57    18    19    1
    58    18    74    1
    59    18    75    1
    60    19    20    1
    61    19    76    1
    62    19    77    1
    63    20    21    1
    64    20    78    1
    65    20    79    1
    66    21    22    1
    67    21    80    1
    68    21    81    1
    69    22    82    1
    70    22    83    1
    71    22    84    1
    72    23    24    2
    73    23    25    1
    74    25    26    1
    75    25    85    1
    76    25    86    1
    77    26    27    1
    78    27    28    1
    79    27    87    1
    80    27    88    1
    81    28    29    2
    82    28    30    1
    83    30    31    1
    84    30    37    1
    85    31    32    1
    86    31    89    1
    87    31    90    1
    88    32    33    1
    89    32    91    1
    90    32    92    1
    91    33    34    1
    92    33    93    1
    93    33    94    1
    94    34    35    1
    95    34    95    1
    96    34    96    1
    97    35    36    1
    98    35    97    1
    99    35    98    1
   100    36    99    1
   101    36   100    1
   102    36   101    1
   103    37    38    1
   104    37   102    1
   105    37   103    1
   106    38    39    1
   107    38   104    1
   108    38   105    1
   109    39    40    1
   110    39   106    1
   111    39   107    1
   112    40    41    1
   113    40   108    1
   114    40   109    1
   115    41    42    1
   116    41   110    1
   117    41   111    1
   118    42   112    1
   119    42   113    1
   120    42   114    1
   121   115   116    1
   122   115   156    1
   123   115   157    1
   124   115   158    1
   125   116   117    1
   126   116   159    1
   127   116   160    1
   128   117   118    1
   129   117   161    1
   130   117   162    1
   131   118   119    1
   132   118   163    1
   133   118   164    1
   134   119   120    1
   135   119   165    1
   136   119   166    1
   137   120   121    1
   138   120   167    1
   139   120   168    1
   140   121   122    1
   141   121   169    1
   142   121   170    1
   143   122   123    1
   144   122   171    1
   145   122   172    1
   146   123   124    1
   147   123   173    1
   148   123   174    1
   149   124   125    1
   150   124   175    1
   151   124   176    1
   152   125   126    1
   153   125   136    1
   154   126   127    1
   155   126   177    1
   156   126   178    1
   157   127   128    1
   158   127   179    1
   159   127   180    1
   160   128   129    1
   161   128   181    1
   162   128   182    1
   163   129   130    1
   164   129   183    1
   165   129   184    1
   166   130   131    1
   167   130   185    1
   168   130   186    1
   169   131   132    1
   170   131   187    1
   171   131   188    1
   172   132   133    1
   173   132   189    1
   174   132   190    1
   175   133   134    1
   176   133   191    1
   177   133   192    1
   178   134   135    1
   179   134   193    1
   180   134   194    1
   181   135   195    1
   182   135   196    1
   183   135   197    1
   184   136   137    2
   185   136   138    1
   186   138   139    1
   187   138   198    1
   188   138   199    1
   189   139   140    1
   190   140   141    1
   191   140   200    1
   192   140   201    1
   193   141   142    2
   194   141   143    1
   195   143   144    1
   196   143   150    1
   197   144   145    1
   198   144   202    1
   199   144   203    1
   200   145   146    1
   201   145   204    1
   202   145   205    1
   203   146   147    1
   204   146   206    1
   205   146   207    1
   206   147   148    1
   207   147   208    1
   208   147   209    1
   209   148   149    1
   210   148   210    1
   211   148   211    1
   212   149   212    1
   213   149   213    1
   214   149   214    1
   215   150   151    1
   216   150   215    1
   217   150   216    1
   218   151   152    1
   219   151   217    1
   220   151   218    1
   221   152   153    1
   222   152   219    1
   223   152   220    1
   224   153   154    1
   225   153   221    1
   226   153   222    1
   227   154   155    1
   228   154   223    1
   229   154   224    1
   230   155   225    1
   231   155   226    1
   232   155   227    1
   233   228   229    1
   234   228   230    1
   235   231   232    1
   236   231   233    1
@<TRIPOS>SUBSTRUCTURE
     1 RES1      233 GROUP             0 ****  ****    0  
