@<TRIPOS>MOLECULE
ICIGOT_geomtry_0_nunpairedes_0_charge_2 Charge: 2 Unpaired_Electrons: 4 XTB_Unpaired_Electrons: 0 XTB_Charge: 2
   249   253     1     0     0
SMALL
NoCharges
****
Generated from Architector

@<TRIPOS>ATOM
     1 Ho1      -0.3054   -0.0941   -0.2888   Ho        1 RES1   0.0000
     2 C1        2.1384   -3.7098    6.9149   C.3       1 RES1   0.0000
     3 C2        2.1961   -2.3324    7.5683   C.3       1 RES1   0.0000
     4 C3        0.8726   -1.5705    7.4820   C.3       1 RES1   0.0000
     5 C4        0.9939   -0.1940    8.1357   C.3       1 RES1   0.0000
     6 C5       -0.2530    0.6926    7.9713   C.3       1 RES1   0.0000
     7 C6        0.0185    2.0368    7.2868   C.3       1 RES1   0.0000
     8 C7        0.0007    1.9825    5.7541   C.3       1 RES1   0.0000
     9 C8        1.2402    1.3135    5.1582   C.3       1 RES1   0.0000
    10 N1        1.5013    1.5736    3.7406   N.am      1 RES1   0.0000
    11 C9        2.8617    2.0255    3.4115   C.3       1 RES1   0.0000
    12 C10       3.8762    0.9020    3.1548   C.3       1 RES1   0.0000
    13 C11       5.2871    1.4459    2.8787   C.3       1 RES1   0.0000
    14 C12       6.2331    0.4391    2.1915   C.3       1 RES1   0.0000
    15 C13       6.1232    0.4869    0.6637   C.3       1 RES1   0.0000
    16 C14       6.8728   -0.5973   -0.1246   C.3       1 RES1   0.0000
    17 C15       6.2548   -1.9976   -0.0211   C.3       1 RES1   0.0000
    18 C16       6.4821   -2.8411   -1.2731   C.3       1 RES1   0.0000
    19 C17       0.6771    1.3137    2.7209   C.2       1 RES1   0.0000
    20 O1        1.0821    1.2741    1.5476   O.2       1 RES1   0.0000
    21 C18      -0.8388    1.0514    2.8890   C.3       1 RES1   0.0000
    22 C19      -1.0481   -0.3438    3.4725   C.3       1 RES1   0.0000
    23 O2       -1.3021    1.0486    1.5321   O.3       1 RES1   0.0000
    24 C20      -2.5202    1.7065    1.1665   C.3       1 RES1   0.0000
    25 C21      -3.7243    0.8770    1.6608   C.3       1 RES1   0.0000
    26 C22      -4.3727    1.4649    2.9090   C.3       1 RES1   0.0000
    27 C23      -2.3269    1.8834   -0.3757   C.2       1 RES1   0.0000
    28 O3       -1.1430    1.7778   -0.7952   O.2       1 RES1   0.0000
    29 N2       -3.2786    2.1921   -1.2415   N.am      1 RES1   0.0000
    30 C24      -2.8449    2.4648   -2.6241   C.3       1 RES1   0.0000
    31 C25      -2.3431    1.2893   -3.4816   C.3       1 RES1   0.0000
    32 C26      -3.4219    0.5717   -4.2993   C.3       1 RES1   0.0000
    33 C27      -2.8263   -0.1937   -5.4870   C.3       1 RES1   0.0000
    34 C28      -1.9715   -1.3761   -5.0381   C.3       1 RES1   0.0000
    35 C29      -1.4432   -2.2615   -6.1722   C.3       1 RES1   0.0000
    36 C30      -0.2601   -1.6609   -6.9319   C.3       1 RES1   0.0000
    37 C31       0.5056   -2.7141   -7.7253   C.3       1 RES1   0.0000
    38 C32      -4.6764    2.4757   -0.9544   C.3       1 RES1   0.0000
    39 C33      -5.6205    1.4365   -1.5705   C.3       1 RES1   0.0000
    40 C34      -7.0973    1.6672   -1.2297   C.3       1 RES1   0.0000
    41 C35      -7.4583    1.5369    0.2597   C.3       1 RES1   0.0000
    42 C36      -8.1095    2.7725    0.8916   C.3       1 RES1   0.0000
    43 C37      -7.2118    4.0068    1.0519   C.3       1 RES1   0.0000
    44 C38      -7.1939    4.9379   -0.1608   C.3       1 RES1   0.0000
    45 C39      -6.2705    6.1335    0.0454   C.3       1 RES1   0.0000
    46 H1        3.1214   -4.1716    6.9271   H         1 RES1   0.0000
    47 H2        1.4597   -4.3659    7.4546   H         1 RES1   0.0000
    48 H3        1.8077   -3.6391    5.8773   H         1 RES1   0.0000
    49 H4        2.4708   -2.4444    8.6192   H         1 RES1   0.0000
    50 H5        2.9792   -1.7370    7.0866   H         1 RES1   0.0000
    51 H6        0.5812   -1.4727    6.4290   H         1 RES1   0.0000
    52 H7        0.0865   -2.1317    7.9887   H         1 RES1   0.0000
    53 H8        1.1932   -0.3511    9.1961   H         1 RES1   0.0000
    54 H9        1.8674    0.3166    7.7275   H         1 RES1   0.0000
    55 H10      -1.0212    0.1544    7.4127   H         1 RES1   0.0000
    56 H11      -0.6725    0.8962    8.9563   H         1 RES1   0.0000
    57 H12      -0.7591    2.7378    7.5925   H         1 RES1   0.0000
    58 H13       0.9664    2.4380    7.6434   H         1 RES1   0.0000
    59 H14      -0.9067    1.4515    5.4737   H         1 RES1   0.0000
    60 H15      -0.0564    3.0017    5.3697   H         1 RES1   0.0000
    61 H16       2.1055    1.6850    5.7078   H         1 RES1   0.0000
    62 H17       1.2062    0.2329    5.3192   H         1 RES1   0.0000
    63 H18       2.7793    2.6356    2.5091   H         1 RES1   0.0000
    64 H19       3.2192    2.6534    4.2304   H         1 RES1   0.0000
    65 H20       3.9205    0.2342    4.0167   H         1 RES1   0.0000
    66 H21       3.5329    0.3341    2.2949   H         1 RES1   0.0000
    67 H22       5.2212    2.3420    2.2586   H         1 RES1   0.0000
    68 H23       5.7273    1.7480    3.8285   H         1 RES1   0.0000
    69 H24       7.2581    0.6833    2.4703   H         1 RES1   0.0000
    70 H25       6.0277   -0.5663    2.5616   H         1 RES1   0.0000
    71 H26       5.0733    0.4300    0.3961   H         1 RES1   0.0000
    72 H27       6.4980    1.4576    0.3295   H         1 RES1   0.0000
    73 H28       6.8519   -0.2987   -1.1775   H         1 RES1   0.0000
    74 H29       7.9176   -0.6337    0.1834   H         1 RES1   0.0000
    75 H30       6.6546   -2.5202    0.8479   H         1 RES1   0.0000
    76 H31       5.1763   -1.9048    0.1202   H         1 RES1   0.0000
    77 H32       7.5393   -2.9693   -1.4838   H         1 RES1   0.0000
    78 H33       6.0411   -3.8289   -1.1509   H         1 RES1   0.0000
    79 H34       6.0205   -2.3665   -2.1385   H         1 RES1   0.0000
    80 H35      -1.3186    1.8553    3.4531   H         1 RES1   0.0000
    81 H36      -0.5941   -1.0361    2.7612   H         1 RES1   0.0000
    82 H37      -0.5864   -0.4689    4.4459   H         1 RES1   0.0000
    83 H38      -2.1053   -0.5668    3.5731   H         1 RES1   0.0000
    84 H39      -2.5315    2.7175    1.6125   H         1 RES1   0.0000
    85 H40      -4.4588    0.7451    0.8730   H         1 RES1   0.0000
    86 H41      -3.3562   -0.1277    1.8694   H         1 RES1   0.0000
    87 H42      -4.7086    2.4848    2.7398   H         1 RES1   0.0000
    88 H43      -5.2458    0.8796    3.1811   H         1 RES1   0.0000
    89 H44      -3.6812    1.4629    3.7486   H         1 RES1   0.0000
    90 H45      -3.6830    2.9402   -3.1321   H         1 RES1   0.0000
    91 H46      -2.0258    3.1849   -2.5425   H         1 RES1   0.0000
    92 H47      -1.6380    1.7130   -4.1986   H         1 RES1   0.0000
    93 H48      -1.7677    0.5842   -2.8740   H         1 RES1   0.0000
    94 H49      -3.9829   -0.1297   -3.6807   H         1 RES1   0.0000
    95 H50      -4.1135    1.3190   -4.6963   H         1 RES1   0.0000
    96 H51      -3.6454   -0.5743   -6.0986   H         1 RES1   0.0000
    97 H52      -2.2482    0.4915   -6.1102   H         1 RES1   0.0000
    98 H53      -1.1256   -1.0196   -4.4420   H         1 RES1   0.0000
    99 H54      -2.5951   -1.9893   -4.3870   H         1 RES1   0.0000
   100 H55      -1.1140   -3.2087   -5.7374   H         1 RES1   0.0000
   101 H56      -2.2508   -2.4900   -6.8692   H         1 RES1   0.0000
   102 H57      -0.6067   -0.8755   -7.6064   H         1 RES1   0.0000
   103 H58       0.4275   -1.2119   -6.2107   H         1 RES1   0.0000
   104 H59      -0.1398   -3.2130   -8.4431   H         1 RES1   0.0000
   105 H60       1.3287   -2.2543   -8.2677   H         1 RES1   0.0000
   106 H61       0.9153   -3.4661   -7.0527   H         1 RES1   0.0000
   107 H62      -4.8241    2.5271    0.1194   H         1 RES1   0.0000
   108 H63      -4.9085    3.4583   -1.3731   H         1 RES1   0.0000
   109 H64      -5.5306    1.4689   -2.6555   H         1 RES1   0.0000
   110 H65      -5.3278    0.4358   -1.2499   H         1 RES1   0.0000
   111 H66      -7.4082    2.6437   -1.5915   H         1 RES1   0.0000
   112 H67      -7.6768    0.9381   -1.7964   H         1 RES1   0.0000
   113 H68      -8.1634    0.7133    0.3830   H         1 RES1   0.0000
   114 H69      -6.5779    1.2702    0.8432   H         1 RES1   0.0000
   115 H70      -8.9954    3.0441    0.3175   H         1 RES1   0.0000
   116 H71      -8.4572    2.4782    1.8845   H         1 RES1   0.0000
   117 H72      -7.5756    4.5877    1.9031   H         1 RES1   0.0000
   118 H73      -6.1934    3.6914    1.2948   H         1 RES1   0.0000
   119 H74      -6.8691    4.4038   -1.0547   H         1 RES1   0.0000
   120 H75      -8.2126    5.2882   -0.3364   H         1 RES1   0.0000
   121 H76      -5.2479    5.8051    0.2311   H         1 RES1   0.0000
   122 H77      -6.2704    6.7600   -0.8428   H         1 RES1   0.0000
   123 H78      -6.5934    6.7378    0.8894   H         1 RES1   0.0000
   124 C40       0.6612    6.2802   -6.1201   C.3       1 RES1   0.0000
   125 C41      -0.8353    6.1147   -5.8789   C.3       1 RES1   0.0000
   126 C42      -1.4429    4.9011   -6.5833   C.3       1 RES1   0.0000
   127 C43      -0.9411    3.5547   -6.0499   C.3       1 RES1   0.0000
   128 C44       0.2614    2.9925   -6.8061   C.3       1 RES1   0.0000
   129 C45       0.7231    1.6461   -6.2502   C.3       1 RES1   0.0000
   130 C46       1.4172    1.7650   -4.8929   C.3       1 RES1   0.0000
   131 C47       2.0634    0.4307   -4.5204   C.3       1 RES1   0.0000
   132 N3        2.8328    0.4212   -3.2743   N.am      1 RES1   0.0000
   133 C48       4.2725    0.6171   -3.3940   C.3       1 RES1   0.0000
   134 C49       4.7284    1.9341   -4.0446   C.3       1 RES1   0.0000
   135 C50       4.6625    3.2020   -3.1863   C.3       1 RES1   0.0000
   136 C51       3.2624    3.7915   -3.0210   C.3       1 RES1   0.0000
   137 C52       3.2079    4.9488   -2.0233   C.3       1 RES1   0.0000
   138 C53       1.7652    5.4224   -1.8301   C.3       1 RES1   0.0000
   139 C54       1.6210    6.4960   -0.7491   C.3       1 RES1   0.0000
   140 C55       2.2768    7.8185   -1.1304   C.3       1 RES1   0.0000
   141 C56       2.1801    0.0738   -2.1726   C.2       1 RES1   0.0000
   142 O4        0.9356   -0.0105   -2.1545   O.2       1 RES1   0.0000
   143 C57       2.9011   -0.0937   -0.8255   C.3       1 RES1   0.0000
   144 C58       3.0444    1.3654   -0.3747   C.3       1 RES1   0.0000
   145 O5        2.0322   -0.7668    0.1125   O.3       1 RES1   0.0000
   146 C59       2.3154   -2.1290    0.5133   C.3       1 RES1   0.0000
   147 C60       3.1955   -2.2173    1.7803   C.3       1 RES1   0.0000
   148 C61       2.3856   -2.0483    3.0618   C.3       1 RES1   0.0000
   149 C62       0.9259   -2.7590    0.7714   C.2       1 RES1   0.0000
   150 O6       -0.0533   -1.9806    0.7412   O.2       1 RES1   0.0000
   151 N4        0.7347   -4.0499    1.0101   N.am      1 RES1   0.0000
   152 C63       1.7740   -5.0470    1.2478   C.3       1 RES1   0.0000
   153 C64       2.7077   -5.3981    0.0822   C.3       1 RES1   0.0000
   154 C65       1.9876   -5.7085   -1.2308   C.3       1 RES1   0.0000
   155 C66       1.7565   -4.4865   -2.1200   C.3       1 RES1   0.0000
   156 C67       1.1261   -4.8560   -3.4659   C.3       1 RES1   0.0000
   157 C68      -0.3222   -5.3399   -3.3759   C.3       1 RES1   0.0000
   158 C69      -1.2699   -4.2455   -2.8979   C.3       1 RES1   0.0000
   159 C70      -2.7311   -4.6748   -2.9126   C.3       1 RES1   0.0000
   160 C71      -0.6542   -4.5306    0.8734   C.3       1 RES1   0.0000
   161 C72      -1.7359   -4.0815    1.8670   C.3       1 RES1   0.0000
   162 C73      -1.7465   -4.7972    3.2191   C.3       1 RES1   0.0000
   163 C74      -3.1688   -4.9496    3.7800   C.3       1 RES1   0.0000
   164 C75      -3.8848   -3.6607    4.2043   C.3       1 RES1   0.0000
   165 C76      -3.6570   -3.2089    5.6510   C.3       1 RES1   0.0000
   166 C77      -2.2020   -2.8908    6.0044   C.3       1 RES1   0.0000
   167 C78      -1.4742   -4.0961    6.5945   C.3       1 RES1   0.0000
   168 H79       0.9960    7.2459   -5.7491   H         1 RES1   0.0000
   169 H80       0.8802    6.2318   -7.1848   H         1 RES1   0.0000
   170 H81       1.2279    5.5052   -5.6074   H         1 RES1   0.0000
   171 H82      -1.3513    7.0090   -6.2342   H         1 RES1   0.0000
   172 H83      -1.0287    6.0328   -4.8050   H         1 RES1   0.0000
   173 H84      -1.2413    4.9650   -7.6528   H         1 RES1   0.0000
   174 H85      -2.5275    4.9467   -6.4550   H         1 RES1   0.0000
   175 H86      -1.7512    2.8274   -6.1396   H         1 RES1   0.0000
   176 H87      -0.7044    3.6651   -4.9892   H         1 RES1   0.0000
   177 H88       1.0937    3.6956   -6.7915   H         1 RES1   0.0000
   178 H89      -0.0351    2.8522   -7.8469   H         1 RES1   0.0000
   179 H90       1.4296    1.2084   -6.9583   H         1 RES1   0.0000
   180 H91      -0.1332    0.9768   -6.1786   H         1 RES1   0.0000
   181 H92       0.7116    2.0575   -4.1133   H         1 RES1   0.0000
   182 H93       2.1762    2.5387   -4.9742   H         1 RES1   0.0000
   183 H94       2.7403    0.1226   -5.3195   H         1 RES1   0.0000
   184 H95       1.2708   -0.3144   -4.4055   H         1 RES1   0.0000
   185 H96       4.6686   -0.1946   -4.0139   H         1 RES1   0.0000
   186 H97       4.7378    0.5442   -2.4150   H         1 RES1   0.0000
   187 H98       4.1937    2.0927   -4.9775   H         1 RES1   0.0000
   188 H99       5.7760    1.7785   -4.3066   H         1 RES1   0.0000
   189 H100      5.2901    3.9554   -3.6662   H         1 RES1   0.0000
   190 H101      5.1072    3.0080   -2.2065   H         1 RES1   0.0000
   191 H102      2.5634    3.0176   -2.6949   H         1 RES1   0.0000
   192 H103      2.9243    4.1708   -3.9881   H         1 RES1   0.0000
   193 H104      3.8214    5.7747   -2.3868   H         1 RES1   0.0000
   194 H105      3.6086    4.6313   -1.0556   H         1 RES1   0.0000
   195 H106      1.1491    4.5578   -1.5541   H         1 RES1   0.0000
   196 H107      1.3818    5.8179   -2.7740   H         1 RES1   0.0000
   197 H108      2.0553    6.1255    0.1836   H         1 RES1   0.0000
   198 H109      0.5560    6.6690   -0.5706   H         1 RES1   0.0000
   199 H110      3.3539    7.7092   -1.2260   H         1 RES1   0.0000
   200 H111      2.0796    8.5700   -0.3700   H         1 RES1   0.0000
   201 H112      1.8790    8.1783   -2.0766   H         1 RES1   0.0000
   202 H113      3.8443   -0.6429   -0.9216   H         1 RES1   0.0000
   203 H114      2.0642    1.8414   -0.4787   H         1 RES1   0.0000
   204 H115      3.7764    1.8984   -0.9707   H         1 RES1   0.0000
   205 H116      3.3308    1.4219    0.6652   H         1 RES1   0.0000
   206 H117      2.7861   -2.6436   -0.3317   H         1 RES1   0.0000
   207 H118      3.9631   -1.4470    1.7332   H         1 RES1   0.0000
   208 H119      3.7287   -3.1684    1.7934   H         1 RES1   0.0000
   209 H120      1.8960   -1.0785    3.0609   H         1 RES1   0.0000
   210 H121      3.0332   -2.1158    3.9319   H         1 RES1   0.0000
   211 H122      1.6275   -2.8220    3.1509   H         1 RES1   0.0000
   212 H123      1.2610   -5.9630    1.5388   H         1 RES1   0.0000
   213 H124      2.3772   -4.7430    2.1040   H         1 RES1   0.0000
   214 H125      3.2511   -6.2897    0.4005   H         1 RES1   0.0000
   215 H126      3.4576   -4.6252   -0.0873   H         1 RES1   0.0000
   216 H127      1.0432   -6.2028   -1.0113   H         1 RES1   0.0000
   217 H128      2.5961   -6.4105   -1.8026   H         1 RES1   0.0000
   218 H129      2.7291   -4.0252   -2.3199   H         1 RES1   0.0000
   219 H130      1.1290   -3.7381   -1.6296   H         1 RES1   0.0000
   220 H131      1.7343   -5.6320   -3.9342   H         1 RES1   0.0000
   221 H132      1.1559   -3.9745   -4.1114   H         1 RES1   0.0000
   222 H133     -0.3880   -6.2057   -2.7159   H         1 RES1   0.0000
   223 H134     -0.6378   -5.6679   -4.3688   H         1 RES1   0.0000
   224 H135     -1.1386   -3.3694   -3.5309   H         1 RES1   0.0000
   225 H136     -1.0006   -3.9433   -1.8830   H         1 RES1   0.0000
   226 H137     -3.0380   -4.9634   -3.9149   H         1 RES1   0.0000
   227 H138     -3.3636   -3.8511   -2.5911   H         1 RES1   0.0000
   228 H139     -2.8958   -5.5162   -2.2422   H         1 RES1   0.0000
   229 H140     -0.6171   -5.6191    0.8527   H         1 RES1   0.0000
   230 H141     -0.9801   -4.1702   -0.1052   H         1 RES1   0.0000
   231 H142     -2.6825   -4.3039    1.3686   H         1 RES1   0.0000
   232 H143     -1.7049   -2.9998    1.9909   H         1 RES1   0.0000
   233 H144     -1.1041   -4.2752    3.9244   H         1 RES1   0.0000
   234 H145     -1.3501   -5.8070    3.0921   H         1 RES1   0.0000
   235 H146     -3.1438   -5.6272    4.6327   H         1 RES1   0.0000
   236 H147     -3.7736   -5.4401    3.0130   H         1 RES1   0.0000
   237 H148     -4.9579   -3.8313    4.0953   H         1 RES1   0.0000
   238 H149     -3.6195   -2.8542    3.5181   H         1 RES1   0.0000
   239 H150     -4.0178   -3.9823    6.3292   H         1 RES1   0.0000
   240 H151     -4.2771   -2.3252    5.8233   H         1 RES1   0.0000
   241 H152     -2.1765   -2.0792    6.7352   H         1 RES1   0.0000
   242 H153     -1.6893   -2.5302    5.1107   H         1 RES1   0.0000
   243 H154     -1.7554   -4.2117    7.6381   H         1 RES1   0.0000
   244 H155     -0.4003   -3.9620    6.5330   H         1 RES1   0.0000
   245 H156     -1.7305   -5.0100    6.0688   H         1 RES1   0.0000
   246 N5       -2.2755   -1.2419   -1.2888   N.3       1 RES1   0.0000
   247 O7       -3.2485   -1.5053   -1.9228   O.2       1 RES1   0.0000
   248 O8       -2.3641   -0.7158   -0.1670   O.co2     1 RES1   0.0000
   249 O9       -1.1336   -1.4840   -1.6964   O.co2     1 RES1   0.0000
@<TRIPOS>BOND
     1     1    20    1
     2     1    23    1
     3     1    28    1
     4     1   142    1
     5     1   145    1
     6     1   150    1
     7     1   248    1
     8     1   249    1
     9     2     3    1
    10     2    46    1
    11     2    47    1
    12     2    48    1
    13     3     4    1
    14     3    49    1
    15     3    50    1
    16     4     5    1
    17     4    51    1
    18     4    52    1
    19     5     6    1
    20     5    53    1
    21     5    54    1
    22     6     7    1
    23     6    55    1
    24     6    56    1
    25     7     8    1
    26     7    57    1
    27     7    58    1
    28     8     9    1
    29     8    59    1
    30     8    60    1
    31     9    10    1
    32     9    61    1
    33     9    62    1
    34    10    11    1
    35    10    19    1
    36    11    12    1
    37    11    63    1
    38    11    64    1
    39    12    13    1
    40    12    65    1
    41    12    66    1
    42    13    14    1
    43    13    67    1
    44    13    68    1
    45    14    15    1
    46    14    69    1
    47    14    70    1
    48    15    16    1
    49    15    71    1
    50    15    72    1
    51    16    17    1
    52    16    73    1
    53    16    74    1
    54    17    18    1
    55    17    75    1
    56    17    76    1
    57    18    77    1
    58    18    78    1
    59    18    79    1
    60    19    20    2
    61    19    21    1
    62    21    22    1
    63    21    23    1
    64    21    80    1
    65    22    81    1
    66    22    82    1
    67    22    83    1
    68    23    24    1
    69    24    25    1
    70    24    27    1
    71    24    84    1
    72    25    26    1
    73    25    85    1
    74    25    86    1
    75    26    87    1
    76    26    88    1
    77    26    89    1
    78    27    28    2
    79    27    29    1
    80    29    30    1
    81    29    38    1
    82    30    31    1
    83    30    90    1
    84    30    91    1
    85    31    32    1
    86    31    92    1
    87    31    93    1
    88    32    33    1
    89    32    94    1
    90    32    95    1
    91    33    34    1
    92    33    96    1
    93    33    97    1
    94    34    35    1
    95    34    98    1
    96    34    99    1
    97    35    36    1
    98    35   100    1
    99    35   101    1
   100    36    37    1
   101    36   102    1
   102    36   103    1
   103    37   104    1
   104    37   105    1
   105    37   106    1
   106    38    39    1
   107    38   107    1
   108    38   108    1
   109    39    40    1
   110    39   109    1
   111    39   110    1
   112    40    41    1
   113    40   111    1
   114    40   112    1
   115    41    42    1
   116    41   113    1
   117    41   114    1
   118    42    43    1
   119    42   115    1
   120    42   116    1
   121    43    44    1
   122    43   117    1
   123    43   118    1
   124    44    45    1
   125    44   119    1
   126    44   120    1
   127    45   121    1
   128    45   122    1
   129    45   123    1
   130   124   125    1
   131   124   168    1
   132   124   169    1
   133   124   170    1
   134   125   126    1
   135   125   171    1
   136   125   172    1
   137   126   127    1
   138   126   173    1
   139   126   174    1
   140   127   128    1
   141   127   175    1
   142   127   176    1
   143   128   129    1
   144   128   177    1
   145   128   178    1
   146   129   130    1
   147   129   179    1
   148   129   180    1
   149   130   131    1
   150   130   181    1
   151   130   182    1
   152   131   132    1
   153   131   183    1
   154   131   184    1
   155   132   133    1
   156   132   141    1
   157   133   134    1
   158   133   185    1
   159   133   186    1
   160   134   135    1
   161   134   187    1
   162   134   188    1
   163   135   136    1
   164   135   189    1
   165   135   190    1
   166   136   137    1
   167   136   191    1
   168   136   192    1
   169   137   138    1
   170   137   193    1
   171   137   194    1
   172   138   139    1
   173   138   195    1
   174   138   196    1
   175   139   140    1
   176   139   197    1
   177   139   198    1
   178   140   199    1
   179   140   200    1
   180   140   201    1
   181   141   142    2
   182   141   143    1
   183   143   144    1
   184   143   145    1
   185   143   202    1
   186   144   203    1
   187   144   204    1
   188   144   205    1
   189   145   146    1
   190   146   147    1
   191   146   149    1
   192   146   206    1
   193   147   148    1
   194   147   207    1
   195   147   208    1
   196   148   209    1
   197   148   210    1
   198   148   211    1
   199   149   150    2
   200   149   151    1
   201   151   152    1
   202   151   160    1
   203   152   153    1
   204   152   212    1
   205   152   213    1
   206   153   154    1
   207   153   214    1
   208   153   215    1
   209   154   155    1
   210   154   216    1
   211   154   217    1
   212   155   156    1
   213   155   218    1
   214   155   219    1
   215   156   157    1
   216   156   220    1
   217   156   221    1
   218   157   158    1
   219   157   222    1
   220   157   223    1
   221   158   159    1
   222   158   224    1
   223   158   225    1
   224   159   226    1
   225   159   227    1
   226   159   228    1
   227   160   161    1
   228   160   229    1
   229   160   230    1
   230   161   162    1
   231   161   231    1
   232   161   232    1
   233   162   163    1
   234   162   233    1
   235   162   234    1
   236   163   164    1
   237   163   235    1
   238   163   236    1
   239   164   165    1
   240   164   237    1
   241   164   238    1
   242   165   166    1
   243   165   239    1
   244   165   240    1
   245   166   167    1
   246   166   241    1
   247   166   242    1
   248   167   243    1
   249   167   244    1
   250   167   245    1
   251   246   247    2
   252   246   248    1
   253   246   249    1
@<TRIPOS>SUBSTRUCTURE
     1 RES1      249 GROUP             0 ****  ****    0  
