@<TRIPOS>MOLECULE
YEMSEP_geometry_0_nunpairedes_0_charge_2 Charge: 2 Unpaired_Electrons: 4 XTB_Unpaired_Electrons: 0 XTB_Charge: 2
   119   129     1     0     0
SMALL
NoCharges
****
Generated from Architector

@<TRIPOS>ATOM
     1 Ho1      -0.0227    0.0714    0.0842   Ho        1 RES1   0.0000
     2 C1       -4.9320    1.1875   -2.4188   C.3       1 RES1   0.0000
     3 C2       -3.5595    1.5476   -2.9663   C.3       1 RES1   0.0000
     4 N1       -2.7768    0.3677   -3.3505   N.am      1 RES1   0.0000
     5 C3       -1.7435    0.0109   -2.6012   C.2       1 RES1   0.0000
     6 O1       -1.5216    0.5456   -1.4838   O.2       1 RES1   0.0000
     7 C4       -0.6693   -0.9316   -3.0544   C.ar      1 RES1   0.0000
     8 C5       -0.3063   -1.1680   -4.3791   C.ar      1 RES1   0.0000
     9 C6        0.9121   -1.7872   -4.5948   C.ar      1 RES1   0.0000
    10 C7        1.6892   -2.2192   -3.5263   C.ar      1 RES1   0.0000
    11 C8        1.2011   -2.0580   -2.2272   C.ar      1 RES1   0.0000
    12 C9        1.8108   -2.4239   -0.8803   C.2       1 RES1   0.0000
    13 O2        1.2970   -1.8216    0.0781   O.2       1 RES1   0.0000
    14 N2        2.8092   -3.3065   -0.7204   N.am      1 RES1   0.0000
    15 C10       3.1235   -4.2617   -1.7762   C.3       1 RES1   0.0000
    16 C11       4.4523   -3.9272   -2.4500   C.3       1 RES1   0.0000
    17 C12       3.5470   -3.4125    0.5046   C.ar      1 RES1   0.0000
    18 C13       4.4000   -4.4956    0.7255   C.ar      1 RES1   0.0000
    19 C14       5.1444   -4.5948    1.8846   C.ar      1 RES1   0.0000
    20 C15       5.0531   -3.6454    2.8896   C.ar      1 RES1   0.0000
    21 C16       5.7871   -3.7958    4.1795   C.3       1 RES1   0.0000
    22 C17       4.2260   -2.5514    2.6588   C.ar      1 RES1   0.0000
    23 C18       3.4951   -2.4239    1.4936   C.ar      1 RES1   0.0000
    24 N3        0.0682   -1.3668   -2.0305   N.ar      1 RES1   0.0000
    25 C19      -3.2911   -0.4347   -4.3975   C.ar      1 RES1   0.0000
    26 C20      -3.3648   -1.8143   -4.2206   C.ar      1 RES1   0.0000
    27 C21      -3.9227   -2.6150   -5.1983   C.ar      1 RES1   0.0000
    28 C22      -4.4376   -2.0626   -6.3678   C.ar      1 RES1   0.0000
    29 C23      -5.0876   -2.9039   -7.4174   C.3       1 RES1   0.0000
    30 C24      -4.3679   -0.6797   -6.5265   C.ar      1 RES1   0.0000
    31 C25      -3.8029    0.1280   -5.5627   C.ar      1 RES1   0.0000
    32 H1       -5.4438    2.0994   -2.1278   H         1 RES1   0.0000
    33 H2       -4.8406    0.5604   -1.5383   H         1 RES1   0.0000
    34 H3       -5.5274    0.6666   -3.1631   H         1 RES1   0.0000
    35 H4       -2.9914    2.1005   -2.2156   H         1 RES1   0.0000
    36 H5       -3.6639    2.1714   -3.8562   H         1 RES1   0.0000
    37 H6       -0.9174   -0.8343   -5.2004   H         1 RES1   0.0000
    38 H7        1.2767   -1.9259   -5.6001   H         1 RES1   0.0000
    39 H8        2.6607   -2.6303   -3.7380   H         1 RES1   0.0000
    40 H9        2.2916   -4.2671   -2.4815   H         1 RES1   0.0000
    41 H10       3.1597   -5.2583   -1.3308   H         1 RES1   0.0000
    42 H11       4.4568   -2.9090   -2.8347   H         1 RES1   0.0000
    43 H12       4.6413   -4.6208   -3.2640   H         1 RES1   0.0000
    44 H13       5.2707   -3.9944   -1.7382   H         1 RES1   0.0000
    45 H14       4.5133   -5.2941    0.0142   H         1 RES1   0.0000
    46 H15       5.8071   -5.4342    2.0160   H         1 RES1   0.0000
    47 H16       6.4285   -4.6726    4.1748   H         1 RES1   0.0000
    48 H17       5.0765   -3.8930    5.0001   H         1 RES1   0.0000
    49 H18       6.3985   -2.9181    4.3758   H         1 RES1   0.0000
    50 H19       4.1525   -1.7851    3.4177   H         1 RES1   0.0000
    51 H20       2.8762   -1.5501    1.3714   H         1 RES1   0.0000
    52 H21      -3.0072   -2.2487   -3.3002   H         1 RES1   0.0000
    53 H22      -3.9911   -3.6794   -5.0334   H         1 RES1   0.0000
    54 H23      -4.9783   -3.9669   -7.2124   H         1 RES1   0.0000
    55 H24      -4.6665   -2.6858   -8.3984   H         1 RES1   0.0000
    56 H25      -6.1508   -2.6664   -7.4652   H         1 RES1   0.0000
    57 H26      -4.7796   -0.2272   -7.4166   H         1 RES1   0.0000
    58 H27      -3.7730    1.1916   -5.7316   H         1 RES1   0.0000
    59 C26      -0.7532   -2.3813    5.5391   C.3       1 RES1   0.0000
    60 C27      -1.8940   -1.5619    4.9393   C.3       1 RES1   0.0000
    61 N4       -1.8438   -1.5855    3.4864   N.am      1 RES1   0.0000
    62 C28      -0.8784   -1.0563    2.7363   C.2       1 RES1   0.0000
    63 O3       -0.8666   -1.3039    1.5100   O.2       1 RES1   0.0000
    64 C29       0.1895   -0.0774    3.2218   C.ar      1 RES1   0.0000
    65 C30       0.3577    0.5728    4.4487   C.ar      1 RES1   0.0000
    66 C31       1.1840    1.6895    4.4863   C.ar      1 RES1   0.0000
    67 C32       1.9051    2.0855    3.3695   C.ar      1 RES1   0.0000
    68 C33       1.8605    1.2630    2.2410   C.ar      1 RES1   0.0000
    69 C34       2.5868    1.4010    0.9103   C.2       1 RES1   0.0000
    70 O4        2.1240    0.7161   -0.0322   O.2       1 RES1   0.0000
    71 N5        3.6372    2.2024    0.7106   N.am      1 RES1   0.0000
    72 C35       4.4507    2.7942    1.7628   C.3       1 RES1   0.0000
    73 C36       4.2232    4.3005    1.8655   C.3       1 RES1   0.0000
    74 C37       4.0005    2.5187   -0.6432   C.ar      1 RES1   0.0000
    75 C38       5.3300    2.6533   -1.0339   C.ar      1 RES1   0.0000
    76 C39       5.6408    2.9911   -2.3378   C.ar      1 RES1   0.0000
    77 C40       4.6470    3.1803   -3.2924   C.ar      1 RES1   0.0000
    78 C41       5.0082    3.5000   -4.7038   C.3       1 RES1   0.0000
    79 C42       3.3208    3.0756   -2.8858   C.ar      1 RES1   0.0000
    80 C43       2.9972    2.7593   -1.5812   C.ar      1 RES1   0.0000
    81 N6        0.9844    0.2553    2.1986   N.ar      1 RES1   0.0000
    82 C44      -2.8746   -2.3342    2.8214   C.ar      1 RES1   0.0000
    83 C45      -3.2314   -3.5817    3.3191   C.ar      1 RES1   0.0000
    84 C46      -4.2728   -4.2885    2.7501   C.ar      1 RES1   0.0000
    85 C47      -4.9823   -3.7725    1.6736   C.ar      1 RES1   0.0000
    86 C48      -6.1636   -4.4964    1.1170   C.3       1 RES1   0.0000
    87 C49      -4.5858   -2.5414    1.1534   C.ar      1 RES1   0.0000
    88 C50      -3.5494   -1.8194    1.7159   C.ar      1 RES1   0.0000
    89 H28      -0.7869   -2.3309    6.6227   H         1 RES1   0.0000
    90 H29       0.2180   -2.0342    5.1959   H         1 RES1   0.0000
    91 H30      -0.8492   -3.4236    5.2456   H         1 RES1   0.0000
    92 H31      -1.8872   -0.5228    5.2775   H         1 RES1   0.0000
    93 H32      -2.8509   -1.9952    5.2382   H         1 RES1   0.0000
    94 H33      -0.1384    0.2777    5.3556   H         1 RES1   0.0000
    95 H34       1.2663    2.2627    5.3989   H         1 RES1   0.0000
    96 H35       2.4425    3.0172    3.3959   H         1 RES1   0.0000
    97 H36       5.5002    2.6114    1.5211   H         1 RES1   0.0000
    98 H37       4.2429    2.2761    2.6988   H         1 RES1   0.0000
    99 H38       4.4926    4.7848    0.9293   H         1 RES1   0.0000
   100 H39       4.8443    4.7140    2.6554   H         1 RES1   0.0000
   101 H40       3.1826    4.5402    2.0713   H         1 RES1   0.0000
   102 H41       6.1436    2.4995   -0.3426   H         1 RES1   0.0000
   103 H42       6.6721    3.1150   -2.6332   H         1 RES1   0.0000
   104 H43       5.4616    4.4887   -4.7550   H         1 RES1   0.0000
   105 H44       4.1296    3.4861   -5.3424   H         1 RES1   0.0000
   106 H45       5.7390    2.7893   -5.0866   H         1 RES1   0.0000
   107 H46       2.5293    3.2677   -3.5957   H         1 RES1   0.0000
   108 H47       1.9579    2.7106   -1.2917   H         1 RES1   0.0000
   109 H48      -2.7057   -4.0067    4.1594   H         1 RES1   0.0000
   110 H49      -4.5472   -5.2502    3.1546   H         1 RES1   0.0000
   111 H50      -6.4128   -5.3636    1.7226   H         1 RES1   0.0000
   112 H51      -5.9772   -4.8358    0.0995   H         1 RES1   0.0000
   113 H52      -7.0202   -3.8267    1.0876   H         1 RES1   0.0000
   114 H53      -5.1241   -2.1364    0.3085   H         1 RES1   0.0000
   115 H54      -3.2855   -0.8490    1.3150   H         1 RES1   0.0000
   116 N7       -1.2109    2.1458    0.3159   N.3       1 RES1   0.0000
   117 O5       -2.0461    2.8474   -0.1477   O.2       1 RES1   0.0000
   118 O6       -1.4627    1.2900    1.1778   O.co2     1 RES1   0.0000
   119 O7       -0.0142    2.2506   -0.0056   O.co2     1 RES1   0.0000
@<TRIPOS>BOND
     1     1     6    1
     2     1    13    1
     3     1    24    1
     4     1    63    1
     5     1    70    1
     6     1    81    1
     7     1   118    1
     8     1   119    1
     9     2     3    1
    10     2    32    1
    11     2    33    1
    12     2    34    1
    13     3     4    1
    14     3    35    1
    15     3    36    1
    16     4     5    1
    17     4    25    1
    18     5     6    2
    19     5     7    1
    20     7     8    1
    21     7    24    2
    22     8     9    2
    23     8    37    1
    24     9    10    1
    25     9    38    1
    26    10    11    2
    27    10    39    1
    28    11    12    1
    29    11    24    1
    30    12    13    2
    31    12    14    1
    32    14    15    1
    33    14    17    1
    34    15    16    1
    35    15    40    1
    36    15    41    1
    37    16    42    1
    38    16    43    1
    39    16    44    1
    40    17    18    1
    41    17    23    2
    42    18    19    2
    43    18    45    1
    44    19    20    1
    45    19    46    1
    46    20    21    1
    47    20    22    2
    48    21    47    1
    49    21    48    1
    50    21    49    1
    51    22    23    1
    52    22    50    1
    53    23    51    1
    54    25    26    1
    55    25    31    2
    56    26    27    2
    57    26    52    1
    58    27    28    1
    59    27    53    1
    60    28    29    1
    61    28    30    2
    62    29    54    1
    63    29    55    1
    64    29    56    1
    65    30    31    1
    66    30    57    1
    67    31    58    1
    68    59    60    1
    69    59    89    1
    70    59    90    1
    71    59    91    1
    72    60    61    1
    73    60    92    1
    74    60    93    1
    75    61    62    1
    76    61    82    1
    77    62    63    2
    78    62    64    1
    79    64    65    1
    80    64    81    2
    81    65    66    2
    82    65    94    1
    83    66    67    1
    84    66    95    1
    85    67    68    2
    86    67    96    1
    87    68    69    1
    88    68    81    1
    89    69    70    2
    90    69    71    1
    91    71    72    1
    92    71    74    1
    93    72    73    1
    94    72    97    1
    95    72    98    1
    96    73    99    1
    97    73   100    1
    98    73   101    1
    99    74    75    1
   100    74    80    2
   101    75    76    2
   102    75   102    1
   103    76    77    1
   104    76   103    1
   105    77    78    1
   106    77    79    2
   107    78   104    1
   108    78   105    1
   109    78   106    1
   110    79    80    1
   111    79   107    1
   112    80   108    1
   113    82    83    1
   114    82    88    2
   115    83    84    2
   116    83   109    1
   117    84    85    1
   118    84   110    1
   119    85    86    1
   120    85    87    2
   121    86   111    1
   122    86   112    1
   123    86   113    1
   124    87    88    1
   125    87   114    1
   126    88   115    1
   127   116   117    2
   128   116   118    1
   129   116   119    1
@<TRIPOS>SUBSTRUCTURE
     1 RES1      119 GROUP             0 ****  ****    0  
