@<TRIPOS>MOLECULE
ICIGOT_geomtry_0_nunpairedes_0_charge_3 Charge: 3 Unpaired_Electrons: 4 XTB_Unpaired_Electrons: 0 XTB_Charge: 3
   157   168     1     0     0
SMALL
NoCharges
****
Generated from Architector

@<TRIPOS>ATOM
     1 Ho1       0.0084    0.0289    0.1221   Ho        1 RES1   0.0000
     2 C1       -4.8254   -1.4193    3.3065   C.3       1 RES1   0.0000
     3 N1       -3.4061   -1.1787    3.1078   N.am      1 RES1   0.0000
     4 C2       -2.8484   -0.9051    1.9287   C.2       1 RES1   0.0000
     5 O1       -1.6223   -0.7596    1.7667   O.2       1 RES1   0.0000
     6 C3       -3.7506   -0.6839    0.7213   C.3       1 RES1   0.0000
     7 C4       -3.1616   -1.4184   -0.4846   C.2       1 RES1   0.0000
     8 O2       -2.0118   -1.0735   -0.8250   O.2       1 RES1   0.0000
     9 N2       -3.8884   -2.3610   -1.1024   N.am      1 RES1   0.0000
    10 C5       -5.1797   -2.7846   -0.5802   C.3       1 RES1   0.0000
    11 C6       -3.5209   -2.9522   -2.3534   C.ar      1 RES1   0.0000
    12 C7       -2.2040   -2.9801   -2.7997   C.ar      1 RES1   0.0000
    13 C8       -1.8866   -3.5746   -4.0103   C.ar      1 RES1   0.0000
    14 C9       -2.8607   -4.1710   -4.7902   C.ar      1 RES1   0.0000
    15 C10      -4.1733   -4.1380   -4.3556   C.ar      1 RES1   0.0000
    16 C11      -4.5055   -3.5258   -3.1592   C.ar      1 RES1   0.0000
    17 C12      -2.6183   -1.1633    4.2985   C.ar      1 RES1   0.0000
    18 C13      -1.4170   -1.8507    4.3616   C.ar      1 RES1   0.0000
    19 C14      -0.7203   -1.8809    5.5574   C.ar      1 RES1   0.0000
    20 C15      -1.2156   -1.2459    6.6827   C.ar      1 RES1   0.0000
    21 C16      -2.4012   -0.5340    6.6027   C.ar      1 RES1   0.0000
    22 C17      -3.0975   -0.4793    5.4089   C.ar      1 RES1   0.0000
    23 H1       -5.1881   -2.1893    2.6309   H         1 RES1   0.0000
    24 H2       -5.4133   -0.5115    3.1846   H         1 RES1   0.0000
    25 H3       -4.9811   -1.7898    4.3156   H         1 RES1   0.0000
    26 H4       -3.6111    0.3833    0.5008   H         1 RES1   0.0000
    27 H5       -4.7970   -0.8588    0.9215   H         1 RES1   0.0000
    28 H6       -5.2078   -2.7095    0.4995   H         1 RES1   0.0000
    29 H7       -5.3405   -3.8310   -0.8266   H         1 RES1   0.0000
    30 H8       -5.9861   -2.1872   -1.0080   H         1 RES1   0.0000
    31 H9       -1.4176   -2.5390   -2.2139   H         1 RES1   0.0000
    32 H10      -0.8614   -3.5759   -4.3474   H         1 RES1   0.0000
    33 H11      -2.6052   -4.6502   -5.7243   H         1 RES1   0.0000
    34 H12      -4.9536   -4.5832   -4.9521   H         1 RES1   0.0000
    35 H13      -5.5443   -3.4957   -2.8824   H         1 RES1   0.0000
    36 H14      -1.0462   -2.3760    3.4954   H         1 RES1   0.0000
    37 H15       0.2090   -2.4242    5.6165   H         1 RES1   0.0000
    38 H16      -0.6878   -1.3090    7.6230   H         1 RES1   0.0000
    39 H17      -2.7929   -0.0278    7.4702   H         1 RES1   0.0000
    40 H18      -4.0143    0.0861    5.3431   H         1 RES1   0.0000
    41 C18       0.5612    1.5273   -5.6405   C.3       1 RES1   0.0000
    42 N3       -0.1587    1.6645   -4.3847   N.am      1 RES1   0.0000
    43 C19       0.2326    1.0465   -3.2593   C.2       1 RES1   0.0000
    44 O3       -0.3688    1.1043   -2.1690   O.2       1 RES1   0.0000
    45 C20       1.5375    0.2424   -3.2157   C.3       1 RES1   0.0000
    46 C21       1.2231   -1.1858   -2.7578   C.2       1 RES1   0.0000
    47 O4        0.7454   -1.3286   -1.6199   O.2       1 RES1   0.0000
    48 N4        1.5202   -2.2056   -3.5764   N.am      1 RES1   0.0000
    49 C22       1.6837   -1.9592   -5.0031   C.3       1 RES1   0.0000
    50 C23       1.6903   -3.5539   -3.1255   C.ar      1 RES1   0.0000
    51 C24       1.1333   -4.0400   -1.9454   C.ar      1 RES1   0.0000
    52 C25       1.3310   -5.3611   -1.5791   C.ar      1 RES1   0.0000
    53 C26       2.0483   -6.2277   -2.3831   C.ar      1 RES1   0.0000
    54 C27       2.6243   -5.7429   -3.5437   C.ar      1 RES1   0.0000
    55 C28       2.4694   -4.4149   -3.9010   C.ar      1 RES1   0.0000
    56 C29      -1.2598    2.5877   -4.4786   C.ar      1 RES1   0.0000
    57 C30      -1.9144    3.0722   -3.3518   C.ar      1 RES1   0.0000
    58 C31      -2.9338    4.0046   -3.4635   C.ar      1 RES1   0.0000
    59 C32      -3.3172    4.4974   -4.6970   C.ar      1 RES1   0.0000
    60 C33      -2.6639    4.0326   -5.8218   C.ar      1 RES1   0.0000
    61 C34      -1.6622    3.0824   -5.7214   C.ar      1 RES1   0.0000
    62 H19       1.4666    0.9514   -5.5401   H         1 RES1   0.0000
    63 H20       0.8400    2.5148   -6.0053   H         1 RES1   0.0000
    64 H21      -0.0748    1.0387   -6.3779   H         1 RES1   0.0000
    65 H22       2.0988    0.6935   -2.3825   H         1 RES1   0.0000
    66 H23       2.1627    0.2717   -4.0946   H         1 RES1   0.0000
    67 H24       0.9989   -1.1680   -5.2944   H         1 RES1   0.0000
    68 H25       1.4064   -2.8494   -5.5653   H         1 RES1   0.0000
    69 H26       2.7128   -1.7016   -5.2646   H         1 RES1   0.0000
    70 H27       0.5354   -3.4167   -1.3019   H         1 RES1   0.0000
    71 H28       0.9097   -5.7287   -0.6572   H         1 RES1   0.0000
    72 H29       2.1640   -7.2650   -2.1089   H         1 RES1   0.0000
    73 H30       3.2006   -6.3987   -4.1777   H         1 RES1   0.0000
    74 H31       2.9774   -4.0638   -4.7845   H         1 RES1   0.0000
    75 H32      -1.6211    2.7191   -2.3806   H         1 RES1   0.0000
    76 H33      -3.4348    4.3565   -2.5760   H         1 RES1   0.0000
    77 H34      -4.1088    5.2259   -4.7827   H         1 RES1   0.0000
    78 H35      -2.9197    4.4139   -6.7957   H         1 RES1   0.0000
    79 H36      -1.2099    2.7541   -6.6373   H         1 RES1   0.0000
    80 C35       1.7647    5.1782    1.7995   C.3       1 RES1   0.0000
    81 N5        1.9057    3.7398    1.6314   N.am      1 RES1   0.0000
    82 C36       1.2471    3.0555    0.6950   C.2       1 RES1   0.0000
    83 O5        1.3618    1.8273    0.5143   O.2       1 RES1   0.0000
    84 C37       0.2356    3.7644   -0.1927   C.3       1 RES1   0.0000
    85 C38      -1.1512    3.2413    0.1936   C.2       1 RES1   0.0000
    86 O6       -1.2917    2.0483    0.5103   O.2       1 RES1   0.0000
    87 N6       -2.1640    4.1089    0.1244   N.am      1 RES1   0.0000
    88 C39      -1.9506    5.5133   -0.2000   C.3       1 RES1   0.0000
    89 C40      -3.5224    3.6645    0.0795   C.ar      1 RES1   0.0000
    90 C41      -3.8493    2.5126   -0.6265   C.ar      1 RES1   0.0000
    91 C42      -5.1761    2.2276   -0.8982   C.ar      1 RES1   0.0000
    92 C43      -6.1800    3.0864   -0.4827   C.ar      1 RES1   0.0000
    93 C44      -5.8544    4.1949    0.2827   C.ar      1 RES1   0.0000
    94 C45      -4.5328    4.4719    0.5920   C.ar      1 RES1   0.0000
    95 C46       2.7919    3.1258    2.5730   C.ar      1 RES1   0.0000
    96 C47       3.4686    1.9423    2.3019   C.ar      1 RES1   0.0000
    97 C48       4.3851    1.4521    3.2183   C.ar      1 RES1   0.0000
    98 C49       4.6494    2.1241    4.3980   C.ar      1 RES1   0.0000
    99 C50       3.9520    3.2836    4.6795   C.ar      1 RES1   0.0000
   100 C51       3.0186    3.7728    3.7864   C.ar      1 RES1   0.0000
   101 H37       1.4184    5.6604    0.8941   H         1 RES1   0.0000
   102 H38       2.7388    5.6017    2.0389   H         1 RES1   0.0000
   103 H39       1.0679    5.3944    2.6103   H         1 RES1   0.0000
   104 H40       0.3922    3.4271   -1.2250   H         1 RES1   0.0000
   105 H41       0.2875    4.8410   -0.1723   H         1 RES1   0.0000
   106 H42      -1.4144    6.0133    0.6046   H         1 RES1   0.0000
   107 H43      -2.9035    6.0165   -0.3290   H         1 RES1   0.0000
   108 H44      -1.4144    5.6171   -1.1427   H         1 RES1   0.0000
   109 H45      -3.0724    1.8768   -1.0247   H         1 RES1   0.0000
   110 H46      -5.4184    1.3507   -1.4775   H         1 RES1   0.0000
   111 H47      -7.2074    2.8878   -0.7485   H         1 RES1   0.0000
   112 H48      -6.6315    4.8650    0.6143   H         1 RES1   0.0000
   113 H49      -4.2944    5.3305    1.2019   H         1 RES1   0.0000
   114 H50       3.3022    1.4125    1.3790   H         1 RES1   0.0000
   115 H51       4.9226    0.5448    2.9949   H         1 RES1   0.0000
   116 H52       5.3948    1.7613    5.0894   H         1 RES1   0.0000
   117 H53       4.1384    3.8314    5.5876   H         1 RES1   0.0000
   118 H54       2.4759    4.6637    4.0490   H         1 RES1   0.0000
   119 C52       3.0812   -1.7456    4.8375   C.3       1 RES1   0.0000
   120 N7        2.2240   -0.8624    4.0591   N.am      1 RES1   0.0000
   121 C53       1.9705   -1.1370    2.7656   C.2       1 RES1   0.0000
   122 O7        1.0211   -0.6516    2.1309   O.2       1 RES1   0.0000
   123 C54       2.8284   -2.1640    2.0189   C.3       1 RES1   0.0000
   124 C55       3.0800   -1.7111    0.5698   C.2       1 RES1   0.0000
   125 O8        2.4974   -0.7284    0.0894   O.2       1 RES1   0.0000
   126 N8        3.9893   -2.3819   -0.1571   N.am      1 RES1   0.0000
   127 C56       4.3118   -1.8486   -1.4766   C.3       1 RES1   0.0000
   128 C57       4.7522   -3.5137    0.2560   C.ar      1 RES1   0.0000
   129 C58       4.2097   -4.5641    0.9932   C.ar      1 RES1   0.0000
   130 C59       5.0154   -5.6041    1.4304   C.ar      1 RES1   0.0000
   131 C60       6.3594   -5.6482    1.0914   C.ar      1 RES1   0.0000
   132 C61       6.8832   -4.6585    0.2712   C.ar      1 RES1   0.0000
   133 C62       6.0909   -3.5932   -0.1264   C.ar      1 RES1   0.0000
   134 C63       1.6828    0.2673    4.7496   C.ar      1 RES1   0.0000
   135 C64       0.6505    1.0549    4.2398   C.ar      1 RES1   0.0000
   136 C65       0.1654    2.1353    4.9589   C.ar      1 RES1   0.0000
   137 C66       0.6636    2.4546    6.2086   C.ar      1 RES1   0.0000
   138 C67       1.6995    1.6912    6.7150   C.ar      1 RES1   0.0000
   139 C68       2.2168    0.6305    5.9896   C.ar      1 RES1   0.0000
   140 H55       3.0842   -2.7427    4.4124   H         1 RES1   0.0000
   141 H56       2.6907   -1.8353    5.8489   H         1 RES1   0.0000
   142 H57       4.1005   -1.3670    4.8932   H         1 RES1   0.0000
   143 H58       2.2139   -3.0658    1.9608   H         1 RES1   0.0000
   144 H59       3.7834   -2.4076    2.4836   H         1 RES1   0.0000
   145 H60       3.4630   -1.2631   -1.8182   H         1 RES1   0.0000
   146 H61       4.5068   -2.6650   -2.1732   H         1 RES1   0.0000
   147 H62       5.1789   -1.1875   -1.4135   H         1 RES1   0.0000
   148 H63       3.1594   -4.6112    1.2219   H         1 RES1   0.0000
   149 H64       4.5855   -6.3940    2.0330   H         1 RES1   0.0000
   150 H65       6.9932   -6.4453    1.4574   H         1 RES1   0.0000
   151 H66       7.9110   -4.7126   -0.0663   H         1 RES1   0.0000
   152 H67       6.5325   -2.8163   -0.7300   H         1 RES1   0.0000
   153 H68       0.1916    0.8475    3.2859   H         1 RES1   0.0000
   154 H69      -0.6248    2.7352    4.5312   H         1 RES1   0.0000
   155 H70       0.2655    3.2903    6.7682   H         1 RES1   0.0000
   156 H71       2.1149    1.9301    7.6830   H         1 RES1   0.0000
   157 H72       3.0575    0.1141    6.4193   H         1 RES1   0.0000
@<TRIPOS>BOND
     1     1     5    1
     2     1     8    1
     3     1    44    1
     4     1    47    1
     5     1    83    1
     6     1    86    1
     7     1   122    1
     8     1   125    1
     9     2     3    1
    10     2    23    1
    11     2    24    1
    12     2    25    1
    13     3     4    1
    14     3    17    1
    15     4     5    2
    16     4     6    1
    17     6     7    1
    18     6    26    1
    19     6    27    1
    20     7     8    2
    21     7     9    1
    22     9    10    1
    23     9    11    1
    24    10    28    1
    25    10    29    1
    26    10    30    1
    27    11    12    1
    28    11    16    2
    29    12    13    2
    30    12    31    1
    31    13    14    1
    32    13    32    1
    33    14    15    2
    34    14    33    1
    35    15    16    1
    36    15    34    1
    37    16    35    1
    38    17    18    1
    39    17    22    2
    40    18    19    2
    41    18    36    1
    42    19    20    1
    43    19    37    1
    44    20    21    2
    45    20    38    1
    46    21    22    1
    47    21    39    1
    48    22    40    1
    49    41    42    1
    50    41    62    1
    51    41    63    1
    52    41    64    1
    53    42    43    1
    54    42    56    1
    55    43    44    2
    56    43    45    1
    57    45    46    1
    58    45    65    1
    59    45    66    1
    60    46    47    2
    61    46    48    1
    62    48    49    1
    63    48    50    1
    64    49    67    1
    65    49    68    1
    66    49    69    1
    67    50    51    1
    68    50    55    2
    69    51    52    2
    70    51    70    1
    71    52    53    1
    72    52    71    1
    73    53    54    2
    74    53    72    1
    75    54    55    1
    76    54    73    1
    77    55    74    1
    78    56    57    1
    79    56    61    2
    80    57    58    2
    81    57    75    1
    82    58    59    1
    83    58    76    1
    84    59    60    2
    85    59    77    1
    86    60    61    1
    87    60    78    1
    88    61    79    1
    89    80    81    1
    90    80   101    1
    91    80   102    1
    92    80   103    1
    93    81    82    1
    94    81    95    1
    95    82    83    2
    96    82    84    1
    97    84    85    1
    98    84   104    1
    99    84   105    1
   100    85    86    2
   101    85    87    1
   102    87    88    1
   103    87    89    1
   104    88   106    1
   105    88   107    1
   106    88   108    1
   107    89    90    1
   108    89    94    2
   109    90    91    2
   110    90   109    1
   111    91    92    1
   112    91   110    1
   113    92    93    2
   114    92   111    1
   115    93    94    1
   116    93   112    1
   117    94   113    1
   118    95    96    1
   119    95   100    2
   120    96    97    2
   121    96   114    1
   122    97    98    1
   123    97   115    1
   124    98    99    2
   125    98   116    1
   126    99   100    1
   127    99   117    1
   128   100   118    1
   129   119   120    1
   130   119   140    1
   131   119   141    1
   132   119   142    1
   133   120   121    1
   134   120   134    1
   135   121   122    2
   136   121   123    1
   137   123   124    1
   138   123   143    1
   139   123   144    1
   140   124   125    2
   141   124   126    1
   142   126   127    1
   143   126   128    1
   144   127   145    1
   145   127   146    1
   146   127   147    1
   147   128   129    1
   148   128   133    2
   149   129   130    2
   150   129   148    1
   151   130   131    1
   152   130   149    1
   153   131   132    2
   154   131   150    1
   155   132   133    1
   156   132   151    1
   157   133   152    1
   158   134   135    1
   159   134   139    2
   160   135   136    2
   161   135   153    1
   162   136   137    1
   163   136   154    1
   164   137   138    2
   165   137   155    1
   166   138   139    1
   167   138   156    1
   168   139   157    1
@<TRIPOS>SUBSTRUCTURE
     1 RES1      157 GROUP             0 ****  ****    0  
