@<TRIPOS>MOLECULE
bicapped_trigonal_prismatic_0_nunpairedes_0_charge_2 Charge: 2 Unpaired_Electrons: 4 XTB_Unpaired_Electrons: 0 XTB_Charge: 2
   231   235     1     0     0
SMALL
NoCharges
****
Generated from Architector

@<TRIPOS>ATOM
     1 Ho1      -0.1270    0.1047    0.1333   Ho        1 RES1   0.0000
     2 C1        6.3142   -4.9955   -6.1873   C.3       1 RES1   0.0000
     3 C2        5.6506   -4.2564   -7.3402   C.3       1 RES1   0.0000
     4 C3        5.0080   -2.9419   -6.9053   C.3       1 RES1   0.0000
     5 C4        5.9924   -1.8972   -6.3799   C.3       1 RES1   0.0000
     6 C5        5.2643   -0.6316   -5.9143   C.3       1 RES1   0.0000
     7 C6        5.8906    0.0002   -4.6638   C.3       1 RES1   0.0000
     8 C7        4.7876    0.5264   -3.7536   C.3       1 RES1   0.0000
     9 C8        5.2987    1.2623   -2.5139   C.3       1 RES1   0.0000
    10 C9        5.7325    0.3247   -1.3750   C.3       1 RES1   0.0000
    11 C10       5.3186    0.8288    0.0215   C.3       1 RES1   0.0000
    12 N1        4.1414    0.1556    0.5741   N.am      1 RES1   0.0000
    13 C11       4.4105   -1.2714    0.8343   C.3       1 RES1   0.0000
    14 C12       3.5437   -2.0586    1.8246   C.3       1 RES1   0.0000
    15 C13       3.5133   -3.5482    1.4552   C.3       1 RES1   0.0000
    16 C14       2.2434   -4.2373    1.9716   C.3       1 RES1   0.0000
    17 C15       1.7245   -5.3364    1.0449   C.3       1 RES1   0.0000
    18 C16       0.2853   -5.7433    1.3787   C.3       1 RES1   0.0000
    19 C17      -0.3468   -6.5629    0.2392   C.3       1 RES1   0.0000
    20 C18      -1.5574   -5.9146   -0.4339   C.3       1 RES1   0.0000
    21 C19      -2.7971   -5.7946    0.4494   C.3       1 RES1   0.0000
    22 C20      -4.0320   -5.4286   -0.3741   C.3       1 RES1   0.0000
    23 C21       2.9398    0.7037    0.6446   C.2       1 RES1   0.0000
    24 O1        1.9381    0.1833    1.1752   O.2       1 RES1   0.0000
    25 C22       2.6569    2.0901    0.0090   C.3       1 RES1   0.0000
    26 O2        1.2436    2.3093   -0.0050   O.3       1 RES1   0.0000
    27 C23       0.7432    3.1511    1.0385   C.3       1 RES1   0.0000
    28 C24       0.2498    2.3224    2.2265   C.2       1 RES1   0.0000
    29 O3       -0.4166    1.2966    1.9565   O.2       1 RES1   0.0000
    30 N2        0.4972    2.6899    3.4735   N.am      1 RES1   0.0000
    31 C25       0.0050    1.8056    4.5351   C.3       1 RES1   0.0000
    32 C26      -1.5178    1.6841    4.6300   C.3       1 RES1   0.0000
    33 C27      -2.2714    2.9870    4.8830   C.3       1 RES1   0.0000
    34 C28      -3.7262    2.6877    5.2470   C.3       1 RES1   0.0000
    35 C29      -4.5576    3.9377    5.5344   C.3       1 RES1   0.0000
    36 C30      -4.9197    4.7273    4.2824   C.3       1 RES1   0.0000
    37 C31       1.2787    3.8581    3.8632   C.3       1 RES1   0.0000
    38 C32       0.5044    5.1752    3.7589   C.3       1 RES1   0.0000
    39 C33       1.2865    6.3604    4.3344   C.3       1 RES1   0.0000
    40 C34       2.5612    6.7755    3.5905   C.3       1 RES1   0.0000
    41 C35       2.3641    7.6789    2.3703   C.3       1 RES1   0.0000
    42 C36       1.8320    6.9795    1.1259   C.3       1 RES1   0.0000
    43 H1        6.5473   -6.0161   -6.4666   H         1 RES1   0.0000
    44 H2        5.6457   -5.0292   -5.3363   H         1 RES1   0.0000
    45 H3        7.2336   -4.5049   -5.8910   H         1 RES1   0.0000
    46 H4        4.8685   -4.8873   -7.7683   H         1 RES1   0.0000
    47 H5        6.3826   -4.0705   -8.1250   H         1 RES1   0.0000
    48 H6        4.2673   -3.1554   -6.1261   H         1 RES1   0.0000
    49 H7        4.4764   -2.5170   -7.7601   H         1 RES1   0.0000
    50 H8        6.7091   -1.6380   -7.1546   H         1 RES1   0.0000
    51 H9        6.5496   -2.3144   -5.5456   H         1 RES1   0.0000
    52 H10       4.2263   -0.8926   -5.6851   H         1 RES1   0.0000
    53 H11       5.2319    0.0952   -6.7238   H         1 RES1   0.0000
    54 H12       6.5665    0.8080   -4.9424   H         1 RES1   0.0000
    55 H13       6.4822   -0.7364   -4.1218   H         1 RES1   0.0000
    56 H14       4.1623   -0.3155   -3.4400   H         1 RES1   0.0000
    57 H15       4.1613    1.2078   -4.3344   H         1 RES1   0.0000
    58 H16       4.5038    1.9208   -2.1640   H         1 RES1   0.0000
    59 H17       6.1302    1.9074   -2.7968   H         1 RES1   0.0000
    60 H18       6.8157    0.2017   -1.3940   H         1 RES1   0.0000
    61 H19       5.3114   -0.6649   -1.5474   H         1 RES1   0.0000
    62 H20       5.1460    1.9027   -0.0281   H         1 RES1   0.0000
    63 H21       6.1319    0.6594    0.7353   H         1 RES1   0.0000
    64 H22       5.4537   -1.3417    1.1552   H         1 RES1   0.0000
    65 H23       4.3293   -1.7667   -0.1402   H         1 RES1   0.0000
    66 H24       2.5187   -1.6982    1.7967   H         1 RES1   0.0000
    67 H25       3.9124   -1.9077    2.8423   H         1 RES1   0.0000
    68 H26       4.4078   -4.0555    1.8092   H         1 RES1   0.0000
    69 H27       3.5127   -3.6269    0.3667   H         1 RES1   0.0000
    70 H28       1.4543   -3.4867    2.0563   H         1 RES1   0.0000
    71 H29       2.3969   -4.6421    2.9683   H         1 RES1   0.0000
    72 H30       2.3801   -6.2094    1.0654   H         1 RES1   0.0000
    73 H31       1.7170   -4.9557    0.0241   H         1 RES1   0.0000
    74 H32      -0.2922   -4.8327    1.5475   H         1 RES1   0.0000
    75 H33       0.2758   -6.3118    2.3084   H         1 RES1   0.0000
    76 H34      -0.6333   -7.5521    0.5933   H         1 RES1   0.0000
    77 H35       0.4056   -6.7138   -0.5347   H         1 RES1   0.0000
    78 H36      -1.8174   -6.5231   -1.3021   H         1 RES1   0.0000
    79 H37      -1.2780   -4.9227   -0.7925   H         1 RES1   0.0000
    80 H38      -2.6311   -5.0459    1.2275   H         1 RES1   0.0000
    81 H39      -2.9797   -6.7452    0.9493   H         1 RES1   0.0000
    82 H40      -3.8489   -4.5326   -0.9713   H         1 RES1   0.0000
    83 H41      -4.8934   -5.2553    0.2713   H         1 RES1   0.0000
    84 H42      -4.2843   -6.2356   -1.0604   H         1 RES1   0.0000
    85 H43       2.9643    2.0868   -1.0415   H         1 RES1   0.0000
    86 H44       3.1572    2.9021    0.5437   H         1 RES1   0.0000
    87 H45      -0.1355    3.6407    0.6042   H         1 RES1   0.0000
    88 H46       1.4821    3.9095    1.3037   H         1 RES1   0.0000
    89 H47       0.3899    2.1752    5.4851   H         1 RES1   0.0000
    90 H48       0.4214    0.8081    4.3470   H         1 RES1   0.0000
    91 H49      -1.7025    1.0107    5.4672   H         1 RES1   0.0000
    92 H50      -1.8981    1.2057    3.7266   H         1 RES1   0.0000
    93 H51      -2.2283    3.6219    3.9960   H         1 RES1   0.0000
    94 H52      -1.8068    3.5241    5.7114   H         1 RES1   0.0000
    95 H53      -3.7300    2.0527    6.1344   H         1 RES1   0.0000
    96 H54      -4.1985    2.1240    4.4384   H         1 RES1   0.0000
    97 H55      -4.0200    4.5809    6.2313   H         1 RES1   0.0000
    98 H56      -5.4815    3.6347    6.0278   H         1 RES1   0.0000
    99 H57      -4.0316    5.0630    3.7512   H         1 RES1   0.0000
   100 H58      -5.5053    5.6028    4.5501   H         1 RES1   0.0000
   101 H59      -5.5165    4.1137    3.6107   H         1 RES1   0.0000
   102 H60       2.1972    3.9002    3.2731   H         1 RES1   0.0000
   103 H61       1.5730    3.7147    4.9046   H         1 RES1   0.0000
   104 H62      -0.4198    5.0709    4.3275   H         1 RES1   0.0000
   105 H63       0.2360    5.3660    2.7227   H         1 RES1   0.0000
   106 H64       1.5549    6.1116    5.3633   H         1 RES1   0.0000
   107 H65       0.6184    7.2209    4.3685   H         1 RES1   0.0000
   108 H66       3.1419    5.9001    3.2961   H         1 RES1   0.0000
   109 H67       3.1768    7.3296    4.3007   H         1 RES1   0.0000
   110 H68       3.3336    8.1146    2.1243   H         1 RES1   0.0000
   111 H69       1.7018    8.5009    2.6336   H         1 RES1   0.0000
   112 H70       2.4364    6.1022    0.8980   H         1 RES1   0.0000
   113 H71       1.8797    7.6504    0.2728   H         1 RES1   0.0000
   114 H72       0.7942    6.6804    1.2462   H         1 RES1   0.0000
   115 C37       3.4233    5.2192   -3.4913   C.3       1 RES1   0.0000
   116 C38       2.0544    4.5462   -3.4804   C.3       1 RES1   0.0000
   117 C39       1.1255    5.1588   -2.4361   C.3       1 RES1   0.0000
   118 C40      -0.1992    4.4099   -2.3377   C.3       1 RES1   0.0000
   119 C41      -1.1534    5.0917   -1.3579   C.3       1 RES1   0.0000
   120 C42      -2.3230    4.1869   -0.9658   C.3       1 RES1   0.0000
   121 C43      -3.0694    4.6953    0.2714   C.3       1 RES1   0.0000
   122 C44      -4.2976    3.8424    0.6039   C.3       1 RES1   0.0000
   123 C45      -3.9012    2.4957    1.2165   C.3       1 RES1   0.0000
   124 C46      -4.9199    1.3864    0.9344   C.3       1 RES1   0.0000
   125 N3       -4.4020    0.0143    0.7867   N.am      1 RES1   0.0000
   126 C47      -5.2725   -1.0438    1.2923   C.3       1 RES1   0.0000
   127 C48      -4.8952   -1.4191    2.7322   C.3       1 RES1   0.0000
   128 C49      -3.6404   -2.2919    2.8198   C.3       1 RES1   0.0000
   129 C50      -3.3420   -2.7980    4.2361   C.3       1 RES1   0.0000
   130 C51      -2.9739   -1.6723    5.2111   C.3       1 RES1   0.0000
   131 C52      -1.7371   -1.9633    6.0606   C.3       1 RES1   0.0000
   132 C53      -0.4492   -2.1165    5.2477   C.3       1 RES1   0.0000
   133 C54       0.7862   -1.8410    6.1083   C.3       1 RES1   0.0000
   134 C55       2.0997   -2.2122    5.4077   C.3       1 RES1   0.0000
   135 C56       2.4529   -3.6825    5.5965   C.3       1 RES1   0.0000
   136 C57      -3.2560   -0.2735    0.1932   C.2       1 RES1   0.0000
   137 O4       -2.3122    0.5314    0.0250   O.2       1 RES1   0.0000
   138 C58      -3.0466   -1.6628   -0.4487   C.3       1 RES1   0.0000
   139 O5       -1.7253   -1.6516   -0.9728   O.3       1 RES1   0.0000
   140 C59      -1.5026   -1.8202   -2.3616   C.3       1 RES1   0.0000
   141 C60      -0.6069   -0.6686   -2.8419   C.2       1 RES1   0.0000
   142 O6       -0.4672    0.3338   -2.1030   O.2       1 RES1   0.0000
   143 N4       -0.0530   -0.7549   -4.0403   N.am      1 RES1   0.0000
   144 C61       0.5468    0.4472   -4.6073   C.3       1 RES1   0.0000
   145 C62      -0.3379    1.1090   -5.6687   C.3       1 RES1   0.0000
   146 C63      -1.6406    1.7074   -5.1232   C.3       1 RES1   0.0000
   147 C64      -2.7866    0.7065   -4.9648   C.3       1 RES1   0.0000
   148 C65      -4.0233    1.3656   -4.3510   C.3       1 RES1   0.0000
   149 C66      -5.0725    0.3473   -3.9196   C.3       1 RES1   0.0000
   150 C67       0.0136   -1.9754   -4.8384   C.3       1 RES1   0.0000
   151 C68       0.9289   -3.0677   -4.2458   C.3       1 RES1   0.0000
   152 C69       2.2146   -2.5269   -3.6100   C.3       1 RES1   0.0000
   153 C70       2.7328   -3.4597   -2.5084   C.3       1 RES1   0.0000
   154 C71       3.7993   -4.4581   -2.9532   C.3       1 RES1   0.0000
   155 C72       5.1932   -3.8487   -2.8634   C.3       1 RES1   0.0000
   156 H73       4.0526    4.7911   -4.2695   H         1 RES1   0.0000
   157 H74       3.9223    5.0951   -2.5300   H         1 RES1   0.0000
   158 H75       3.3179    6.2846   -3.6856   H         1 RES1   0.0000
   159 H76       2.1679    3.4746   -3.2799   H         1 RES1   0.0000
   160 H77       1.5982    4.6470   -4.4672   H         1 RES1   0.0000
   161 H78       0.9356    6.2012   -2.6939   H         1 RES1   0.0000
   162 H79       1.6174    5.1484   -1.4595   H         1 RES1   0.0000
   163 H80      -0.0092    3.3794   -2.0084   H         1 RES1   0.0000
   164 H81      -0.6599    4.3632   -3.3266   H         1 RES1   0.0000
   165 H82      -1.5358    6.0118   -1.7981   H         1 RES1   0.0000
   166 H83      -0.5969    5.3876   -0.4629   H         1 RES1   0.0000
   167 H84      -1.9445    3.1682   -0.7959   H         1 RES1   0.0000
   168 H85      -3.0209    4.1359   -1.8046   H         1 RES1   0.0000
   169 H86      -3.3898    5.7195    0.0783   H         1 RES1   0.0000
   170 H87      -2.3889    4.7160    1.1290   H         1 RES1   0.0000
   171 H88      -4.8475    3.6775   -0.3233   H         1 RES1   0.0000
   172 H89      -4.9575    4.3907    1.2763   H         1 RES1   0.0000
   173 H90      -3.7637    2.6017    2.2909   H         1 RES1   0.0000
   174 H91      -2.9487    2.2067    0.7860   H         1 RES1   0.0000
   175 H92      -5.4380    1.6166   -0.0069   H         1 RES1   0.0000
   176 H93      -5.6750    1.3591    1.7210   H         1 RES1   0.0000
   177 H94      -5.2284   -1.9267    0.6552   H         1 RES1   0.0000
   178 H95      -6.3012   -0.6878    1.2564   H         1 RES1   0.0000
   179 H96      -5.7301   -1.9715    3.1615   H         1 RES1   0.0000
   180 H97      -4.7662   -0.5097    3.3198   H         1 RES1   0.0000
   181 H98      -2.7592   -1.7445    2.4585   H         1 RES1   0.0000
   182 H99      -3.7907   -3.1695    2.1837   H         1 RES1   0.0000
   183 H100     -2.5112   -3.5012    4.1673   H         1 RES1   0.0000
   184 H101     -4.2044   -3.3528    4.6080   H         1 RES1   0.0000
   185 H102     -3.8113   -1.4723    5.8803   H         1 RES1   0.0000
   186 H103     -2.7909   -0.7598    4.6444   H         1 RES1   0.0000
   187 H104     -1.9036   -2.8624    6.6506   H         1 RES1   0.0000
   188 H105     -1.6067   -1.1374    6.7632   H         1 RES1   0.0000
   189 H106     -0.4590   -1.4238    4.4006   H         1 RES1   0.0000
   190 H107     -0.3766   -3.1231    4.8386   H         1 RES1   0.0000
   191 H108      0.7121   -2.4085    7.0380   H         1 RES1   0.0000
   192 H109      0.8008   -0.7801    6.3764   H         1 RES1   0.0000
   193 H110      2.9161   -1.6048    5.8096   H         1 RES1   0.0000
   194 H111      2.0096   -1.9855    4.3428   H         1 RES1   0.0000
   195 H112      2.6637   -3.8794    6.6435   H         1 RES1   0.0000
   196 H113      3.3315   -3.9452    5.0142   H         1 RES1   0.0000
   197 H114      1.6306   -4.3223    5.2878   H         1 RES1   0.0000
   198 H115     -3.8004   -1.8034   -1.2328   H         1 RES1   0.0000
   199 H116     -3.0960   -2.4862    0.2679   H         1 RES1   0.0000
   200 H117     -2.4411   -1.7791   -2.9250   H         1 RES1   0.0000
   201 H118     -1.0262   -2.7960   -2.5131   H         1 RES1   0.0000
   202 H119      1.5118    0.1857   -5.0412   H         1 RES1   0.0000
   203 H120      0.6988    1.1498   -3.7850   H         1 RES1   0.0000
   204 H121     -0.5570    0.4000   -6.4673   H         1 RES1   0.0000
   205 H122      0.2525    1.9141   -6.1088   H         1 RES1   0.0000
   206 H123     -1.9792    2.4919   -5.8041   H         1 RES1   0.0000
   207 H124     -1.4373    2.1712   -4.1544   H         1 RES1   0.0000
   208 H125     -2.4762   -0.1146   -4.3188   H         1 RES1   0.0000
   209 H126     -3.0391    0.2858   -5.9400   H         1 RES1   0.0000
   210 H127     -4.4580    2.0495   -5.0802   H         1 RES1   0.0000
   211 H128     -3.7223    1.9540   -3.4804   H         1 RES1   0.0000
   212 H129     -5.3275   -0.3218   -4.7363   H         1 RES1   0.0000
   213 H130     -5.9798    0.8500   -3.5986   H         1 RES1   0.0000
   214 H131     -4.7082   -0.2510   -3.0855   H         1 RES1   0.0000
   215 H132      0.3970   -1.6948   -5.8164   H         1 RES1   0.0000
   216 H133     -0.9842   -2.3936   -4.9813   H         1 RES1   0.0000
   217 H134      1.1758   -3.7702   -5.0462   H         1 RES1   0.0000
   218 H135      0.3970   -3.6439   -3.4872   H         1 RES1   0.0000
   219 H136      2.0048   -1.5554   -3.1554   H         1 RES1   0.0000
   220 H137      2.9773   -2.3701   -4.3767   H         1 RES1   0.0000
   221 H138      1.8797   -3.9970   -2.0989   H         1 RES1   0.0000
   222 H139      3.1482   -2.8522   -1.7002   H         1 RES1   0.0000
   223 H140      3.5925   -4.7838   -3.9757   H         1 RES1   0.0000
   224 H141      3.7552   -5.3430   -2.3166   H         1 RES1   0.0000
   225 H142      5.2236   -2.9103   -3.4093   H         1 RES1   0.0000
   226 H143      5.9272   -4.5252   -3.2859   H         1 RES1   0.0000
   227 H144      5.4706   -3.6629   -1.8278   H         1 RES1   0.0000
   228 N5        0.4159   -2.1851   -0.0735   N.3       1 RES1   0.0000
   229 O7        0.2958   -3.2980   -0.4571   O.2       1 RES1   0.0000
   230 O8       -0.0920   -1.7995    0.9918   O.co2     1 RES1   0.0000
   231 O9        1.0526   -1.3531   -0.7405   O.co2     1 RES1   0.0000
@<TRIPOS>BOND
     1     1    24    1
     2     1    26    1
     3     1    29    1
     4     1   137    1
     5     1   139    1
     6     1   142    1
     7     1   230    1
     8     1   231    1
     9     2     3    1
    10     2    43    1
    11     2    44    1
    12     2    45    1
    13     3     4    1
    14     3    46    1
    15     3    47    1
    16     4     5    1
    17     4    48    1
    18     4    49    1
    19     5     6    1
    20     5    50    1
    21     5    51    1
    22     6     7    1
    23     6    52    1
    24     6    53    1
    25     7     8    1
    26     7    54    1
    27     7    55    1
    28     8     9    1
    29     8    56    1
    30     8    57    1
    31     9    10    1
    32     9    58    1
    33     9    59    1
    34    10    11    1
    35    10    60    1
    36    10    61    1
    37    11    12    1
    38    11    62    1
    39    11    63    1
    40    12    13    1
    41    12    23    1
    42    13    14    1
    43    13    64    1
    44    13    65    1
    45    14    15    1
    46    14    66    1
    47    14    67    1
    48    15    16    1
    49    15    68    1
    50    15    69    1
    51    16    17    1
    52    16    70    1
    53    16    71    1
    54    17    18    1
    55    17    72    1
    56    17    73    1
    57    18    19    1
    58    18    74    1
    59    18    75    1
    60    19    20    1
    61    19    76    1
    62    19    77    1
    63    20    21    1
    64    20    78    1
    65    20    79    1
    66    21    22    1
    67    21    80    1
    68    21    81    1
    69    22    82    1
    70    22    83    1
    71    22    84    1
    72    23    24    2
    73    23    25    1
    74    25    26    1
    75    25    85    1
    76    25    86    1
    77    26    27    1
    78    27    28    1
    79    27    87    1
    80    27    88    1
    81    28    29    2
    82    28    30    1
    83    30    31    1
    84    30    37    1
    85    31    32    1
    86    31    89    1
    87    31    90    1
    88    32    33    1
    89    32    91    1
    90    32    92    1
    91    33    34    1
    92    33    93    1
    93    33    94    1
    94    34    35    1
    95    34    95    1
    96    34    96    1
    97    35    36    1
    98    35    97    1
    99    35    98    1
   100    36    99    1
   101    36   100    1
   102    36   101    1
   103    37    38    1
   104    37   102    1
   105    37   103    1
   106    38    39    1
   107    38   104    1
   108    38   105    1
   109    39    40    1
   110    39   106    1
   111    39   107    1
   112    40    41    1
   113    40   108    1
   114    40   109    1
   115    41    42    1
   116    41   110    1
   117    41   111    1
   118    42   112    1
   119    42   113    1
   120    42   114    1
   121   115   116    1
   122   115   156    1
   123   115   157    1
   124   115   158    1
   125   116   117    1
   126   116   159    1
   127   116   160    1
   128   117   118    1
   129   117   161    1
   130   117   162    1
   131   118   119    1
   132   118   163    1
   133   118   164    1
   134   119   120    1
   135   119   165    1
   136   119   166    1
   137   120   121    1
   138   120   167    1
   139   120   168    1
   140   121   122    1
   141   121   169    1
   142   121   170    1
   143   122   123    1
   144   122   171    1
   145   122   172    1
   146   123   124    1
   147   123   173    1
   148   123   174    1
   149   124   125    1
   150   124   175    1
   151   124   176    1
   152   125   126    1
   153   125   136    1
   154   126   127    1
   155   126   177    1
   156   126   178    1
   157   127   128    1
   158   127   179    1
   159   127   180    1
   160   128   129    1
   161   128   181    1
   162   128   182    1
   163   129   130    1
   164   129   183    1
   165   129   184    1
   166   130   131    1
   167   130   185    1
   168   130   186    1
   169   131   132    1
   170   131   187    1
   171   131   188    1
   172   132   133    1
   173   132   189    1
   174   132   190    1
   175   133   134    1
   176   133   191    1
   177   133   192    1
   178   134   135    1
   179   134   193    1
   180   134   194    1
   181   135   195    1
   182   135   196    1
   183   135   197    1
   184   136   137    2
   185   136   138    1
   186   138   139    1
   187   138   198    1
   188   138   199    1
   189   139   140    1
   190   140   141    1
   191   140   200    1
   192   140   201    1
   193   141   142    2
   194   141   143    1
   195   143   144    1
   196   143   150    1
   197   144   145    1
   198   144   202    1
   199   144   203    1
   200   145   146    1
   201   145   204    1
   202   145   205    1
   203   146   147    1
   204   146   206    1
   205   146   207    1
   206   147   148    1
   207   147   208    1
   208   147   209    1
   209   148   149    1
   210   148   210    1
   211   148   211    1
   212   149   212    1
   213   149   213    1
   214   149   214    1
   215   150   151    1
   216   150   215    1
   217   150   216    1
   218   151   152    1
   219   151   217    1
   220   151   218    1
   221   152   153    1
   222   152   219    1
   223   152   220    1
   224   153   154    1
   225   153   221    1
   226   153   222    1
   227   154   155    1
   228   154   223    1
   229   154   224    1
   230   155   225    1
   231   155   226    1
   232   155   227    1
   233   228   229    2
   234   228   230    1
   235   228   231    1
@<TRIPOS>SUBSTRUCTURE
     1 RES1      231 GROUP             0 ****  ****    0  
