@<TRIPOS>MOLECULE
ICIGOT_geomtry_0_nunpairedes_0_charge_3 Charge: 3 Unpaired_Electrons: 4 XTB_Unpaired_Electrons: 0 XTB_Charge: 3
   241   248     1     0     0
SMALL
NoCharges
****
Generated from Architector

@<TRIPOS>ATOM
     1 Ho1       0.0761   -0.0707   -0.0015   Ho        1 RES1   0.0000
     2 C1       -8.0448   -4.6408    0.3814   C.3       1 RES1   0.0000
     3 C2       -7.2472   -3.4378    0.8729   C.3       1 RES1   0.0000
     4 C3       -6.6096   -2.6364   -0.2700   C.3       1 RES1   0.0000
     5 C4       -5.1206   -2.8904   -0.5359   C.3       1 RES1   0.0000
     6 C5       -4.7560   -4.2979   -1.0269   C.3       1 RES1   0.0000
     7 C6       -4.5417   -5.3197    0.0913   C.3       1 RES1   0.0000
     8 C7       -3.9747   -6.6266   -0.4629   C.3       1 RES1   0.0000
     9 C8       -4.0559   -7.8623    0.4485   C.3       1 RES1   0.0000
    10 C9       -3.2724   -7.9815    1.7621   C.3       1 RES1   0.0000
    11 C10      -3.8055   -9.2090    2.5076   C.3       1 RES1   0.0000
    12 C11      -3.3534   -6.7777    2.6904   C.3       1 RES1   0.0000
    13 S1       -1.4580   -8.4618    1.5878   S.3       1 RES1   0.0000
    14 C12      -0.6803   -7.8024    0.0571   C.3       1 RES1   0.0000
    15 C13       0.1852   -6.5991    0.3921   C.3       1 RES1   0.0000
    16 C14      -0.6096   -5.3393    0.7509   C.3       1 RES1   0.0000
    17 N1        0.3223   -4.2480    0.5198   N.am      1 RES1   0.0000
    18 C15       0.0999   -2.9923    0.8272   C.2       1 RES1   0.0000
    19 O1        0.9083   -2.0535    0.6297   O.2       1 RES1   0.0000
    20 C16      -1.2875   -2.6396    1.3911   C.3       1 RES1   0.0000
    21 O2       -1.3772   -1.2505    1.7022   O.3       1 RES1   0.0000
    22 C17      -1.0479   -0.9147    3.0540   C.3       1 RES1   0.0000
    23 C18       0.0888    0.1010    3.1044   C.2       1 RES1   0.0000
    24 O3        0.6093    0.5120    2.0383   O.2       1 RES1   0.0000
    25 N2        0.4650    0.5249    4.2844   N.am      1 RES1   0.0000
    26 C19      -0.0597    0.0932    5.5684   C.3       1 RES1   0.0000
    27 C20       0.9388    0.6700    6.5806   C.3       1 RES1   0.0000
    28 C21       0.3702    0.8092    7.9821   C.3       1 RES1   0.0000
    29 C22       1.3993    1.9762    5.9005   C.3       1 RES1   0.0000
    30 C23       0.4160    3.1384    6.1108   C.3       1 RES1   0.0000
    31 S2        0.4655    4.3564    4.7456   S.3       1 RES1   0.0000
    32 C24      -1.3252    4.7126    4.3464   C.3       1 RES1   0.0000
    33 C25      -1.9937    5.4044    5.5247   C.3       1 RES1   0.0000
    34 C26      -1.1894    5.6841    3.1743   C.3       1 RES1   0.0000
    35 C27      -2.0119    3.3959    3.9626   C.3       1 RES1   0.0000
    36 C28      -3.5069    3.5103    3.6660   C.3       1 RES1   0.0000
    37 C29      -4.0747    2.2192    3.0656   C.3       1 RES1   0.0000
    38 C30      -4.4934    1.1805    4.1121   C.3       1 RES1   0.0000
    39 C31      -5.6240    1.6411    5.0364   C.3       1 RES1   0.0000
    40 C32      -6.9245    1.9675    4.3073   C.3       1 RES1   0.0000
    41 C33      -8.0137    2.4712    5.2532   C.3       1 RES1   0.0000
    42 C34      -7.7142    3.8475    5.8334   C.3       1 RES1   0.0000
    43 C35       1.5039    1.5355    4.4386   C.3       1 RES1   0.0000
    44 C36       1.5453   -4.7389   -0.1117   C.3       1 RES1   0.0000
    45 C37       1.1495   -6.0969   -0.6938   C.3       1 RES1   0.0000
    46 C38       0.5077   -5.9695   -2.0698   C.3       1 RES1   0.0000
    47 H1       -8.4677   -5.1890    1.2189   H         1 RES1   0.0000
    48 H2       -7.4366   -5.3319   -0.1948   H         1 RES1   0.0000
    49 H3       -8.8667   -4.3110   -0.2485   H         1 RES1   0.0000
    50 H4       -6.4815   -3.7527    1.5836   H         1 RES1   0.0000
    51 H5       -7.9352   -2.7871    1.4136   H         1 RES1   0.0000
    52 H6       -6.7164   -1.5688   -0.0548   H         1 RES1   0.0000
    53 H7       -7.1627   -2.8415   -1.1866   H         1 RES1   0.0000
    54 H8       -4.5475   -2.6635    0.3716   H         1 RES1   0.0000
    55 H9       -4.8218   -2.1791   -1.3177   H         1 RES1   0.0000
    56 H10      -3.8269   -4.2432   -1.6094   H         1 RES1   0.0000
    57 H11      -5.5304   -4.6508   -1.7076   H         1 RES1   0.0000
    58 H12      -5.4796   -5.5320    0.5928   H         1 RES1   0.0000
    59 H13      -3.8647   -4.8869    0.8297   H         1 RES1   0.0000
    60 H14      -2.9561   -6.4495   -0.8102   H         1 RES1   0.0000
    61 H15      -4.5583   -6.8812   -1.3519   H         1 RES1   0.0000
    62 H16      -3.7838   -8.7288   -0.1600   H         1 RES1   0.0000
    63 H17      -5.1104   -7.9941    0.7121   H         1 RES1   0.0000
    64 H18      -4.8434   -9.0626    2.7954   H         1 RES1   0.0000
    65 H19      -3.2226   -9.3925    3.4074   H         1 RES1   0.0000
    66 H20      -3.7365  -10.0976    1.8861   H         1 RES1   0.0000
    67 H21      -4.3929   -6.5425    2.9062   H         1 RES1   0.0000
    68 H22      -2.8736   -5.8985    2.2712   H         1 RES1   0.0000
    69 H23      -2.8616   -7.0182    3.6302   H         1 RES1   0.0000
    70 H24      -1.4451   -7.6059   -0.6847   H         1 RES1   0.0000
    71 H25      -0.0475   -8.6209   -0.2871   H         1 RES1   0.0000
    72 H26       0.7852   -6.8835    1.2599   H         1 RES1   0.0000
    73 H27      -0.9355   -5.3568    1.7917   H         1 RES1   0.0000
    74 H28      -1.4883   -5.2224    0.1075   H         1 RES1   0.0000
    75 H29      -1.5624   -3.2510    2.2575   H         1 RES1   0.0000
    76 H30      -2.0175   -2.8316    0.5939   H         1 RES1   0.0000
    77 H31      -0.7647   -1.8000    3.6312   H         1 RES1   0.0000
    78 H32      -1.9423   -0.4771    3.5159   H         1 RES1   0.0000
    79 H33      -0.1172   -0.9954    5.6252   H         1 RES1   0.0000
    80 H34      -1.0650    0.5030    5.7161   H         1 RES1   0.0000
    81 H35       1.7999   -0.0037    6.6131   H         1 RES1   0.0000
    82 H36      -0.5164    1.4368    7.9924   H         1 RES1   0.0000
    83 H37       1.1141    1.2498    8.6377   H         1 RES1   0.0000
    84 H38       0.1085   -0.1654    8.3870   H         1 RES1   0.0000
    85 H39       2.3745    2.2862    6.2763   H         1 RES1   0.0000
    86 H40       0.6577    3.6829    7.0223   H         1 RES1   0.0000
    87 H41      -0.6095    2.7860    6.1729   H         1 RES1   0.0000
    88 H42      -1.4217    6.2794    5.8262   H         1 RES1   0.0000
    89 H43      -2.0753    4.7450    6.3864   H         1 RES1   0.0000
    90 H44      -2.9914    5.7350    5.2397   H         1 RES1   0.0000
    91 H45      -0.6170    6.5536    3.4883   H         1 RES1   0.0000
    92 H46      -2.1604    6.0331    2.8367   H         1 RES1   0.0000
    93 H47      -0.6495    5.2280    2.3447   H         1 RES1   0.0000
    94 H48      -1.9069    2.6807    4.7795   H         1 RES1   0.0000
    95 H49      -1.4926    2.9673    3.0976   H         1 RES1   0.0000
    96 H50      -3.6796    4.3387    2.9860   H         1 RES1   0.0000
    97 H51      -4.0370    3.7352    4.5870   H         1 RES1   0.0000
    98 H52      -3.3173    1.7746    2.4061   H         1 RES1   0.0000
    99 H53      -4.9517    2.4601    2.4614   H         1 RES1   0.0000
   100 H54      -3.6246    0.9139    4.7241   H         1 RES1   0.0000
   101 H55      -4.8179    0.2729    3.5943   H         1 RES1   0.0000
   102 H56      -5.2989    2.5109    5.6047   H         1 RES1   0.0000
   103 H57      -5.8227    0.8447    5.7554   H         1 RES1   0.0000
   104 H58      -7.2782    1.0682    3.7982   H         1 RES1   0.0000
   105 H59      -6.7496    2.7330    3.5500   H         1 RES1   0.0000
   106 H60      -8.1512    1.7568    6.0651   H         1 RES1   0.0000
   107 H61      -8.9531    2.5247    4.7020   H         1 RES1   0.0000
   108 H62      -6.8526    3.8270    6.4956   H         1 RES1   0.0000
   109 H63      -8.5640    4.1998    6.4097   H         1 RES1   0.0000
   110 H64      -7.5247    4.5693    5.0417   H         1 RES1   0.0000
   111 H65       2.4766    1.0902    4.2158   H         1 RES1   0.0000
   112 H66       1.3297    2.3711    3.7528   H         1 RES1   0.0000
   113 H67       2.3057   -4.8655    0.6615   H         1 RES1   0.0000
   114 H68       1.9036   -4.0295   -0.8576   H         1 RES1   0.0000
   115 H69       2.0144   -6.7563   -0.7706   H         1 RES1   0.0000
   116 H70       1.2596   -5.6584   -2.7881   H         1 RES1   0.0000
   117 H71      -0.3079   -5.2477   -2.0726   H         1 RES1   0.0000
   118 H72       0.1170   -6.9275   -2.3986   H         1 RES1   0.0000
   119 C39       1.5114   -5.8280    3.7338   C.3       1 RES1   0.0000
   120 C40       1.5232   -4.3658    4.1586   C.3       1 RES1   0.0000
   121 C41       2.9171   -3.8828    4.5664   C.3       1 RES1   0.0000
   122 C42       3.9195   -3.7316    3.4172   C.3       1 RES1   0.0000
   123 C43       3.5474   -2.6038    2.4561   C.3       1 RES1   0.0000
   124 C44       4.6362   -2.2109    1.4540   C.3       1 RES1   0.0000
   125 C45       4.9396   -3.2856    0.4089   C.3       1 RES1   0.0000
   126 C46       5.8775   -2.8254   -0.7130   C.3       1 RES1   0.0000
   127 C47       5.2554   -2.1252   -1.9367   C.3       1 RES1   0.0000
   128 C48       6.3986   -1.7322   -2.8658   C.3       1 RES1   0.0000
   129 C49       4.4007   -0.9066   -1.5939   C.3       1 RES1   0.0000
   130 S3        4.1758   -3.3875   -2.7793   S.3       1 RES1   0.0000
   131 C50       3.6514   -2.5691   -4.3477   C.3       1 RES1   0.0000
   132 C51       2.3340   -3.1945   -4.8040   C.3       1 RES1   0.0000
   133 C52       1.2733   -2.9989   -3.7256   C.3       1 RES1   0.0000
   134 N3        0.7660   -1.6593   -3.9759   N.am      1 RES1   0.0000
   135 C53       0.2256   -0.9587   -3.0149   C.2       1 RES1   0.0000
   136 O4        0.1274   -1.3799   -1.8311   O.2       1 RES1   0.0000
   137 C54      -0.3400    0.4205   -3.3102   C.3       1 RES1   0.0000
   138 O5       -0.0660    1.2189   -2.1606   O.3       1 RES1   0.0000
   139 C55      -0.6549    2.5209   -2.2041   C.3       1 RES1   0.0000
   140 C56      -1.3999    2.7416   -0.8810   C.2       1 RES1   0.0000
   141 O6       -1.1710    1.9397    0.0619   O.2       1 RES1   0.0000
   142 N4       -2.2349    3.7491   -0.7962   N.am      1 RES1   0.0000
   143 C57      -2.9029    4.1364    0.4443   C.3       1 RES1   0.0000
   144 C58      -3.3760    5.5696    0.1752   C.3       1 RES1   0.0000
   145 C59      -4.5020    6.0703    1.0683   C.3       1 RES1   0.0000
   146 C60      -3.7354    5.4895   -1.3212   C.3       1 RES1   0.0000
   147 C61      -5.0844    4.7947   -1.5296   C.3       1 RES1   0.0000
   148 S4       -5.8158    4.8936   -3.2030   S.3       1 RES1   0.0000
   149 C62      -5.2636    3.3935   -4.1830   C.3       1 RES1   0.0000
   150 C63      -4.7923    2.2515   -3.2903   C.3       1 RES1   0.0000
   151 C64      -6.5166    2.9421   -4.9301   C.3       1 RES1   0.0000
   152 C65      -4.1992    3.9302   -5.1484   C.3       1 RES1   0.0000
   153 C66      -3.3620    2.9057   -5.9072   C.3       1 RES1   0.0000
   154 C67      -2.4696    3.6287   -6.9157   C.3       1 RES1   0.0000
   155 C68      -1.5060    2.7134   -7.6684   C.3       1 RES1   0.0000
   156 C69      -0.3799    2.1259   -6.8132   C.3       1 RES1   0.0000
   157 C70       0.5464    3.1843   -6.2148   C.3       1 RES1   0.0000
   158 C71       1.8239    2.5972   -5.6215   C.3       1 RES1   0.0000
   159 C72       2.7345    3.6715   -5.0446   C.3       1 RES1   0.0000
   160 C73      -2.5365    4.7044   -1.8577   C.3       1 RES1   0.0000
   161 C74       0.9882   -1.2705   -5.3629   C.3       1 RES1   0.0000
   162 C75       1.6394   -2.5086   -5.9996   C.3       1 RES1   0.0000
   163 C76       2.4809   -2.1703   -7.2162   C.3       1 RES1   0.0000
   164 H73       0.5020   -6.1675    3.5113   H         1 RES1   0.0000
   165 H74       1.8980   -6.4537    4.5321   H         1 RES1   0.0000
   166 H75       2.1358   -5.9874    2.8601   H         1 RES1   0.0000
   167 H76       0.8544   -4.2589    5.0158   H         1 RES1   0.0000
   168 H77       1.1339   -3.7364    3.3505   H         1 RES1   0.0000
   169 H78       3.3189   -4.5944    5.2879   H         1 RES1   0.0000
   170 H79       2.8255   -2.9198    5.0771   H         1 RES1   0.0000
   171 H80       4.0108   -4.6724    2.8754   H         1 RES1   0.0000
   172 H81       4.8973   -3.5159    3.8507   H         1 RES1   0.0000
   173 H82       3.2992   -1.7161    3.0473   H         1 RES1   0.0000
   174 H83       2.6571   -2.8740    1.8892   H         1 RES1   0.0000
   175 H84       5.5555   -1.9677    1.9885   H         1 RES1   0.0000
   176 H85       4.2925   -1.3052    0.9524   H         1 RES1   0.0000
   177 H86       4.0188   -3.6510   -0.0420   H         1 RES1   0.0000
   178 H87       5.4170   -4.1240    0.9165   H         1 RES1   0.0000
   179 H88       6.4044   -3.7018   -1.0970   H         1 RES1   0.0000
   180 H89       6.6356   -2.1599   -0.2944   H         1 RES1   0.0000
   181 H90       7.0517   -1.0291   -2.3513   H         1 RES1   0.0000
   182 H91       6.0493   -1.2617   -3.7827   H         1 RES1   0.0000
   183 H92       6.9897   -2.6043   -3.1354   H         1 RES1   0.0000
   184 H93       4.9703   -0.2565   -0.9344   H         1 RES1   0.0000
   185 H94       3.4605   -1.1916   -1.1115   H         1 RES1   0.0000
   186 H95       4.1636   -0.3314   -2.4889   H         1 RES1   0.0000
   187 H96       4.4391   -2.7184   -5.0821   H         1 RES1   0.0000
   188 H97       3.5351   -1.5066   -4.1439   H         1 RES1   0.0000
   189 H98       2.5038   -4.2530   -5.0031   H         1 RES1   0.0000
   190 H99       1.6841   -3.0648   -2.7168   H         1 RES1   0.0000
   191 H100      0.4481   -3.7040   -3.8387   H         1 RES1   0.0000
   192 H101     -1.4255    0.3367   -3.4743   H         1 RES1   0.0000
   193 H102      0.1209    0.8528   -4.2007   H         1 RES1   0.0000
   194 H103     -1.3225    2.6206   -3.0647   H         1 RES1   0.0000
   195 H104      0.1479    3.2659   -2.3058   H         1 RES1   0.0000
   196 H105     -2.2114    4.0499    1.2793   H         1 RES1   0.0000
   197 H106     -3.7559    3.4764    0.6164   H         1 RES1   0.0000
   198 H107     -2.5212    6.2466    0.2770   H         1 RES1   0.0000
   199 H108     -5.3155    5.3536    1.1409   H         1 RES1   0.0000
   200 H109     -4.9017    6.9989    0.6682   H         1 RES1   0.0000
   201 H110     -4.1446    6.2874    2.0711   H         1 RES1   0.0000
   202 H111     -3.7773    6.4762   -1.7800   H         1 RES1   0.0000
   203 H112     -5.8353    5.3348   -0.9554   H         1 RES1   0.0000
   204 H113     -5.0633    3.7555   -1.2119   H         1 RES1   0.0000
   205 H114     -5.5778    1.9835   -2.5861   H         1 RES1   0.0000
   206 H115     -3.8941    2.4909   -2.7232   H         1 RES1   0.0000
   207 H116     -4.5946    1.3782   -3.9112   H         1 RES1   0.0000
   208 H117     -7.2964    2.6474   -4.2307   H         1 RES1   0.0000
   209 H118     -6.2934    2.0976   -5.5797   H         1 RES1   0.0000
   210 H119     -6.9141    3.7496   -5.5387   H         1 RES1   0.0000
   211 H120     -3.5204    4.5974   -4.6112   H         1 RES1   0.0000
   212 H121     -4.7164    4.5563   -5.8750   H         1 RES1   0.0000
   213 H122     -4.0077    2.2060   -6.4365   H         1 RES1   0.0000
   214 H123     -2.7510    2.3334   -5.2027   H         1 RES1   0.0000
   215 H124     -1.9082    4.4148   -6.4092   H         1 RES1   0.0000
   216 H125     -3.1153    4.1197   -7.6439   H         1 RES1   0.0000
   217 H126     -1.0552    3.2827   -8.4824   H         1 RES1   0.0000
   218 H127     -2.0759    1.8955   -8.1152   H         1 RES1   0.0000
   219 H128      0.2119    1.4645   -7.4488   H         1 RES1   0.0000
   220 H129     -0.8105    1.5115   -6.0163   H         1 RES1   0.0000
   221 H130      0.0227    3.7542   -5.4446   H         1 RES1   0.0000
   222 H131      0.8276    3.8832   -7.0007   H         1 RES1   0.0000
   223 H132      2.3580    2.0467   -6.3959   H         1 RES1   0.0000
   224 H133      1.5839    1.8875   -4.8238   H         1 RES1   0.0000
   225 H134      3.0357    4.3686   -5.8192   H         1 RES1   0.0000
   226 H135      3.6331    3.2277   -4.6216   H         1 RES1   0.0000
   227 H136      2.2219    4.2348   -4.2666   H         1 RES1   0.0000
   228 H137     -1.6638    5.3507   -1.9849   H         1 RES1   0.0000
   229 H138     -2.7450    4.2222   -2.8128   H         1 RES1   0.0000
   230 H139      1.6608   -0.4077   -5.4146   H         1 RES1   0.0000
   231 H140      0.0418   -1.0113   -5.8412   H         1 RES1   0.0000
   232 H141      0.8416   -3.1851   -6.3183   H         1 RES1   0.0000
   233 H142      3.2860   -1.4818   -6.9785   H         1 RES1   0.0000
   234 H143      1.8513   -1.7180   -7.9792   H         1 RES1   0.0000
   235 H144      2.9066   -3.0754   -7.6356   H         1 RES1   0.0000
   236 O7       -2.3158   -0.6065   -0.8225   O.3       1 RES1   0.0000
   237 H145     -2.6198   -1.3377   -1.3829   H         1 RES1   0.0000
   238 H146     -3.1141   -0.2444   -0.4079   H         1 RES1   0.0000
   239 O8        2.1827    1.2413   -0.0676   O.3       1 RES1   0.0000
   240 H147      2.9834    0.9465    0.3984   H         1 RES1   0.0000
   241 H148      2.1039    2.1790    0.1713   H         1 RES1   0.0000
@<TRIPOS>BOND
     1     1    19    1
     2     1    21    1
     3     1    24    1
     4     1   136    1
     5     1   138    1
     6     1   141    1
     7     1   236    1
     8     1   239    1
     9     2     3    1
    10     2    47    1
    11     2    48    1
    12     2    49    1
    13     3     4    1
    14     3    50    1
    15     3    51    1
    16     4     5    1
    17     4    52    1
    18     4    53    1
    19     5     6    1
    20     5    54    1
    21     5    55    1
    22     6     7    1
    23     6    56    1
    24     6    57    1
    25     7     8    1
    26     7    58    1
    27     7    59    1
    28     8     9    1
    29     8    60    1
    30     8    61    1
    31     9    10    1
    32     9    62    1
    33     9    63    1
    34    10    11    1
    35    10    12    1
    36    10    13    1
    37    11    64    1
    38    11    65    1
    39    11    66    1
    40    12    67    1
    41    12    68    1
    42    12    69    1
    43    13    14    1
    44    14    15    1
    45    14    70    1
    46    14    71    1
    47    15    16    1
    48    15    45    1
    49    15    72    1
    50    16    17    1
    51    16    73    1
    52    16    74    1
    53    17    18    1
    54    17    44    1
    55    18    19    2
    56    18    20    1
    57    20    21    1
    58    20    75    1
    59    20    76    1
    60    21    22    1
    61    22    23    1
    62    22    77    1
    63    22    78    1
    64    23    24    2
    65    23    25    1
    66    25    26    1
    67    25    43    1
    68    26    27    1
    69    26    79    1
    70    26    80    1
    71    27    28    1
    72    27    29    1
    73    27    81    1
    74    28    82    1
    75    28    83    1
    76    28    84    1
    77    29    30    1
    78    29    43    1
    79    29    85    1
    80    30    31    1
    81    30    86    1
    82    30    87    1
    83    31    32    1
    84    32    33    1
    85    32    34    1
    86    32    35    1
    87    33    88    1
    88    33    89    1
    89    33    90    1
    90    34    91    1
    91    34    92    1
    92    34    93    1
    93    35    36    1
    94    35    94    1
    95    35    95    1
    96    36    37    1
    97    36    96    1
    98    36    97    1
    99    37    38    1
   100    37    98    1
   101    37    99    1
   102    38    39    1
   103    38   100    1
   104    38   101    1
   105    39    40    1
   106    39   102    1
   107    39   103    1
   108    40    41    1
   109    40   104    1
   110    40   105    1
   111    41    42    1
   112    41   106    1
   113    41   107    1
   114    42   108    1
   115    42   109    1
   116    42   110    1
   117    43   111    1
   118    43   112    1
   119    44    45    1
   120    44   113    1
   121    44   114    1
   122    45    46    1
   123    45   115    1
   124    46   116    1
   125    46   117    1
   126    46   118    1
   127   119   120    1
   128   119   164    1
   129   119   165    1
   130   119   166    1
   131   120   121    1
   132   120   167    1
   133   120   168    1
   134   121   122    1
   135   121   169    1
   136   121   170    1
   137   122   123    1
   138   122   171    1
   139   122   172    1
   140   123   124    1
   141   123   173    1
   142   123   174    1
   143   124   125    1
   144   124   175    1
   145   124   176    1
   146   125   126    1
   147   125   177    1
   148   125   178    1
   149   126   127    1
   150   126   179    1
   151   126   180    1
   152   127   128    1
   153   127   129    1
   154   127   130    1
   155   128   181    1
   156   128   182    1
   157   128   183    1
   158   129   184    1
   159   129   185    1
   160   129   186    1
   161   130   131    1
   162   131   132    1
   163   131   187    1
   164   131   188    1
   165   132   133    1
   166   132   162    1
   167   132   189    1
   168   133   134    1
   169   133   190    1
   170   133   191    1
   171   134   135    1
   172   134   161    1
   173   135   136    2
   174   135   137    1
   175   137   138    1
   176   137   192    1
   177   137   193    1
   178   138   139    1
   179   139   140    1
   180   139   194    1
   181   139   195    1
   182   140   141    2
   183   140   142    1
   184   142   143    1
   185   142   160    1
   186   143   144    1
   187   143   196    1
   188   143   197    1
   189   144   145    1
   190   144   146    1
   191   144   198    1
   192   145   199    1
   193   145   200    1
   194   145   201    1
   195   146   147    1
   196   146   160    1
   197   146   202    1
   198   147   148    1
   199   147   203    1
   200   147   204    1
   201   148   149    1
   202   149   150    1
   203   149   151    1
   204   149   152    1
   205   150   205    1
   206   150   206    1
   207   150   207    1
   208   151   208    1
   209   151   209    1
   210   151   210    1
   211   152   153    1
   212   152   211    1
   213   152   212    1
   214   153   154    1
   215   153   213    1
   216   153   214    1
   217   154   155    1
   218   154   215    1
   219   154   216    1
   220   155   156    1
   221   155   217    1
   222   155   218    1
   223   156   157    1
   224   156   219    1
   225   156   220    1
   226   157   158    1
   227   157   221    1
   228   157   222    1
   229   158   159    1
   230   158   223    1
   231   158   224    1
   232   159   225    1
   233   159   226    1
   234   159   227    1
   235   160   228    1
   236   160   229    1
   237   161   162    1
   238   161   230    1
   239   161   231    1
   240   162   163    1
   241   162   232    1
   242   163   233    1
   243   163   234    1
   244   163   235    1
   245   236   237    1
   246   236   238    1
   247   239   240    1
   248   239   241    1
@<TRIPOS>SUBSTRUCTURE
     1 RES1      241 GROUP             0 ****  ****    0  
