@<TRIPOS>MOLECULE
hexagonal_bipyramidal_0_nunpairedes_0_charge_3 Charge: 3 Unpaired_Electrons: 4 XTB_Unpaired_Electrons: 0 XTB_Charge: 3
   281   284     1     0     0
SMALL
NoCharges
****
Generated from Architector

@<TRIPOS>ATOM
     1 Ho1      -0.0866   -0.2747    0.1647   Ho        1 RES1   0.0000
     2 C1       -5.6379   -7.7950   -7.0508   C.3       1 RES1   0.0000
     3 C2       -6.0495   -7.4257   -5.6330   C.3       1 RES1   0.0000
     4 C3       -5.3586   -8.3160   -4.6034   C.3       1 RES1   0.0000
     5 C4       -5.6525   -7.9226   -3.1562   C.3       1 RES1   0.0000
     6 C5       -5.0837   -6.5741   -2.7048   C.3       1 RES1   0.0000
     7 C6       -3.5520   -6.4886   -2.7675   C.3       1 RES1   0.0000
     8 C7       -2.9634   -5.9074   -4.0601   C.3       1 RES1   0.0000
     9 C8       -2.9405   -4.3758   -4.1244   C.3       1 RES1   0.0000
    10 C9       -4.1629   -3.7634   -4.8056   C.3       1 RES1   0.0000
    11 C10      -4.1738   -2.2447   -4.6321   C.3       1 RES1   0.0000
    12 C11      -4.8439   -1.8166   -3.3296   C.3       1 RES1   0.0000
    13 C12      -4.6650   -0.3264   -3.0230   C.3       1 RES1   0.0000
    14 N1       -3.2920    0.0933   -2.7486   N.am      1 RES1   0.0000
    15 C13      -2.7251    1.1451   -3.6045   C.3       1 RES1   0.0000
    16 C14      -2.5211    0.8313   -5.0902   C.3       1 RES1   0.0000
    17 C15      -1.0512    0.6739   -5.4919   C.3       1 RES1   0.0000
    18 C16      -0.4077   -0.6306   -5.0284   C.3       1 RES1   0.0000
    19 C17       1.0374   -0.7517   -5.5177   C.3       1 RES1   0.0000
    20 C18       1.5370   -2.1955   -5.5684   C.3       1 RES1   0.0000
    21 C19       1.4354   -2.9413   -4.2386   C.3       1 RES1   0.0000
    22 C20       2.2022   -4.2577   -4.2906   C.3       1 RES1   0.0000
    23 C21      -2.5994   -0.2318   -1.6685   C.2       1 RES1   0.0000
    24 O1       -1.4035    0.1343   -1.5241   O.2       1 RES1   0.0000
    25 C22      -3.2265   -1.0186   -0.5059   C.3       1 RES1   0.0000
    26 O2       -2.3539   -0.8896    0.6236   O.3       1 RES1   0.0000
    27 C23      -2.9430   -0.4261    1.8406   C.3       1 RES1   0.0000
    28 C24      -1.7799    0.0889    2.6978   C.2       1 RES1   0.0000
    29 O3       -0.6205   -0.1257    2.2658   O.2       1 RES1   0.0000
    30 N2       -2.0095    0.8032    3.7886   N.am      1 RES1   0.0000
    31 C25      -0.9182    1.5467    4.4243   C.3       1 RES1   0.0000
    32 C26      -1.1533    3.0604    4.4883   C.3       1 RES1   0.0000
    33 C27       0.1214    3.7952    4.9428   C.3       1 RES1   0.0000
    34 C28       1.0032    4.3167    3.7891   C.3       1 RES1   0.0000
    35 C29       2.4823    3.9471    3.9428   C.3       1 RES1   0.0000
    36 C30       3.2853    4.1803    2.6569   C.3       1 RES1   0.0000
    37 C31       4.4989    3.2553    2.5617   C.3       1 RES1   0.0000
    38 C32       5.2652    3.4090    1.2495   C.3       1 RES1   0.0000
    39 C33      -3.2626    0.7285    4.5247   C.3       1 RES1   0.0000
    40 C34      -3.3283   -0.5018    5.4451   C.3       1 RES1   0.0000
    41 C35      -2.5217   -0.3832    6.7428   C.3       1 RES1   0.0000
    42 C36      -1.0465   -0.8143    6.6368   C.3       1 RES1   0.0000
    43 C37      -0.7660   -2.1901    7.2454   C.3       1 RES1   0.0000
    44 C38       0.5984   -2.7585    6.8369   C.3       1 RES1   0.0000
    45 C39       1.8428   -2.1410    7.4905   C.3       1 RES1   0.0000
    46 C40       2.2873   -0.7880    6.9273   C.3       1 RES1   0.0000
    47 C41       3.7695   -0.5184    7.1884   C.3       1 RES1   0.0000
    48 C42       4.2824    0.7658    6.5311   C.3       1 RES1   0.0000
    49 C43       3.5387    2.0402    6.9407   C.3       1 RES1   0.0000
    50 C44       3.5506    2.2943    8.4411   C.3       1 RES1   0.0000
    51 H1       -6.1297   -7.1518   -7.7747   H         1 RES1   0.0000
    52 H2       -5.9061   -8.8238   -7.2699   H         1 RES1   0.0000
    53 H3       -4.5619   -7.6958   -7.1768   H         1 RES1   0.0000
    54 H4       -7.1300   -7.5285   -5.5274   H         1 RES1   0.0000
    55 H5       -5.8034   -6.3781   -5.4516   H         1 RES1   0.0000
    56 H6       -4.2821   -8.3148   -4.7805   H         1 RES1   0.0000
    57 H7       -5.7028   -9.3411   -4.7509   H         1 RES1   0.0000
    58 H8       -5.2585   -8.7005   -2.4987   H         1 RES1   0.0000
    59 H9       -6.7360   -7.8957   -3.0214   H         1 RES1   0.0000
    60 H10      -5.4014   -6.4249   -1.6692   H         1 RES1   0.0000
    61 H11      -5.5326   -5.7803   -3.2984   H         1 RES1   0.0000
    62 H12      -3.1566   -7.4978   -2.6337   H         1 RES1   0.0000
    63 H13      -3.1863   -5.8926   -1.9240   H         1 RES1   0.0000
    64 H14      -3.5117   -6.2864   -4.9179   H         1 RES1   0.0000
    65 H15      -1.9380   -6.2692   -4.1515   H         1 RES1   0.0000
    66 H16      -2.0608   -4.0551   -4.6894   H         1 RES1   0.0000
    67 H17      -2.8449   -3.9620   -3.1148   H         1 RES1   0.0000
    68 H18      -5.0789   -4.1742   -4.3892   H         1 RES1   0.0000
    69 H19      -4.1367   -4.0203   -5.8651   H         1 RES1   0.0000
    70 H20      -4.6999   -1.7794   -5.4645   H         1 RES1   0.0000
    71 H21      -3.1373   -1.9088   -4.6375   H         1 RES1   0.0000
    72 H22      -4.4807   -2.4381   -2.5125   H         1 RES1   0.0000
    73 H23      -5.9142   -2.0009   -3.4219   H         1 RES1   0.0000
    74 H24      -5.3215   -0.0441   -2.1926   H         1 RES1   0.0000
    75 H25      -4.9865    0.2431   -3.8958   H         1 RES1   0.0000
    76 H26      -1.7626    1.4235   -3.1716   H         1 RES1   0.0000
    77 H27      -3.4055    1.9968   -3.5151   H         1 RES1   0.0000
    78 H28      -2.9359    1.6577   -5.6656   H         1 RES1   0.0000
    79 H29      -3.0694   -0.0595   -5.3802   H         1 RES1   0.0000
    80 H30      -0.4747    1.5201   -5.1092   H         1 RES1   0.0000
    81 H31      -0.9997    0.7152   -6.5816   H         1 RES1   0.0000
    82 H32      -0.9789   -1.4613   -5.4431   H         1 RES1   0.0000
    83 H33      -0.4413   -0.6951   -3.9335   H         1 RES1   0.0000
    84 H34       1.6966   -0.1515   -4.8851   H         1 RES1   0.0000
    85 H35       1.1067   -0.3508   -6.5294   H         1 RES1   0.0000
    86 H36       2.5806   -2.1857   -5.8884   H         1 RES1   0.0000
    87 H37       0.9736   -2.7479   -6.3230   H         1 RES1   0.0000
    88 H38       0.3818   -3.1550   -4.0237   H         1 RES1   0.0000
    89 H39       1.8335   -2.3119   -3.4321   H         1 RES1   0.0000
    90 H40       1.7165   -4.9540   -4.9691   H         1 RES1   0.0000
    91 H41       2.2583   -4.7101   -3.3041   H         1 RES1   0.0000
    92 H42       3.2140   -4.0930   -4.6489   H         1 RES1   0.0000
    93 H43      -3.3003   -2.0856   -0.7520   H         1 RES1   0.0000
    94 H44      -4.2290   -0.6505   -0.2794   H         1 RES1   0.0000
    95 H45      -3.5036   -1.2430    2.3210   H         1 RES1   0.0000
    96 H46      -3.6026    0.4194    1.6389   H         1 RES1   0.0000
    97 H47      -0.0122    1.3163    3.8699   H         1 RES1   0.0000
    98 H48      -0.7930    1.1889    5.4416   H         1 RES1   0.0000
    99 H49      -1.9484    3.2630    5.2038   H         1 RES1   0.0000
   100 H50      -1.4771    3.4419    3.5244   H         1 RES1   0.0000
   101 H51       0.7060    3.1323    5.5844   H         1 RES1   0.0000
   102 H52      -0.1668    4.6354    5.5706   H         1 RES1   0.0000
   103 H53       0.9238    5.4027    3.7326   H         1 RES1   0.0000
   104 H54       0.6329    3.9315    2.8305   H         1 RES1   0.0000
   105 H55       2.5735    2.8976    4.2359   H         1 RES1   0.0000
   106 H56       2.9145    4.5343    4.7519   H         1 RES1   0.0000
   107 H57       3.6156    5.2174    2.6049   H         1 RES1   0.0000
   108 H58       2.6383    4.0022    1.7891   H         1 RES1   0.0000
   109 H59       4.1594    2.2175    2.6584   H         1 RES1   0.0000
   110 H60       5.1753    3.4496    3.3939   H         1 RES1   0.0000
   111 H61       4.6110    3.2705    0.3846   H         1 RES1   0.0000
   112 H62       6.0722    2.6790    1.1883   H         1 RES1   0.0000
   113 H63       5.7041    4.4009    1.1745   H         1 RES1   0.0000
   114 H64      -4.0929    0.6951    3.8190   H         1 RES1   0.0000
   115 H65      -3.3611    1.6375    5.1222   H         1 RES1   0.0000
   116 H66      -3.0167   -1.3928    4.8961   H         1 RES1   0.0000
   117 H67      -4.3794   -0.6201    5.7037   H         1 RES1   0.0000
   118 H68      -3.0065   -1.0045    7.4946   H         1 RES1   0.0000
   119 H69      -2.5930    0.6406    7.1113   H         1 RES1   0.0000
   120 H70      -0.4226   -0.0834    7.1522   H         1 RES1   0.0000
   121 H71      -0.7318   -0.8629    5.5905   H         1 RES1   0.0000
   122 H72      -1.5334   -2.8905    6.9041   H         1 RES1   0.0000
   123 H73      -0.8341   -2.1384    8.3313   H         1 RES1   0.0000
   124 H74       0.6917   -2.6800    5.7496   H         1 RES1   0.0000
   125 H75       0.5954   -3.8208    7.0893   H         1 RES1   0.0000
   126 H76       2.6662   -2.8454    7.3485   H         1 RES1   0.0000
   127 H77       1.6835   -2.0495    8.5646   H         1 RES1   0.0000
   128 H78       1.6974    0.0103    7.3742   H         1 RES1   0.0000
   129 H79       2.1057   -0.7628    5.8474   H         1 RES1   0.0000
   130 H80       4.3631   -1.3566    6.8129   H         1 RES1   0.0000
   131 H81       3.9386   -0.4651    8.2620   H         1 RES1   0.0000
   132 H82       4.2273    0.6605    5.4381   H         1 RES1   0.0000
   133 H83       5.3356    0.8839    6.7911   H         1 RES1   0.0000
   134 H84       2.5031    1.9889    6.5894   H         1 RES1   0.0000
   135 H85       4.0131    2.8857    6.4365   H         1 RES1   0.0000
   136 H86       2.9847    1.5356    8.9715   H         1 RES1   0.0000
   137 H87       3.1093    3.2629    8.6557   H         1 RES1   0.0000
   138 H88       4.5674    2.2910    8.8194   H         1 RES1   0.0000
   139 C45       9.3817   -6.3924   -1.9572   C.3       1 RES1   0.0000
   140 C46       9.1611   -4.8997   -2.1535   C.3       1 RES1   0.0000
   141 C47       8.6503   -4.6001   -3.5607   C.3       1 RES1   0.0000
   142 C48       8.2590   -3.1390   -3.7831   C.3       1 RES1   0.0000
   143 C49       7.0265   -2.6528   -3.0131   C.3       1 RES1   0.0000
   144 C50       5.7451   -3.4460   -3.3090   C.3       1 RES1   0.0000
   145 C51       5.4279   -4.5976   -2.3457   C.3       1 RES1   0.0000
   146 C52       4.8325   -4.1577   -1.0007   C.3       1 RES1   0.0000
   147 C53       5.8656   -4.0079    0.1199   C.3       1 RES1   0.0000
   148 C54       5.3104   -3.1833    1.2817   C.3       1 RES1   0.0000
   149 C55       5.5153   -1.6832    1.0842   C.3       1 RES1   0.0000
   150 C56       4.6962   -0.8543    2.0760   C.3       1 RES1   0.0000
   151 N3        3.2713   -1.0938    1.8846   N.am      1 RES1   0.0000
   152 C57       2.4851   -1.5929    3.0215   C.3       1 RES1   0.0000
   153 C58       2.7996   -2.9595    3.6466   C.3       1 RES1   0.0000
   154 C59       1.7165   -4.0175    3.4245   C.3       1 RES1   0.0000
   155 C60       1.5650   -4.5194    1.9906   C.3       1 RES1   0.0000
   156 C61       0.4100   -5.5215    1.9082   C.3       1 RES1   0.0000
   157 C62       0.3619   -6.3056    0.5972   C.3       1 RES1   0.0000
   158 C63       0.1055   -5.4160   -0.6160   C.3       1 RES1   0.0000
   159 C64       0.0051   -6.2151   -1.9086   C.3       1 RES1   0.0000
   160 C65       2.6414   -0.8359    0.7491   C.2       1 RES1   0.0000
   161 O4        1.5765   -1.4227    0.4473   O.2       1 RES1   0.0000
   162 C66       3.0697    0.3237   -0.1751   C.3       1 RES1   0.0000
   163 O5        1.8380    0.9040   -0.6582   O.3       1 RES1   0.0000
   164 C67       1.7372    2.3346   -0.6936   C.3       1 RES1   0.0000
   165 C68       0.2843    2.7094   -0.3082   C.2       1 RES1   0.0000
   166 O6       -0.4369    1.8125    0.1892   O.2       1 RES1   0.0000
   167 N4       -0.2107    3.9183   -0.5008   N.am      1 RES1   0.0000
   168 C69      -1.6589    4.0967   -0.3164   C.3       1 RES1   0.0000
   169 C70      -2.1376    4.0742    1.1372   C.3       1 RES1   0.0000
   170 C71      -3.6516    4.3726    1.2571   C.3       1 RES1   0.0000
   171 C72      -4.4998    3.2719    1.9193   C.3       1 RES1   0.0000
   172 C73      -5.1869    2.3400    0.9148   C.3       1 RES1   0.0000
   173 C74      -6.1192    1.3118    1.5737   C.3       1 RES1   0.0000
   174 C75      -6.7232    0.3075    0.5753   C.3       1 RES1   0.0000
   175 C76      -6.9527   -1.0676    1.1983   C.3       1 RES1   0.0000
   176 C77       0.5953    5.0906   -0.8109   C.3       1 RES1   0.0000
   177 C78       0.4375    5.6205   -2.2453   C.3       1 RES1   0.0000
   178 C79      -0.7731    6.5383   -2.4638   C.3       1 RES1   0.0000
   179 C80      -1.9661    5.8369   -3.1193   C.3       1 RES1   0.0000
   180 C81      -1.9073    5.9190   -4.6477   C.3       1 RES1   0.0000
   181 C82      -2.5945    4.7476   -5.3551   C.3       1 RES1   0.0000
   182 C83      -4.1280    4.7206   -5.3338   C.3       1 RES1   0.0000
   183 C84      -4.7653    4.4683   -3.9667   C.3       1 RES1   0.0000
   184 C85      -6.1640    3.8647   -4.0738   C.3       1 RES1   0.0000
   185 C86      -6.7284    3.4383   -2.7163   C.3       1 RES1   0.0000
   186 C87      -6.8747    4.5770   -1.7016   C.3       1 RES1   0.0000
   187 C88      -7.7542    5.7146   -2.1992   C.3       1 RES1   0.0000
   188 H89       9.7394   -6.6009   -0.9537   H         1 RES1   0.0000
   189 H90      10.1139   -6.7646   -2.6664   H         1 RES1   0.0000
   190 H91       8.4555   -6.9408   -2.1137   H         1 RES1   0.0000
   191 H92      10.0954   -4.3628   -1.9854   H         1 RES1   0.0000
   192 H93       8.4454   -4.5441   -1.4117   H         1 RES1   0.0000
   193 H94       7.8013   -5.2479   -3.7848   H         1 RES1   0.0000
   194 H95       9.4394   -4.8508   -4.2721   H         1 RES1   0.0000
   195 H96       8.0760   -2.9900   -4.8497   H         1 RES1   0.0000
   196 H97       9.1047   -2.5075   -3.5006   H         1 RES1   0.0000
   197 H98       6.8661   -1.6085   -3.2975   H         1 RES1   0.0000
   198 H99       7.2441   -2.6655   -1.9470   H         1 RES1   0.0000
   199 H100      5.8283   -3.8542   -4.3192   H         1 RES1   0.0000
   200 H101      4.8890   -2.7617   -3.3125   H         1 RES1   0.0000
   201 H102      6.3231   -5.1878   -2.1636   H         1 RES1   0.0000
   202 H103      4.7069   -5.2489   -2.8427   H         1 RES1   0.0000
   203 H104      4.0979   -4.8987   -0.6738   H         1 RES1   0.0000
   204 H105      4.2928   -3.2133   -1.1343   H         1 RES1   0.0000
   205 H106      6.7667   -3.5311   -0.2572   H         1 RES1   0.0000
   206 H107      6.1483   -4.9991    0.4762   H         1 RES1   0.0000
   207 H108      5.7770   -3.4842    2.2199   H         1 RES1   0.0000
   208 H109      4.2419   -3.3854    1.3395   H         1 RES1   0.0000
   209 H110      5.2354   -1.4113    0.0668   H         1 RES1   0.0000
   210 H111      6.5668   -1.4366    1.2206   H         1 RES1   0.0000
   211 H112      4.9332    0.2060    1.9525   H         1 RES1   0.0000
   212 H113      4.9492   -1.1502    3.0948   H         1 RES1   0.0000
   213 H114      1.4354   -1.5721    2.7092   H         1 RES1   0.0000
   214 H115      2.6339   -0.8402    3.8049   H         1 RES1   0.0000
   215 H116      2.8831   -2.8072    4.7234   H         1 RES1   0.0000
   216 H117      3.7566   -3.3385    3.3080   H         1 RES1   0.0000
   217 H118      0.7501   -3.6294    3.7595   H         1 RES1   0.0000
   218 H119      1.9573   -4.8690    4.0640   H         1 RES1   0.0000
   219 H120      2.4819   -5.0156    1.6708   H         1 RES1   0.0000
   220 H121      1.3781   -3.6790    1.3146   H         1 RES1   0.0000
   221 H122     -0.5379   -4.9966    2.0645   H         1 RES1   0.0000
   222 H123      0.5166   -6.2429    2.7181   H         1 RES1   0.0000
   223 H124     -0.4370   -7.0475    0.6571   H         1 RES1   0.0000
   224 H125      1.3020   -6.8419    0.4570   H         1 RES1   0.0000
   225 H126      0.9245   -4.6920   -0.6976   H         1 RES1   0.0000
   226 H127     -0.8518   -4.9034   -0.4441   H         1 RES1   0.0000
   227 H128      0.9494   -6.7021   -2.1352   H         1 RES1   0.0000
   228 H129     -0.2601   -5.5658   -2.7392   H         1 RES1   0.0000
   229 H130     -0.7575   -6.9829   -1.8169   H         1 RES1   0.0000
   230 H131      3.6538   -0.0226   -1.0351   H         1 RES1   0.0000
   231 H132      3.6554    1.0484    0.3932   H         1 RES1   0.0000
   232 H133      1.9661    2.6785   -1.7114   H         1 RES1   0.0000
   233 H134      2.4410    2.7932    0.0130   H         1 RES1   0.0000
   234 H135     -2.1691    3.2985   -0.8614   H         1 RES1   0.0000
   235 H136     -1.9143    5.0530   -0.7583   H         1 RES1   0.0000
   236 H137     -1.5801    4.8274    1.6971   H         1 RES1   0.0000
   237 H138     -1.9051    3.0898    1.5503   H         1 RES1   0.0000
   238 H139     -4.0701    4.5817    0.2711   H         1 RES1   0.0000
   239 H140     -3.7642    5.2838    1.8408   H         1 RES1   0.0000
   240 H141     -5.2801    3.7447    2.5154   H         1 RES1   0.0000
   241 H142     -3.8864    2.6942    2.6144   H         1 RES1   0.0000
   242 H143     -4.4313    1.8314    0.2979   H         1 RES1   0.0000
   243 H144     -5.7936    2.9434    0.2414   H         1 RES1   0.0000
   244 H145     -6.9315    1.8385    2.0732   H         1 RES1   0.0000
   245 H146     -5.5828    0.7547    2.3491   H         1 RES1   0.0000
   246 H147     -6.0560    0.1986   -0.2858   H         1 RES1   0.0000
   247 H148     -7.6665    0.6877    0.1809   H         1 RES1   0.0000
   248 H149     -6.0148   -1.5094    1.5398   H         1 RES1   0.0000
   249 H150     -7.4040   -1.7434    0.4766   H         1 RES1   0.0000
   250 H151     -7.6190   -0.9961    2.0527   H         1 RES1   0.0000
   251 H152      1.6415    4.8316   -0.6437   H         1 RES1   0.0000
   252 H153      0.3245    5.8734   -0.0927   H         1 RES1   0.0000
   253 H154      0.3974    4.7748   -2.9348   H         1 RES1   0.0000
   254 H155      1.3468    6.1786   -2.4635   H         1 RES1   0.0000
   255 H156     -0.4766    7.3615   -3.1107   H         1 RES1   0.0000
   256 H157     -1.0599    6.9908   -1.5138   H         1 RES1   0.0000
   257 H158     -2.8898    6.2915   -2.7657   H         1 RES1   0.0000
   258 H159     -1.9839    4.7813   -2.8435   H         1 RES1   0.0000
   259 H160     -0.8595    5.9187   -4.9623   H         1 RES1   0.0000
   260 H161     -2.3412    6.8587   -4.9848   H         1 RES1   0.0000
   261 H162     -2.2065    3.8157   -4.9275   H         1 RES1   0.0000
   262 H163     -2.2901    4.7794   -6.4036   H         1 RES1   0.0000
   263 H164     -4.4483    3.9269   -6.0138   H         1 RES1   0.0000
   264 H165     -4.5103    5.6578   -5.7363   H         1 RES1   0.0000
   265 H166     -4.8208    5.4033   -3.4138   H         1 RES1   0.0000
   266 H167     -4.1381    3.7839   -3.3864   H         1 RES1   0.0000
   267 H168     -6.1333    2.9868   -4.7257   H         1 RES1   0.0000
   268 H169     -6.8365    4.5834   -4.5374   H         1 RES1   0.0000
   269 H170     -6.0813    2.6602   -2.2869   H         1 RES1   0.0000
   270 H171     -7.7125    2.9934   -2.8755   H         1 RES1   0.0000
   271 H172     -5.8867    4.9659   -1.4376   H         1 RES1   0.0000
   272 H173     -7.3201    4.1671   -0.7903   H         1 RES1   0.0000
   273 H174     -7.2770    6.2540   -3.0104   H         1 RES1   0.0000
   274 H175     -7.9448    6.4123   -1.3906   H         1 RES1   0.0000
   275 H176     -8.7067    5.3334   -2.5530   H         1 RES1   0.0000
   276 O7        1.5664    1.3456    2.0446   O.3       1 RES1   0.0000
   277 H177      1.0799    2.1185    2.3612   H         1 RES1   0.0000
   278 H178      2.0891    1.0583    2.8041   H         1 RES1   0.0000
   279 O8       -0.4503   -2.3559   -1.2023   O.3       1 RES1   0.0000
   280 H179     -0.3035   -2.3414   -2.1597   H         1 RES1   0.0000
   281 H180     -0.3516   -3.2996   -0.9543   H         1 RES1   0.0000
@<TRIPOS>BOND
     1     1    24    1
     2     1    26    1
     3     1    29    1
     4     1   161    1
     5     1   163    1
     6     1   166    1
     7     1   276    1
     8     1   279    1
     9     2     3    1
    10     2    51    1
    11     2    52    1
    12     2    53    1
    13     3     4    1
    14     3    54    1
    15     3    55    1
    16     4     5    1
    17     4    56    1
    18     4    57    1
    19     5     6    1
    20     5    58    1
    21     5    59    1
    22     6     7    1
    23     6    60    1
    24     6    61    1
    25     7     8    1
    26     7    62    1
    27     7    63    1
    28     8     9    1
    29     8    64    1
    30     8    65    1
    31     9    10    1
    32     9    66    1
    33     9    67    1
    34    10    11    1
    35    10    68    1
    36    10    69    1
    37    11    12    1
    38    11    70    1
    39    11    71    1
    40    12    13    1
    41    12    72    1
    42    12    73    1
    43    13    14    1
    44    13    74    1
    45    13    75    1
    46    14    15    1
    47    14    23    1
    48    15    16    1
    49    15    76    1
    50    15    77    1
    51    16    17    1
    52    16    78    1
    53    16    79    1
    54    17    18    1
    55    17    80    1
    56    17    81    1
    57    18    19    1
    58    18    82    1
    59    18    83    1
    60    19    20    1
    61    19    84    1
    62    19    85    1
    63    20    21    1
    64    20    86    1
    65    20    87    1
    66    21    22    1
    67    21    88    1
    68    21    89    1
    69    22    90    1
    70    22    91    1
    71    22    92    1
    72    23    24    2
    73    23    25    1
    74    25    26    1
    75    25    93    1
    76    25    94    1
    77    26    27    1
    78    27    28    1
    79    27    95    1
    80    27    96    1
    81    28    29    2
    82    28    30    1
    83    30    31    1
    84    30    39    1
    85    31    32    1
    86    31    97    1
    87    31    98    1
    88    32    33    1
    89    32    99    1
    90    32   100    1
    91    33    34    1
    92    33   101    1
    93    33   102    1
    94    34    35    1
    95    34   103    1
    96    34   104    1
    97    35    36    1
    98    35   105    1
    99    35   106    1
   100    36    37    1
   101    36   107    1
   102    36   108    1
   103    37    38    1
   104    37   109    1
   105    37   110    1
   106    38   111    1
   107    38   112    1
   108    38   113    1
   109    39    40    1
   110    39   114    1
   111    39   115    1
   112    40    41    1
   113    40   116    1
   114    40   117    1
   115    41    42    1
   116    41   118    1
   117    41   119    1
   118    42    43    1
   119    42   120    1
   120    42   121    1
   121    43    44    1
   122    43   122    1
   123    43   123    1
   124    44    45    1
   125    44   124    1
   126    44   125    1
   127    45    46    1
   128    45   126    1
   129    45   127    1
   130    46    47    1
   131    46   128    1
   132    46   129    1
   133    47    48    1
   134    47   130    1
   135    47   131    1
   136    48    49    1
   137    48   132    1
   138    48   133    1
   139    49    50    1
   140    49   134    1
   141    49   135    1
   142    50   136    1
   143    50   137    1
   144    50   138    1
   145   139   140    1
   146   139   188    1
   147   139   189    1
   148   139   190    1
   149   140   141    1
   150   140   191    1
   151   140   192    1
   152   141   142    1
   153   141   193    1
   154   141   194    1
   155   142   143    1
   156   142   195    1
   157   142   196    1
   158   143   144    1
   159   143   197    1
   160   143   198    1
   161   144   145    1
   162   144   199    1
   163   144   200    1
   164   145   146    1
   165   145   201    1
   166   145   202    1
   167   146   147    1
   168   146   203    1
   169   146   204    1
   170   147   148    1
   171   147   205    1
   172   147   206    1
   173   148   149    1
   174   148   207    1
   175   148   208    1
   176   149   150    1
   177   149   209    1
   178   149   210    1
   179   150   151    1
   180   150   211    1
   181   150   212    1
   182   151   152    1
   183   151   160    1
   184   152   153    1
   185   152   213    1
   186   152   214    1
   187   153   154    1
   188   153   215    1
   189   153   216    1
   190   154   155    1
   191   154   217    1
   192   154   218    1
   193   155   156    1
   194   155   219    1
   195   155   220    1
   196   156   157    1
   197   156   221    1
   198   156   222    1
   199   157   158    1
   200   157   223    1
   201   157   224    1
   202   158   159    1
   203   158   225    1
   204   158   226    1
   205   159   227    1
   206   159   228    1
   207   159   229    1
   208   160   161    2
   209   160   162    1
   210   162   163    1
   211   162   230    1
   212   162   231    1
   213   163   164    1
   214   164   165    1
   215   164   232    1
   216   164   233    1
   217   165   166    2
   218   165   167    1
   219   167   168    1
   220   167   176    1
   221   168   169    1
   222   168   234    1
   223   168   235    1
   224   169   170    1
   225   169   236    1
   226   169   237    1
   227   170   171    1
   228   170   238    1
   229   170   239    1
   230   171   172    1
   231   171   240    1
   232   171   241    1
   233   172   173    1
   234   172   242    1
   235   172   243    1
   236   173   174    1
   237   173   244    1
   238   173   245    1
   239   174   175    1
   240   174   246    1
   241   174   247    1
   242   175   248    1
   243   175   249    1
   244   175   250    1
   245   176   177    1
   246   176   251    1
   247   176   252    1
   248   177   178    1
   249   177   253    1
   250   177   254    1
   251   178   179    1
   252   178   255    1
   253   178   256    1
   254   179   180    1
   255   179   257    1
   256   179   258    1
   257   180   181    1
   258   180   259    1
   259   180   260    1
   260   181   182    1
   261   181   261    1
   262   181   262    1
   263   182   183    1
   264   182   263    1
   265   182   264    1
   266   183   184    1
   267   183   265    1
   268   183   266    1
   269   184   185    1
   270   184   267    1
   271   184   268    1
   272   185   186    1
   273   185   269    1
   274   185   270    1
   275   186   187    1
   276   186   271    1
   277   186   272    1
   278   187   273    1
   279   187   274    1
   280   187   275    1
   281   276   277    1
   282   276   278    1
   283   279   280    1
   284   279   281    1
@<TRIPOS>SUBSTRUCTURE
     1 RES1      281 GROUP             0 ****  ****    0  
