@<TRIPOS>MOLECULE
bicapped_trigonal_prismatic_0_nunpairedes_0_charge_3 Charge: 3 Unpaired_Electrons: 4 XTB_Unpaired_Electrons: 0 XTB_Charge: 3
   339   344     1     0     0
SMALL
NoCharges
****
Generated from Architector

@<TRIPOS>ATOM
     1 Ho1       0.0865    0.1246    0.0476   Ho        1 RES1   0.0000
     2 C1        4.7616   -1.6473   -9.8952   C.3       1 RES1   0.0000
     3 C2        4.8060   -0.6437   -8.7486   C.3       1 RES1   0.0000
     4 C3        3.6727   -0.8594   -7.7384   C.3       1 RES1   0.0000
     5 C4        2.2453   -0.5555   -8.2247   C.3       1 RES1   0.0000
     6 C5        1.2989   -0.1016   -7.0914   C.3       1 RES1   0.0000
     7 C6        0.3523   -1.1657   -6.4924   C.3       1 RES1   0.0000
     8 C7        0.3106   -1.1105   -4.9525   C.3       1 RES1   0.0000
     9 C8       -0.6313   -2.1594   -4.3454   C.3       1 RES1   0.0000
    10 N1       -0.1307   -2.8780   -3.1545   N.am      1 RES1   0.0000
    11 C9       -0.1383   -4.3295   -3.3198   C.3       1 RES1   0.0000
    12 C10      -1.5273   -4.9128   -3.5985   C.3       1 RES1   0.0000
    13 C11      -1.4773   -6.4426   -3.5419   C.3       1 RES1   0.0000
    14 C12      -2.8836   -7.0439   -3.6754   C.3       1 RES1   0.0000
    15 C13      -3.4994   -7.6678   -2.4155   C.3       1 RES1   0.0000
    16 C14      -3.3352   -9.1961   -2.3473   C.3       1 RES1   0.0000
    17 C15      -2.1782   -9.7092   -1.4846   C.3       1 RES1   0.0000
    18 C16      -2.5874   -9.8324   -0.0171   C.3       1 RES1   0.0000
    19 C17       0.1683   -2.2277   -2.0296   C.2       1 RES1   0.0000
    20 O1        0.0898   -0.9842   -1.9517   O.2       1 RES1   0.0000
    21 C18       0.5887   -3.0262   -0.7813   C.3       1 RES1   0.0000
    22 N2        0.9097   -2.2552    0.4415   N.4       1 RES1   0.0000
    23 C19       0.2527   -2.7578    1.6864   C.3       1 RES1   0.0000
    24 C20      -0.8090   -1.7649    2.2032   C.2       1 RES1   0.0000
    25 O2       -0.6091   -0.5563    1.9689   O.2       1 RES1   0.0000
    26 N3       -1.9015   -2.1298    2.8707   N.am      1 RES1   0.0000
    27 C21      -2.9857   -1.1493    2.9386   C.3       1 RES1   0.0000
    28 C22      -3.0602   -0.3177    4.2194   C.3       1 RES1   0.0000
    29 C23      -4.4691    0.2945    4.3134   C.3       1 RES1   0.0000
    30 C24      -4.5849    1.6700    4.9680   C.3       1 RES1   0.0000
    31 C25      -4.3787    1.6979    6.4785   C.3       1 RES1   0.0000
    32 C26      -5.0191    2.9274    7.1290   C.3       1 RES1   0.0000
    33 C27      -4.6431    4.2770    6.5122   C.3       1 RES1   0.0000
    34 C28      -3.1557    4.6025    6.6061   C.3       1 RES1   0.0000
    35 C29      -2.1900   -3.3841    3.5613   C.3       1 RES1   0.0000
    36 C30      -1.0009   -3.9889    4.3024   C.3       1 RES1   0.0000
    37 C31      -0.4773   -3.0969    5.4273   C.3       1 RES1   0.0000
    38 C32       0.9295   -3.4937    5.8773   C.3       1 RES1   0.0000
    39 C33       1.0763   -4.9285    6.4027   C.3       1 RES1   0.0000
    40 C34       1.5722   -5.9356    5.3630   C.3       1 RES1   0.0000
    41 C35       2.0422   -7.2481    5.9940   C.3       1 RES1   0.0000
    42 C36       0.9105   -8.0278    6.6496   C.3       1 RES1   0.0000
    43 C37       2.3645   -2.1863    0.7036   C.3       1 RES1   0.0000
    44 C38       2.5368   -0.9541    1.6117   C.2       1 RES1   0.0000
    45 O3        1.9410    0.0513    1.1754   O.2       1 RES1   0.0000
    46 N4        3.1652   -0.9197    2.7755   N.am      1 RES1   0.0000
    47 C39       3.8387   -2.0092    3.4755   C.3       1 RES1   0.0000
    48 C40       5.3221   -1.7419    3.7725   C.3       1 RES1   0.0000
    49 C41       6.1839   -1.7362    2.5114   C.3       1 RES1   0.0000
    50 C42       7.6754   -1.7942    2.8379   C.3       1 RES1   0.0000
    51 C43       8.5711   -1.7407    1.5946   C.3       1 RES1   0.0000
    52 C44       8.9393   -3.0902    0.9707   C.3       1 RES1   0.0000
    53 C45       7.7656   -3.8868    0.4036   C.3       1 RES1   0.0000
    54 C46       8.2323   -5.0504   -0.4659   C.3       1 RES1   0.0000
    55 C47       3.0414    0.3178    3.5670   C.3       1 RES1   0.0000
    56 C48       3.9906    1.4463    3.1480   C.3       1 RES1   0.0000
    57 C49       3.3928    2.3848    2.0990   C.3       1 RES1   0.0000
    58 C50       4.4116    3.3175    1.4511   C.3       1 RES1   0.0000
    59 C51       5.6123    2.6155    0.8082   C.3       1 RES1   0.0000
    60 C52       5.2494    1.4025   -0.0517   C.3       1 RES1   0.0000
    61 C53       6.4727    0.9314   -0.8459   C.3       1 RES1   0.0000
    62 C54       6.4165   -0.5259   -1.2887   C.3       1 RES1   0.0000
    63 H1        5.6604   -1.5784  -10.5015   H         1 RES1   0.0000
    64 H2        3.9040   -1.4690  -10.5386   H         1 RES1   0.0000
    65 H3        4.7048   -2.6614   -9.5032   H         1 RES1   0.0000
    66 H4        4.7891    0.3796   -9.1337   H         1 RES1   0.0000
    67 H5        5.7448   -0.7765   -8.1988   H         1 RES1   0.0000
    68 H6        3.8833   -0.2249   -6.8729   H         1 RES1   0.0000
    69 H7        3.7471   -1.8969   -7.4182   H         1 RES1   0.0000
    70 H8        1.8208   -1.4227   -8.7305   H         1 RES1   0.0000
    71 H9        2.3017    0.2489   -8.9587   H         1 RES1   0.0000
    72 H10       0.7100    0.7329   -7.4720   H         1 RES1   0.0000
    73 H11       1.9245    0.2844   -6.2840   H         1 RES1   0.0000
    74 H12       0.6857   -2.1533   -6.8110   H         1 RES1   0.0000
    75 H13      -0.6617   -1.0354   -6.8748   H         1 RES1   0.0000
    76 H14       0.0143   -0.1150   -4.6206   H         1 RES1   0.0000
    77 H15       1.3037   -1.3114   -4.5685   H         1 RES1   0.0000
    78 H16      -0.8135   -2.9120   -5.1100   H         1 RES1   0.0000
    79 H17      -1.5939   -1.7170   -4.0811   H         1 RES1   0.0000
    80 H18       0.2780   -4.8031   -2.4359   H         1 RES1   0.0000
    81 H19       0.5056   -4.5850   -4.1640   H         1 RES1   0.0000
    82 H20      -1.8919   -4.6130   -4.5836   H         1 RES1   0.0000
    83 H21      -2.2456   -4.5327   -2.8712   H         1 RES1   0.0000
    84 H22      -1.0074   -6.7595   -2.6121   H         1 RES1   0.0000
    85 H23      -0.8398   -6.7923   -4.3554   H         1 RES1   0.0000
    86 H24      -2.8631   -7.8041   -4.4508   H         1 RES1   0.0000
    87 H25      -3.5511   -6.2616   -4.0292   H         1 RES1   0.0000
    88 H26      -4.5671   -7.4477   -2.4331   H         1 RES1   0.0000
    89 H27      -3.1042   -7.1892   -1.5202   H         1 RES1   0.0000
    90 H28      -3.2137   -9.5726   -3.3633   H         1 RES1   0.0000
    91 H29      -4.2544   -9.6356   -1.9588   H         1 RES1   0.0000
    92 H30      -1.3068   -9.0593   -1.6021   H         1 RES1   0.0000
    93 H31      -1.8843  -10.6961   -1.8468   H         1 RES1   0.0000
    94 H32      -3.0439   -8.9119    0.3472   H         1 RES1   0.0000
    95 H33      -1.7302  -10.0659    0.6117   H         1 RES1   0.0000
    96 H34      -3.3173  -10.6336    0.0878   H         1 RES1   0.0000
    97 H35       1.4204   -3.6799   -1.0507   H         1 RES1   0.0000
    98 H36      -0.2942   -3.6171   -0.5531   H         1 RES1   0.0000
    99 H37       1.0078   -2.7846    2.4819   H         1 RES1   0.0000
   100 H38      -0.1389   -3.7678    1.5463   H         1 RES1   0.0000
   101 H39      -3.9151   -1.7181    2.8281   H         1 RES1   0.0000
   102 H40      -2.8633   -0.4804    2.0793   H         1 RES1   0.0000
   103 H41      -2.2888    0.4550    4.1974   H         1 RES1   0.0000
   104 H42      -2.8752   -0.9649    5.0759   H         1 RES1   0.0000
   105 H43      -5.1274   -0.3936    4.8427   H         1 RES1   0.0000
   106 H44      -4.8624    0.3888    3.2975   H         1 RES1   0.0000
   107 H45      -5.5889    2.0428    4.7507   H         1 RES1   0.0000
   108 H46      -3.8705    2.3438    4.5011   H         1 RES1   0.0000
   109 H47      -3.3163    1.6691    6.7132   H         1 RES1   0.0000
   110 H48      -4.8374    0.8159    6.9250   H         1 RES1   0.0000
   111 H49      -4.7540    2.9410    8.1884   H         1 RES1   0.0000
   112 H50      -6.1041    2.8212    7.0640   H         1 RES1   0.0000
   113 H51      -5.2053    5.0477    7.0427   H         1 RES1   0.0000
   114 H52      -4.9641    4.3085    5.4674   H         1 RES1   0.0000
   115 H53      -2.8038    4.4536    7.6247   H         1 RES1   0.0000
   116 H54      -2.9764    5.6409    6.3309   H         1 RES1   0.0000
   117 H55      -2.5710    3.9673    5.9436   H         1 RES1   0.0000
   118 H56      -2.6095   -4.0883    2.8362   H         1 RES1   0.0000
   119 H57      -2.9716   -3.1561    4.2930   H         1 RES1   0.0000
   120 H58      -0.1880   -4.2009    3.6137   H         1 RES1   0.0000
   121 H59      -1.3285   -4.9426    4.7146   H         1 RES1   0.0000
   122 H60      -1.1564   -3.1544    6.2776   H         1 RES1   0.0000
   123 H61      -0.4509   -2.0540    5.0912   H         1 RES1   0.0000
   124 H62       1.2229   -2.7976    6.6640   H         1 RES1   0.0000
   125 H63       1.6164   -3.3495    5.0380   H         1 RES1   0.0000
   126 H64       0.1267   -5.2563    6.8231   H         1 RES1   0.0000
   127 H65       1.8057   -4.9171    7.2123   H         1 RES1   0.0000
   128 H66       2.4147   -5.4925    4.8227   H         1 RES1   0.0000
   129 H67       0.7891   -6.1586    4.6354   H         1 RES1   0.0000
   130 H68       2.8175   -7.0366    6.7320   H         1 RES1   0.0000
   131 H69       2.4946   -7.8645    5.2142   H         1 RES1   0.0000
   132 H70       0.5045   -7.4905    7.5015   H         1 RES1   0.0000
   133 H71       1.2712   -8.9884    7.0042   H         1 RES1   0.0000
   134 H72       0.1090   -8.2077    5.9360   H         1 RES1   0.0000
   135 H73       2.8871   -1.9574   -0.2313   H         1 RES1   0.0000
   136 H74       2.7353   -3.1365    1.1107   H         1 RES1   0.0000
   137 H75       3.7528   -2.9326    2.9009   H         1 RES1   0.0000
   138 H76       3.3126   -2.1493    4.4289   H         1 RES1   0.0000
   139 H77       5.6624   -2.5330    4.4456   H         1 RES1   0.0000
   140 H78       5.4345   -0.8011    4.3114   H         1 RES1   0.0000
   141 H79       5.9902   -0.8302    1.9331   H         1 RES1   0.0000
   142 H80       5.9026   -2.5910    1.8962   H         1 RES1   0.0000
   143 H81       7.8911   -2.7025    3.4012   H         1 RES1   0.0000
   144 H82       7.9112   -0.9417    3.4797   H         1 RES1   0.0000
   145 H83       9.5060   -1.2572    1.8753   H         1 RES1   0.0000
   146 H84       8.1029   -1.1127    0.8366   H         1 RES1   0.0000
   147 H85       9.4601   -3.6990    1.7110   H         1 RES1   0.0000
   148 H86       9.6413   -2.8961    0.1558   H         1 RES1   0.0000
   149 H87       7.1423   -3.2256   -0.2034   H         1 RES1   0.0000
   150 H88       7.1577   -4.2792    1.2217   H         1 RES1   0.0000
   151 H89       8.8048   -4.6849   -1.3160   H         1 RES1   0.0000
   152 H90       7.3794   -5.6131   -0.8442   H         1 RES1   0.0000
   153 H91       8.8627   -5.7283    0.1039   H         1 RES1   0.0000
   154 H92       3.2366    0.0342    4.6015   H         1 RES1   0.0000
   155 H93       2.0024    0.6485    3.4713   H         1 RES1   0.0000
   156 H94       4.9209    1.0151    2.7847   H         1 RES1   0.0000
   157 H95       4.2355    2.0304    4.0349   H         1 RES1   0.0000
   158 H96       2.6262    2.9957    2.5763   H         1 RES1   0.0000
   159 H97       2.9015    1.8204    1.3118   H         1 RES1   0.0000
   160 H98       4.7887    4.0250    2.1907   H         1 RES1   0.0000
   161 H99       3.8906    3.8852    0.6749   H         1 RES1   0.0000
   162 H100      6.3328    2.3089    1.5709   H         1 RES1   0.0000
   163 H101      6.1210    3.3428    0.1717   H         1 RES1   0.0000
   164 H102      4.4333    1.6783   -0.7248   H         1 RES1   0.0000
   165 H103      4.8805    0.5923    0.5843   H         1 RES1   0.0000
   166 H104      7.3590    1.0635   -0.2233   H         1 RES1   0.0000
   167 H105      6.5935    1.5736   -1.7200   H         1 RES1   0.0000
   168 H106      6.1584   -1.1779   -0.4565   H         1 RES1   0.0000
   169 H107      7.3899   -0.8292   -1.6617   H         1 RES1   0.0000
   170 H108      5.6974   -0.6743   -2.0850   H         1 RES1   0.0000
   171 C55       2.1130   -4.5427   -7.6503   C.3       1 RES1   0.0000
   172 C56       3.0565   -4.6444   -6.4543   C.3       1 RES1   0.0000
   173 C57       2.8356   -3.5132   -5.4483   C.3       1 RES1   0.0000
   174 C58       3.9371   -3.3927   -4.3949   C.3       1 RES1   0.0000
   175 C59       3.6382   -2.3518   -3.3048   C.3       1 RES1   0.0000
   176 C60       3.6650   -0.8983   -3.7977   C.3       1 RES1   0.0000
   177 C61       2.9911    0.0594   -2.8025   C.3       1 RES1   0.0000
   178 C62       2.6940    1.4704   -3.3646   C.3       1 RES1   0.0000
   179 N5        1.2592    1.8135   -3.4529   N.am      1 RES1   0.0000
   180 C63       0.8275    2.4329   -4.7025   C.3       1 RES1   0.0000
   181 C64       1.2432    3.9079   -4.8171   C.3       1 RES1   0.0000
   182 C65       0.2496    4.8552   -4.1388   C.3       1 RES1   0.0000
   183 C66       0.6406    5.1876   -2.7015   C.3       1 RES1   0.0000
   184 C67      -0.5167    5.7194   -1.8592   C.3       1 RES1   0.0000
   185 C68      -1.1853    7.0016   -2.3606   C.3       1 RES1   0.0000
   186 C69      -2.2758    6.8394   -3.4232   C.3       1 RES1   0.0000
   187 C70      -3.3897    5.8755   -3.0246   C.3       1 RES1   0.0000
   188 C71       0.5225    1.7544   -2.3427   C.2       1 RES1   0.0000
   189 O4        1.0482    1.4915   -1.2471   O.2       1 RES1   0.0000
   190 C72      -1.0074    1.9316   -2.4354   C.3       1 RES1   0.0000
   191 N6       -1.7706    1.3342   -1.3152   N.4       1 RES1   0.0000
   192 C73      -2.3338    2.3837   -0.4294   C.3       1 RES1   0.0000
   193 C74      -1.3680    2.7587    0.7047   C.2       1 RES1   0.0000
   194 O5       -0.4115    1.9824    0.8910   O.2       1 RES1   0.0000
   195 N7       -1.5340    3.8006    1.5105   N.am      1 RES1   0.0000
   196 C75      -0.5127    3.9312    2.5658   C.3       1 RES1   0.0000
   197 C76      -0.5984    2.8494    3.6512   C.3       1 RES1   0.0000
   198 C77       0.4114    3.1728    4.7581   C.3       1 RES1   0.0000
   199 C78       0.5756    2.0960    5.8397   C.3       1 RES1   0.0000
   200 C79      -0.3972    2.2700    7.0056   C.3       1 RES1   0.0000
   201 C80      -0.0008    1.5211    8.2789   C.3       1 RES1   0.0000
   202 C81      -0.0196   -0.0031    8.1718   C.3       1 RES1   0.0000
   203 C82      -1.4082   -0.5529    7.8642   C.3       1 RES1   0.0000
   204 C83      -2.4730    4.9191    1.3901   C.3       1 RES1   0.0000
   205 C84      -3.9239    4.5816    1.0625   C.3       1 RES1   0.0000
   206 C85      -4.5522    3.6140    2.0619   C.3       1 RES1   0.0000
   207 C86      -5.7460    2.8584    1.4782   C.3       1 RES1   0.0000
   208 C87      -6.8455    3.7303    0.8565   C.3       1 RES1   0.0000
   209 C88      -6.7073    3.9419   -0.6531   C.3       1 RES1   0.0000
   210 C89      -8.0193    4.3726   -1.3105   C.3       1 RES1   0.0000
   211 C90      -8.4908    5.7412   -0.8391   C.3       1 RES1   0.0000
   212 C91      -2.8390    0.4280   -1.7852   C.3       1 RES1   0.0000
   213 C92      -2.9198   -0.8654   -0.9617   C.2       1 RES1   0.0000
   214 O6       -1.9587   -1.1525   -0.2208   O.2       1 RES1   0.0000
   215 N8       -3.9971   -1.6444   -1.0606   N.am      1 RES1   0.0000
   216 C93      -5.1528   -1.2611   -1.8820   C.3       1 RES1   0.0000
   217 C94      -5.9100   -2.4363   -2.4961   C.3       1 RES1   0.0000
   218 C95      -5.1619   -3.0372   -3.6855   C.3       1 RES1   0.0000
   219 C96      -6.0194   -4.1220   -4.3280   C.3       1 RES1   0.0000
   220 C97      -5.3474   -4.8638   -5.4860   C.3       1 RES1   0.0000
   221 C98      -5.6767   -4.3287   -6.8774   C.3       1 RES1   0.0000
   222 C99      -5.1567   -2.9165   -7.1359   C.3       1 RES1   0.0000
   223 C100     -5.1652   -2.5735   -8.6217   C.3       1 RES1   0.0000
   224 C101     -4.1934   -2.7050   -0.0528   C.3       1 RES1   0.0000
   225 C102     -3.8122   -4.1632   -0.4085   C.3       1 RES1   0.0000
   226 C103     -2.3501   -4.5523   -0.0898   C.3       1 RES1   0.0000
   227 C104     -2.0864   -5.7770    0.8227   C.3       1 RES1   0.0000
   228 C105     -1.0125   -6.7890    0.3619   C.3       1 RES1   0.0000
   229 C106      0.4038   -6.2841    0.0814   C.3       1 RES1   0.0000
   230 C107      1.3349   -7.3754   -0.4630   C.3       1 RES1   0.0000
   231 C108      2.6379   -6.7933   -1.0016   C.3       1 RES1   0.0000
   232 H109      2.2612   -5.3847   -8.3173   H         1 RES1   0.0000
   233 H110      2.3008   -3.6412   -8.2270   H         1 RES1   0.0000
   234 H111      1.0671   -4.5490   -7.3483   H         1 RES1   0.0000
   235 H112      4.0845   -4.6168   -6.8171   H         1 RES1   0.0000
   236 H113      2.9067   -5.6048   -5.9567   H         1 RES1   0.0000
   237 H114      1.8755   -3.6706   -4.9591   H         1 RES1   0.0000
   238 H115      2.7636   -2.5765   -5.9910   H         1 RES1   0.0000
   239 H116      4.8746   -3.1309   -4.8872   H         1 RES1   0.0000
   240 H117      4.0726   -4.3638   -3.9118   H         1 RES1   0.0000
   241 H118      4.3791   -2.4761   -2.5120   H         1 RES1   0.0000
   242 H119      2.6541   -2.5667   -2.8704   H         1 RES1   0.0000
   243 H120      3.1666   -0.8426   -4.7619   H         1 RES1   0.0000
   244 H121      4.6960   -0.5901   -3.9691   H         1 RES1   0.0000
   245 H122      3.6274    0.1656   -1.9217   H         1 RES1   0.0000
   246 H123      2.0499   -0.3793   -2.4671   H         1 RES1   0.0000
   247 H124      3.0969    1.5507   -4.3753   H         1 RES1   0.0000
   248 H125      3.1932    2.2116   -2.7338   H         1 RES1   0.0000
   249 H126     -0.2571    2.3628   -4.8008   H         1 RES1   0.0000
   250 H127      1.2674    1.8590   -5.5175   H         1 RES1   0.0000
   251 H128      1.3262    4.1574   -5.8747   H         1 RES1   0.0000
   252 H129      2.2410    4.0415   -4.3985   H         1 RES1   0.0000
   253 H130     -0.7395    4.3949   -4.1652   H         1 RES1   0.0000
   254 H131      0.1864    5.7799   -4.7088   H         1 RES1   0.0000
   255 H132      1.4439    5.9247   -2.7294   H         1 RES1   0.0000
   256 H133      1.0346    4.2920   -2.2074   H         1 RES1   0.0000
   257 H134     -0.1178    5.9087   -0.8612   H         1 RES1   0.0000
   258 H135     -1.2738    4.9386   -1.7578   H         1 RES1   0.0000
   259 H136     -0.4176    7.6741   -2.7419   H         1 RES1   0.0000
   260 H137     -1.6442    7.4887   -1.4975   H         1 RES1   0.0000
   261 H138     -1.8581    6.5297   -4.3796   H         1 RES1   0.0000
   262 H139     -2.7128    7.8266   -3.5731   H         1 RES1   0.0000
   263 H140     -3.0618    4.8353   -3.0709   H         1 RES1   0.0000
   264 H141     -4.2302    5.9842   -3.7044   H         1 RES1   0.0000
   265 H142     -3.7383    6.0883   -2.0156   H         1 RES1   0.0000
   266 H143     -1.3221    1.4808   -3.3762   H         1 RES1   0.0000
   267 H144     -1.2282    3.0002   -2.4818   H         1 RES1   0.0000
   268 H145     -3.2427    2.0047    0.0476   H         1 RES1   0.0000
   269 H146     -2.5993    3.2654   -1.0205   H         1 RES1   0.0000
   270 H147     -0.6345    4.9048    3.0377   H         1 RES1   0.0000
   271 H148      0.4748    3.8993    2.0936   H         1 RES1   0.0000
   272 H149     -0.3720    1.8698    3.2180   H         1 RES1   0.0000
   273 H150     -1.6172    2.8350    4.0444   H         1 RES1   0.0000
   274 H151      0.1313    4.1124    5.2377   H         1 RES1   0.0000
   275 H152      1.3803    3.3361    4.2842   H         1 RES1   0.0000
   276 H153      1.5919    2.1667    6.2309   H         1 RES1   0.0000
   277 H154      0.4630    1.1049    5.3937   H         1 RES1   0.0000
   278 H155     -1.3942    1.9586    6.6972   H         1 RES1   0.0000
   279 H156     -0.4402    3.3299    7.2613   H         1 RES1   0.0000
   280 H157     -0.6937    1.8143    9.0706   H         1 RES1   0.0000
   281 H158      0.9970    1.8447    8.5844   H         1 RES1   0.0000
   282 H159      0.3176   -0.4090    9.1268   H         1 RES1   0.0000
   283 H160      0.6882   -0.3302    7.4059   H         1 RES1   0.0000
   284 H161     -2.1479   -0.0948    8.5161   H         1 RES1   0.0000
   285 H162     -1.4353   -1.6279    8.0248   H         1 RES1   0.0000
   286 H163     -1.6859   -0.3480    6.8330   H         1 RES1   0.0000
   287 H164     -2.0803    5.6256    0.6479   H         1 RES1   0.0000
   288 H165     -2.4681    5.4184    2.3617   H         1 RES1   0.0000
   289 H166     -4.0183    4.1881    0.0549   H         1 RES1   0.0000
   290 H167     -4.4612    5.5290    1.0873   H         1 RES1   0.0000
   291 H168     -4.8642    4.1638    2.9499   H         1 RES1   0.0000
   292 H169     -3.7994    2.8835    2.3743   H         1 RES1   0.0000
   293 H170     -6.1789    2.2608    2.2803   H         1 RES1   0.0000
   294 H171     -5.3771    2.1531    0.7253   H         1 RES1   0.0000
   295 H172     -6.8787    4.6889    1.3705   H         1 RES1   0.0000
   296 H173     -7.8012    3.2353    1.0300   H         1 RES1   0.0000
   297 H174     -6.3861    2.9980   -1.1074   H         1 RES1   0.0000
   298 H175     -5.9503    4.6961   -0.8744   H         1 RES1   0.0000
   299 H176     -8.7897    3.6265   -1.1069   H         1 RES1   0.0000
   300 H177     -7.8676    4.3985   -2.3914   H         1 RES1   0.0000
   301 H178     -8.7669    5.7207    0.2110   H         1 RES1   0.0000
   302 H179     -9.3608    6.0563   -1.4073   H         1 RES1   0.0000
   303 H180     -7.7061    6.4813   -0.9782   H         1 RES1   0.0000
   304 H181     -2.6411    0.1132   -2.8131   H         1 RES1   0.0000
   305 H182     -3.8071    0.9369   -1.7593   H         1 RES1   0.0000
   306 H183     -4.7954   -0.6451   -2.7076   H         1 RES1   0.0000
   307 H184     -5.8299   -0.6524   -1.2692   H         1 RES1   0.0000
   308 H185     -6.8766   -2.0609   -2.8389   H         1 RES1   0.0000
   309 H186     -6.1207   -3.2026   -1.7510   H         1 RES1   0.0000
   310 H187     -4.2041   -3.4615   -3.3668   H         1 RES1   0.0000
   311 H188     -4.9395   -2.2462   -4.4018   H         1 RES1   0.0000
   312 H189     -6.9490   -3.6735   -4.6770   H         1 RES1   0.0000
   313 H190     -6.2749   -4.8341   -3.5407   H         1 RES1   0.0000
   314 H191     -5.6601   -5.9064   -5.4458   H         1 RES1   0.0000
   315 H192     -4.2634   -4.8451   -5.3561   H         1 RES1   0.0000
   316 H193     -6.7560   -4.3523   -7.0257   H         1 RES1   0.0000
   317 H194     -5.2288   -5.0039   -7.6091   H         1 RES1   0.0000
   318 H195     -4.1311   -2.8386   -6.7601   H         1 RES1   0.0000
   319 H196     -5.7742   -2.1926   -6.5999   H         1 RES1   0.0000
   320 H197     -4.4976   -3.2355   -9.1695   H         1 RES1   0.0000
   321 H198     -4.8367   -1.5482   -8.7836   H         1 RES1   0.0000
   322 H199     -6.1646   -2.6800   -9.0362   H         1 RES1   0.0000
   323 H200     -5.2528   -2.6878    0.2075   H         1 RES1   0.0000
   324 H201     -3.6372   -2.3814    0.8252   H         1 RES1   0.0000
   325 H202     -4.0490   -4.3302   -1.4590   H         1 RES1   0.0000
   326 H203     -4.4836   -4.8093    0.1575   H         1 RES1   0.0000
   327 H204     -1.9172   -3.6706    0.3782   H         1 RES1   0.0000
   328 H205     -1.8423   -4.7438   -1.0323   H         1 RES1   0.0000
   329 H206     -3.0020   -6.3567    0.9486   H         1 RES1   0.0000
   330 H207     -1.8053   -5.4547    1.8246   H         1 RES1   0.0000
   331 H208     -1.3655   -7.2847   -0.5382   H         1 RES1   0.0000
   332 H209     -0.9451   -7.5537    1.1377   H         1 RES1   0.0000
   333 H210      0.8560   -5.8710    0.9886   H         1 RES1   0.0000
   334 H211      0.3493   -5.5113   -0.6807   H         1 RES1   0.0000
   335 H212      0.8422   -7.9250   -1.2665   H         1 RES1   0.0000
   336 H213      1.5653   -8.0872    0.3276   H         1 RES1   0.0000
   337 H214      2.4629   -6.1073   -1.8285   H         1 RES1   0.0000
   338 H215      3.2811   -7.5828   -1.3741   H         1 RES1   0.0000
   339 H216      3.1838   -6.2633   -0.2263   H         1 RES1   0.0000
@<TRIPOS>BOND
     1     1    20    1
     2     1    22    1
     3     1    25    1
     4     1    45    1
     5     1   189    1
     6     1   191    1
     7     1   194    1
     8     1   214    1
     9     2     3    1
    10     2    63    1
    11     2    64    1
    12     2    65    1
    13     3     4    1
    14     3    66    1
    15     3    67    1
    16     4     5    1
    17     4    68    1
    18     4    69    1
    19     5     6    1
    20     5    70    1
    21     5    71    1
    22     6     7    1
    23     6    72    1
    24     6    73    1
    25     7     8    1
    26     7    74    1
    27     7    75    1
    28     8     9    1
    29     8    76    1
    30     8    77    1
    31     9    10    1
    32     9    78    1
    33     9    79    1
    34    10    11    1
    35    10    19    1
    36    11    12    1
    37    11    80    1
    38    11    81    1
    39    12    13    1
    40    12    82    1
    41    12    83    1
    42    13    14    1
    43    13    84    1
    44    13    85    1
    45    14    15    1
    46    14    86    1
    47    14    87    1
    48    15    16    1
    49    15    88    1
    50    15    89    1
    51    16    17    1
    52    16    90    1
    53    16    91    1
    54    17    18    1
    55    17    92    1
    56    17    93    1
    57    18    94    1
    58    18    95    1
    59    18    96    1
    60    19    20    2
    61    19    21    1
    62    21    22    1
    63    21    97    1
    64    21    98    1
    65    22    23    1
    66    22    43    1
    67    23    24    1
    68    23    99    1
    69    23   100    1
    70    24    25    2
    71    24    26    1
    72    26    27    1
    73    26    35    1
    74    27    28    1
    75    27   101    1
    76    27   102    1
    77    28    29    1
    78    28   103    1
    79    28   104    1
    80    29    30    1
    81    29   105    1
    82    29   106    1
    83    30    31    1
    84    30   107    1
    85    30   108    1
    86    31    32    1
    87    31   109    1
    88    31   110    1
    89    32    33    1
    90    32   111    1
    91    32   112    1
    92    33    34    1
    93    33   113    1
    94    33   114    1
    95    34   115    1
    96    34   116    1
    97    34   117    1
    98    35    36    1
    99    35   118    1
   100    35   119    1
   101    36    37    1
   102    36   120    1
   103    36   121    1
   104    37    38    1
   105    37   122    1
   106    37   123    1
   107    38    39    1
   108    38   124    1
   109    38   125    1
   110    39    40    1
   111    39   126    1
   112    39   127    1
   113    40    41    1
   114    40   128    1
   115    40   129    1
   116    41    42    1
   117    41   130    1
   118    41   131    1
   119    42   132    1
   120    42   133    1
   121    42   134    1
   122    43    44    1
   123    43   135    1
   124    43   136    1
   125    44    45    2
   126    44    46    1
   127    46    47    1
   128    46    55    1
   129    47    48    1
   130    47   137    1
   131    47   138    1
   132    48    49    1
   133    48   139    1
   134    48   140    1
   135    49    50    1
   136    49   141    1
   137    49   142    1
   138    50    51    1
   139    50   143    1
   140    50   144    1
   141    51    52    1
   142    51   145    1
   143    51   146    1
   144    52    53    1
   145    52   147    1
   146    52   148    1
   147    53    54    1
   148    53   149    1
   149    53   150    1
   150    54   151    1
   151    54   152    1
   152    54   153    1
   153    55    56    1
   154    55   154    1
   155    55   155    1
   156    56    57    1
   157    56   156    1
   158    56   157    1
   159    57    58    1
   160    57   158    1
   161    57   159    1
   162    58    59    1
   163    58   160    1
   164    58   161    1
   165    59    60    1
   166    59   162    1
   167    59   163    1
   168    60    61    1
   169    60   164    1
   170    60   165    1
   171    61    62    1
   172    61   166    1
   173    61   167    1
   174    62   168    1
   175    62   169    1
   176    62   170    1
   177   171   172    1
   178   171   232    1
   179   171   233    1
   180   171   234    1
   181   172   173    1
   182   172   235    1
   183   172   236    1
   184   173   174    1
   185   173   237    1
   186   173   238    1
   187   174   175    1
   188   174   239    1
   189   174   240    1
   190   175   176    1
   191   175   241    1
   192   175   242    1
   193   176   177    1
   194   176   243    1
   195   176   244    1
   196   177   178    1
   197   177   245    1
   198   177   246    1
   199   178   179    1
   200   178   247    1
   201   178   248    1
   202   179   180    1
   203   179   188    1
   204   180   181    1
   205   180   249    1
   206   180   250    1
   207   181   182    1
   208   181   251    1
   209   181   252    1
   210   182   183    1
   211   182   253    1
   212   182   254    1
   213   183   184    1
   214   183   255    1
   215   183   256    1
   216   184   185    1
   217   184   257    1
   218   184   258    1
   219   185   186    1
   220   185   259    1
   221   185   260    1
   222   186   187    1
   223   186   261    1
   224   186   262    1
   225   187   263    1
   226   187   264    1
   227   187   265    1
   228   188   189    2
   229   188   190    1
   230   190   191    1
   231   190   266    1
   232   190   267    1
   233   191   192    1
   234   191   212    1
   235   192   193    1
   236   192   268    1
   237   192   269    1
   238   193   194    2
   239   193   195    1
   240   195   196    1
   241   195   204    1
   242   196   197    1
   243   196   270    1
   244   196   271    1
   245   197   198    1
   246   197   272    1
   247   197   273    1
   248   198   199    1
   249   198   274    1
   250   198   275    1
   251   199   200    1
   252   199   276    1
   253   199   277    1
   254   200   201    1
   255   200   278    1
   256   200   279    1
   257   201   202    1
   258   201   280    1
   259   201   281    1
   260   202   203    1
   261   202   282    1
   262   202   283    1
   263   203   284    1
   264   203   285    1
   265   203   286    1
   266   204   205    1
   267   204   287    1
   268   204   288    1
   269   205   206    1
   270   205   289    1
   271   205   290    1
   272   206   207    1
   273   206   291    1
   274   206   292    1
   275   207   208    1
   276   207   293    1
   277   207   294    1
   278   208   209    1
   279   208   295    1
   280   208   296    1
   281   209   210    1
   282   209   297    1
   283   209   298    1
   284   210   211    1
   285   210   299    1
   286   210   300    1
   287   211   301    1
   288   211   302    1
   289   211   303    1
   290   212   213    1
   291   212   304    1
   292   212   305    1
   293   213   214    2
   294   213   215    1
   295   215   216    1
   296   215   224    1
   297   216   217    1
   298   216   306    1
   299   216   307    1
   300   217   218    1
   301   217   308    1
   302   217   309    1
   303   218   219    1
   304   218   310    1
   305   218   311    1
   306   219   220    1
   307   219   312    1
   308   219   313    1
   309   220   221    1
   310   220   314    1
   311   220   315    1
   312   221   222    1
   313   221   316    1
   314   221   317    1
   315   222   223    1
   316   222   318    1
   317   222   319    1
   318   223   320    1
   319   223   321    1
   320   223   322    1
   321   224   225    1
   322   224   323    1
   323   224   324    1
   324   225   226    1
   325   225   325    1
   326   225   326    1
   327   226   227    1
   328   226   327    1
   329   226   328    1
   330   227   228    1
   331   227   329    1
   332   227   330    1
   333   228   229    1
   334   228   331    1
   335   228   332    1
   336   229   230    1
   337   229   333    1
   338   229   334    1
   339   230   231    1
   340   230   335    1
   341   230   336    1
   342   231   337    1
   343   231   338    1
   344   231   339    1
@<TRIPOS>SUBSTRUCTURE
     1 RES1      339 GROUP             0 ****  ****    0  
