@<TRIPOS>MOLECULE
ICIGOT_geomtry_0_nunpairedes_0_charge_3 Charge: 3 Unpaired_Electrons: 4 XTB_Unpaired_Electrons: 0 XTB_Charge: 3
    65    73     1     0     0
SMALL
NoCharges
****
Generated from Architector

@<TRIPOS>ATOM
     1 Ho1       0.6817    1.6468   -0.0846   Ho        1 RES1   0.0000
     2 C1        2.8997    7.0740   -0.7906   C.3       1 RES1   0.0000
     3 C2        3.1130    5.9536    0.2093   C.3       1 RES1   0.0000
     4 C3        1.9911    6.0111    1.3056   C.3       1 RES1   0.0000
     5 C4        1.3235    4.7172    1.4205   C.ar      1 RES1   0.0000
     6 N1        1.7927    3.6613    2.0354   N.ar      1 RES1   0.0000
     7 N2        0.7794    1.6224    2.7529   N.ar      1 RES1   0.0000
     8 C5        0.7662    2.7560    2.1201   C.ar      1 RES1   0.0000
     9 C6        1.9450    0.8914    2.6759   C.ar      1 RES1   0.0000
    10 C7        2.6692    0.1228    3.5891   C.ar      1 RES1   0.0000
    11 C8        3.6988   -0.6666    3.0903   C.ar      1 RES1   0.0000
    12 C9        4.0791   -0.6511    1.7373   C.ar      1 RES1   0.0000
    13 C10       3.3384    0.1508    0.9030   C.ar      1 RES1   0.0000
    14 C11       3.3213    0.6493   -0.4974   C.ar      1 RES1   0.0000
    15 N3        2.2634    0.5586   -1.2929   N.ar      1 RES1   0.0000
    16 N4        2.4581    1.9189   -1.7084   N.ar      1 RES1   0.0000
    17 C12       3.3834    2.2048   -2.8401   C.ar      1 RES1   0.0000
    18 C13       2.9527    2.3150   -4.2455   C.3       1 RES1   0.0000
    19 C14       3.1225    1.0203   -5.0696   C.3       1 RES1   0.0000
    20 C15       4.5744    0.7187   -5.3847   C.3       1 RES1   0.0000
    21 C16       4.4325    2.3052   -2.0030   C.ar      1 RES1   0.0000
    22 C17       5.8541    2.6587   -1.9599   C.3       1 RES1   0.0000
    23 C18       6.2351    3.6516   -3.0729   C.3       1 RES1   0.0000
    24 C19       5.5692    5.0134   -2.9464   C.3       1 RES1   0.0000
    25 N5        3.6009    1.9994   -0.8219   N.ar      1 RES1   0.0000
    26 N6        2.2850    0.8548    1.3691   N.ar      1 RES1   0.0000
    27 N7       -0.3243    3.1483    1.2885   N.ar      1 RES1   0.0000
    28 C20       0.0088    4.3356    0.8274   C.ar      1 RES1   0.0000
    29 C21      -0.7214    5.0863   -0.2116   C.3       1 RES1   0.0000
    30 C22      -1.8013    4.2926   -0.9625   C.3       1 RES1   0.0000
    31 C23      -1.2679    3.0590   -1.7293   C.3       1 RES1   0.0000
    32 H1        3.6929    7.0605   -1.5355   H         1 RES1   0.0000
    33 H2        2.9202    8.0388   -0.2932   H         1 RES1   0.0000
    34 H3        1.9535    6.9829   -1.3202   H         1 RES1   0.0000
    35 H4        4.0868    6.0638    0.6849   H         1 RES1   0.0000
    36 H5        3.0885    4.9742   -0.2913   H         1 RES1   0.0000
    37 H6        1.2706    6.7870    1.0527   H         1 RES1   0.0000
    38 H7        2.4525    6.2669    2.2567   H         1 RES1   0.0000
    39 H8        2.4358    0.1441    4.6432   H         1 RES1   0.0000
    40 H9        4.2440   -1.3101    3.7640   H         1 RES1   0.0000
    41 H10       4.9082   -1.2469    1.3867   H         1 RES1   0.0000
    42 H11       3.5433    3.1042   -4.7186   H         1 RES1   0.0000
    43 H12       1.8968    2.6053   -4.2571   H         1 RES1   0.0000
    44 H13       2.5741    1.1538   -6.0041   H         1 RES1   0.0000
    45 H14       2.6575    0.1774   -4.5520   H         1 RES1   0.0000
    46 H15       4.9782    1.4773   -6.0570   H         1 RES1   0.0000
    47 H16       4.6561   -0.2296   -5.9091   H         1 RES1   0.0000
    48 H17       5.1924    0.6888   -4.4872   H         1 RES1   0.0000
    49 H18       6.4716    1.7596   -2.0717   H         1 RES1   0.0000
    50 H19       6.0726    3.0738   -0.9717   H         1 RES1   0.0000
    51 H20       6.0004    3.2179   -4.0469   H         1 RES1   0.0000
    52 H21       7.3170    3.7823   -3.0291   H         1 RES1   0.0000
    53 H22       4.4845    4.9365   -3.0120   H         1 RES1   0.0000
    54 H23       5.9152    5.6528   -3.7541   H         1 RES1   0.0000
    55 H24       5.8363    5.4912   -2.0060   H         1 RES1   0.0000
    56 H25       0.0102    5.5236   -0.9074   H         1 RES1   0.0000
    57 H26      -1.1937    5.9535    0.2759   H         1 RES1   0.0000
    58 H27      -2.2654    4.9769   -1.6750   H         1 RES1   0.0000
    59 H28      -2.5845    3.9950   -0.2637   H         1 RES1   0.0000
    60 H29      -0.1895    3.1969   -2.0032   H         1 RES1   0.0000
    61 H30      -1.8103    2.9710   -2.6731   H         1 RES1   0.0000
    62 H31      -1.4864    2.1125   -1.1690   H         1 RES1   0.0000
    63 O1       -0.8363   -0.2657    0.0390   O.3       1 RES1   0.0000
    64 H32      -1.5766   -0.3970    0.6636   H         1 RES1   0.0000
    65 H33      -0.8496   -1.0814   -0.4956   H         1 RES1   0.0000
@<TRIPOS>BOND
     1     1     6    1
     2     1     7    1
     3     1    15    1
     4     1    16    1
     5     1    25    1
     6     1    26    1
     7     1    27    1
     8     1    63    1
     9     2     3    1
    10     2    32    1
    11     2    33    1
    12     2    34    1
    13     3     4    1
    14     3    35    1
    15     3    36    1
    16     4     5    1
    17     4    37    1
    18     4    38    1
    19     5     6    1
    20     5    28    2
    21     6     7    2
    22     7     8    1
    23     8     9    1
    24     8    27    2
    25     9    10    1
    26     9    26    2
    27    10    11    2
    28    10    39    1
    29    11    12    1
    30    11    40    1
    31    12    13    2
    32    12    41    1
    33    13    14    1
    34    13    26    1
    35    14    15    1
    36    14    25    2
    37    15    16    2
    38    16    17    1
    39    17    18    1
    40    17    21    2
    41    18    19    1
    42    18    42    1
    43    18    43    1
    44    19    20    1
    45    19    44    1
    46    19    45    1
    47    20    46    1
    48    20    47    1
    49    20    48    1
    50    21    22    1
    51    21    25    1
    52    22    23    1
    53    22    49    1
    54    22    50    1
    55    23    24    1
    56    23    51    1
    57    23    52    1
    58    24    53    1
    59    24    54    1
    60    24    55    1
    61    27    28    1
    62    28    29    1
    63    29    30    1
    64    29    56    1
    65    29    57    1
    66    30    31    1
    67    30    58    1
    68    30    59    1
    69    31    60    1
    70    31    61    1
    71    31    62    1
    72    63    64    1
    73    63    65    1
@<TRIPOS>SUBSTRUCTURE
     1 RES1       65 GROUP             0 ****  ****    0  
