@<TRIPOS>MOLECULE
ICIGOT_geomtry_0_nunpairedes_0_charge_2 Charge: 2 Unpaired_Electrons: 4 XTB_Unpaired_Electrons: 0 XTB_Charge: 2
   243   247     1     0     0
SMALL
NoCharges
****
Generated from Architector

@<TRIPOS>ATOM
     1 Ho1      -0.2313   -0.1538   -0.1326   Ho        1 RES1   0.0000
     2 C1        4.7109    4.1918   -4.6871   C.3       1 RES1   0.0000
     3 C2        3.7342    5.2966   -4.3032   C.3       1 RES1   0.0000
     4 C3        4.0059    5.8485   -2.9054   C.3       1 RES1   0.0000
     5 C4        2.9499    6.8780   -2.5010   C.3       1 RES1   0.0000
     6 C5        3.1652    7.4797   -1.1043   C.3       1 RES1   0.0000
     7 C6        2.2169    6.9523   -0.0243   C.3       1 RES1   0.0000
     8 C7        2.4802    5.4912    0.3379   C.3       1 RES1   0.0000
     9 C8        1.5397    5.0063    1.4518   C.3       1 RES1   0.0000
    10 N1        1.5704    3.5595    1.5895   N.am      1 RES1   0.0000
    11 C9        2.7708    3.0176    2.2283   C.3       1 RES1   0.0000
    12 C10       2.8346    3.2373    3.7416   C.3       1 RES1   0.0000
    13 C11       4.0677    2.5412    4.3286   C.3       1 RES1   0.0000
    14 C12       3.9335    1.0148    4.3691   C.3       1 RES1   0.0000
    15 C13       5.2719    0.2694    4.3605   C.3       1 RES1   0.0000
    16 C14       6.0133    0.3888    3.0275   C.3       1 RES1   0.0000
    17 C15       7.1963   -0.5714    2.8865   C.3       1 RES1   0.0000
    18 C16       6.7843   -2.0156    2.6217   C.3       1 RES1   0.0000
    19 C17       0.6798    2.7263    1.0641   C.2       1 RES1   0.0000
    20 O1        0.8436    1.4838    1.0766   O.2       1 RES1   0.0000
    21 C18      -0.6202    3.2316    0.4010   C.3       1 RES1   0.0000
    22 C19      -0.3568    3.7985   -0.9953   C.3       1 RES1   0.0000
    23 O2       -1.4230    2.0632    0.2320   O.3       1 RES1   0.0000
    24 C20      -2.7732    2.0531    0.7142   C.3       1 RES1   0.0000
    25 C21      -3.7186    2.0513   -0.4910   C.3       1 RES1   0.0000
    26 C22      -2.9108    0.7146    1.4655   C.2       1 RES1   0.0000
    27 O3       -2.0302   -0.1390    1.2193   O.2       1 RES1   0.0000
    28 N2       -3.9183    0.4531    2.2868   N.am      1 RES1   0.0000
    29 C23      -4.0708   -0.9141    2.7821   C.3       1 RES1   0.0000
    30 C24      -5.1370   -1.6860    1.9825   C.3       1 RES1   0.0000
    31 C25      -4.6072   -2.9889    1.3820   C.3       1 RES1   0.0000
    32 C26      -3.7863   -2.8069    0.1023   C.3       1 RES1   0.0000
    33 C27      -4.6652   -2.4272   -1.0926   C.3       1 RES1   0.0000
    34 C28      -3.9776   -2.6855   -2.4322   C.3       1 RES1   0.0000
    35 C29      -4.8649   -2.3335   -3.6264   C.3       1 RES1   0.0000
    36 C30      -5.1171   -0.8359   -3.7548   C.3       1 RES1   0.0000
    37 C31      -4.9733    1.3872    2.6660   C.3       1 RES1   0.0000
    38 C32      -4.5422    2.4237    3.7094   C.3       1 RES1   0.0000
    39 C33      -4.2394    1.8306    5.0844   C.3       1 RES1   0.0000
    40 C34      -3.7162    2.8839    6.0675   C.3       1 RES1   0.0000
    41 C35      -2.2838    3.3648    5.7997   C.3       1 RES1   0.0000
    42 C36      -1.1998    2.6049    6.5691   C.3       1 RES1   0.0000
    43 C37      -1.0059    1.1389    6.1780   C.3       1 RES1   0.0000
    44 C38      -0.5195    0.9451    4.7449   C.3       1 RES1   0.0000
    45 H1        4.4931    3.8204   -5.6848   H         1 RES1   0.0000
    46 H2        4.6485    3.3603   -3.9850   H         1 RES1   0.0000
    47 H3        5.7308    4.5683   -4.6818   H         1 RES1   0.0000
    48 H4        2.7123    4.9129   -4.3349   H         1 RES1   0.0000
    49 H5        3.8037    6.1069   -5.0293   H         1 RES1   0.0000
    50 H6        4.9897    6.3211   -2.8896   H         1 RES1   0.0000
    51 H7        4.0289    5.0209   -2.1895   H         1 RES1   0.0000
    52 H8        1.9577    6.4231   -2.5660   H         1 RES1   0.0000
    53 H9        2.9785    7.6813   -3.2380   H         1 RES1   0.0000
    54 H10       3.0244    8.5595   -1.1603   H         1 RES1   0.0000
    55 H11       4.1930    7.2984   -0.7870   H         1 RES1   0.0000
    56 H12       1.1836    7.0732   -0.3606   H         1 RES1   0.0000
    57 H13       2.3493    7.5631    0.8701   H         1 RES1   0.0000
    58 H14       3.5179    5.3981    0.6576   H         1 RES1   0.0000
    59 H15       2.3518    4.8669   -0.5462   H         1 RES1   0.0000
    60 H16       0.5242    5.3370    1.2469   H         1 RES1   0.0000
    61 H17       1.8425    5.4417    2.4051   H         1 RES1   0.0000
    62 H18       3.6478    3.4731    1.7646   H         1 RES1   0.0000
    63 H19       2.7770    1.9484    2.0247   H         1 RES1   0.0000
    64 H20       1.9332    2.8440    4.2104   H         1 RES1   0.0000
    65 H21       2.8965    4.3005    3.9764   H         1 RES1   0.0000
    66 H22       4.2305    2.9105    5.3411   H         1 RES1   0.0000
    67 H23       4.9342    2.8305    3.7336   H         1 RES1   0.0000
    68 H24       3.3496    0.6767    3.5114   H         1 RES1   0.0000
    69 H25       3.3799    0.7295    5.2662   H         1 RES1   0.0000
    70 H26       5.0730   -0.7837    4.5673   H         1 RES1   0.0000
    71 H27       5.9055    0.6462    5.1628   H         1 RES1   0.0000
    72 H28       6.3800    1.4087    2.9048   H         1 RES1   0.0000
    73 H29       5.3106    0.1985    2.2105   H         1 RES1   0.0000
    74 H30       7.8028   -0.5250    3.7900   H         1 RES1   0.0000
    75 H31       7.8181   -0.2368    2.0545   H         1 RES1   0.0000
    76 H32       6.1846   -2.4154    3.4352   H         1 RES1   0.0000
    77 H33       7.6676   -2.6397    2.5187   H         1 RES1   0.0000
    78 H34       6.2134   -2.0896    1.6959   H         1 RES1   0.0000
    79 H35      -1.1292    3.9564    1.0475   H         1 RES1   0.0000
    80 H36       0.0609    2.9958   -1.6094   H         1 RES1   0.0000
    81 H37       0.3213    4.6425   -0.9809   H         1 RES1   0.0000
    82 H38      -1.2929    4.1234   -1.4419   H         1 RES1   0.0000
    83 H39      -2.9509    2.9124    1.3690   H         1 RES1   0.0000
    84 H40      -3.4280    1.2392   -1.1573   H         1 RES1   0.0000
    85 H41      -3.6465    2.9919   -1.0328   H         1 RES1   0.0000
    86 H42      -4.7531    1.9142   -0.1929   H         1 RES1   0.0000
    87 H43      -4.3406   -0.8637    3.8363   H         1 RES1   0.0000
    88 H44      -3.1001   -1.4072    2.6912   H         1 RES1   0.0000
    89 H45      -5.5121   -1.0619    1.1711   H         1 RES1   0.0000
    90 H46      -5.9823   -1.9213    2.6317   H         1 RES1   0.0000
    91 H47      -5.4591   -3.6280    1.1455   H         1 RES1   0.0000
    92 H48      -4.0097   -3.5044    2.1332   H         1 RES1   0.0000
    93 H49      -3.2938   -3.7552   -0.1249   H         1 RES1   0.0000
    94 H50      -2.9976   -2.0532    0.2413   H         1 RES1   0.0000
    95 H51      -4.9413   -1.3744   -1.0248   H         1 RES1   0.0000
    96 H52      -5.5842   -3.0174   -1.0642   H         1 RES1   0.0000
    97 H53      -3.7093   -3.7430   -2.4905   H         1 RES1   0.0000
    98 H54      -3.0525   -2.1062   -2.4881   H         1 RES1   0.0000
    99 H55      -5.8160   -2.8579   -3.5268   H         1 RES1   0.0000
   100 H56      -4.3811   -2.6928   -4.5357   H         1 RES1   0.0000
   101 H57      -5.7464   -0.4718   -2.9461   H         1 RES1   0.0000
   102 H58      -5.6227   -0.6162   -4.6905   H         1 RES1   0.0000
   103 H59      -4.1741   -0.2935   -3.7367   H         1 RES1   0.0000
   104 H60      -5.7850    0.7883    3.0822   H         1 RES1   0.0000
   105 H61      -5.3598    1.9035    1.7866   H         1 RES1   0.0000
   106 H62      -5.3541    3.1441    3.8072   H         1 RES1   0.0000
   107 H63      -3.6660    2.9635    3.3506   H         1 RES1   0.0000
   108 H64      -3.5086    1.0310    4.9830   H         1 RES1   0.0000
   109 H65      -5.1531    1.4025    5.4992   H         1 RES1   0.0000
   110 H66      -3.7675    2.4774    7.0791   H         1 RES1   0.0000
   111 H67      -4.3885    3.7437    6.0323   H         1 RES1   0.0000
   112 H68      -2.2114    4.4106    6.1026   H         1 RES1   0.0000
   113 H69      -2.0642    3.3267    4.7315   H         1 RES1   0.0000
   114 H70      -1.4362    2.6446    7.6347   H         1 RES1   0.0000
   115 H71      -0.2502    3.1302    6.4315   H         1 RES1   0.0000
   116 H72      -1.9339    0.5907    6.3350   H         1 RES1   0.0000
   117 H73      -0.2656    0.7100    6.8548   H         1 RES1   0.0000
   118 H74      -1.2233    1.3462    4.0179   H         1 RES1   0.0000
   119 H75      -0.3824   -0.1106    4.5193   H         1 RES1   0.0000
   120 H76       0.4377    1.4420    4.6027   H         1 RES1   0.0000
   121 C39      -0.5485   -3.8696   -7.0486   C.3       1 RES1   0.0000
   122 C40      -0.3738   -4.9439   -5.9802   C.3       1 RES1   0.0000
   123 C41       0.4043   -4.4509   -4.7589   C.3       1 RES1   0.0000
   124 C42       1.8747   -4.1940   -5.0767   C.3       1 RES1   0.0000
   125 C43       2.6563   -3.7286   -3.8526   C.3       1 RES1   0.0000
   126 C44       4.0816   -3.3138   -4.2266   C.3       1 RES1   0.0000
   127 C45       4.7172   -2.3509   -3.2257   C.3       1 RES1   0.0000
   128 C46       4.3458   -0.8728   -3.4218   C.3       1 RES1   0.0000
   129 N3        2.9451   -0.4981   -3.2390   N.am      1 RES1   0.0000
   130 C47       2.1573   -0.3799   -4.4677   C.3       1 RES1   0.0000
   131 C48       2.4309    0.8979   -5.2583   C.3       1 RES1   0.0000
   132 C49       1.7395    2.1450   -4.7120   C.3       1 RES1   0.0000
   133 C50       0.2205    2.1337   -4.8883   C.3       1 RES1   0.0000
   134 C51      -0.3648    3.5342   -4.7066   C.3       1 RES1   0.0000
   135 C52      -1.8785    3.6053   -4.9205   C.3       1 RES1   0.0000
   136 C53      -2.6839    2.6364   -4.0524   C.3       1 RES1   0.0000
   137 C54      -4.1545    3.0341   -4.0037   C.3       1 RES1   0.0000
   138 C55       2.3971   -0.2453   -2.0681   C.2       1 RES1   0.0000
   139 O4        1.2442    0.2308   -1.9152   O.2       1 RES1   0.0000
   140 C56       3.1897   -0.5045   -0.7771   C.3       1 RES1   0.0000
   141 C57       3.8172    0.8288   -0.3649   C.3       1 RES1   0.0000
   142 O5        2.2131   -0.9211    0.1859   O.3       1 RES1   0.0000
   143 C58       2.4303   -2.1576    0.8743   C.3       1 RES1   0.0000
   144 C59       3.0129   -1.8829    2.2626   C.3       1 RES1   0.0000
   145 C60       1.0260   -2.7420    1.1250   C.2       1 RES1   0.0000
   146 O6        0.0892   -1.9192    1.1547   O.2       1 RES1   0.0000
   147 N4        0.8602   -4.0193    1.4271   N.am      1 RES1   0.0000
   148 C61      -0.4932   -4.5129    1.6997   C.3       1 RES1   0.0000
   149 C62      -1.2131   -3.7985    2.8422   C.3       1 RES1   0.0000
   150 C63      -0.5042   -3.8597    4.1910   C.3       1 RES1   0.0000
   151 C64      -1.4323   -3.3112    5.2769   C.3       1 RES1   0.0000
   152 C65      -0.8824   -3.3937    6.7022   C.3       1 RES1   0.0000
   153 C66       0.2533   -2.4073    7.0016   C.3       1 RES1   0.0000
   154 C67       1.6650   -2.9810    6.8645   C.3       1 RES1   0.0000
   155 C68       2.0062   -3.9732    7.9682   C.3       1 RES1   0.0000
   156 C69       1.8819   -5.0375    1.2269   C.3       1 RES1   0.0000
   157 C70       1.8166   -5.5966   -0.2009   C.3       1 RES1   0.0000
   158 C71       2.9375   -6.5896   -0.5207   C.3       1 RES1   0.0000
   159 C72       4.3347   -5.9714   -0.4914   C.3       1 RES1   0.0000
   160 C73       5.4061   -6.9277   -1.0175   C.3       1 RES1   0.0000
   161 C74       6.8262   -6.4067   -0.7850   C.3       1 RES1   0.0000
   162 C75       7.1451   -5.1301   -1.5642   C.3       1 RES1   0.0000
   163 C76       8.6029   -4.7174   -1.3947   C.3       1 RES1   0.0000
   164 H77      -1.1771   -4.2429   -7.8523   H         1 RES1   0.0000
   165 H78       0.4069   -3.5806   -7.4797   H         1 RES1   0.0000
   166 H79      -1.0194   -2.9855   -6.6230   H         1 RES1   0.0000
   167 H80       0.1424   -5.8066   -6.4080   H         1 RES1   0.0000
   168 H81      -1.3607   -5.2767   -5.6524   H         1 RES1   0.0000
   169 H82       0.3375   -5.2008   -3.9652   H         1 RES1   0.0000
   170 H83      -0.0528   -3.5284   -4.3885   H         1 RES1   0.0000
   171 H84       1.9375   -3.4265   -5.8493   H         1 RES1   0.0000
   172 H85       2.3283   -5.1024   -5.4784   H         1 RES1   0.0000
   173 H86       2.6987   -4.5406   -3.1247   H         1 RES1   0.0000
   174 H87       2.1186   -2.9003   -3.3859   H         1 RES1   0.0000
   175 H88       4.0966   -2.8658   -5.2218   H         1 RES1   0.0000
   176 H89       4.6972   -4.2124   -4.2834   H         1 RES1   0.0000
   177 H90       5.8008   -2.3926   -3.3413   H         1 RES1   0.0000
   178 H91       4.4842   -2.6941   -2.2176   H         1 RES1   0.0000
   179 H92       4.5927   -0.6080   -4.4513   H         1 RES1   0.0000
   180 H93       4.9733   -0.2612   -2.7688   H         1 RES1   0.0000
   181 H94       1.1001   -0.4433   -4.2094   H         1 RES1   0.0000
   182 H95       2.4147   -1.2408   -5.0826   H         1 RES1   0.0000
   183 H96       2.0851    0.7241   -6.2781   H         1 RES1   0.0000
   184 H97       3.5058    1.0873   -5.3031   H         1 RES1   0.0000
   185 H98       2.1381    3.0001   -5.2605   H         1 RES1   0.0000
   186 H99       1.9898    2.2760   -3.6552   H         1 RES1   0.0000
   187 H100     -0.2348    1.4460   -4.1741   H         1 RES1   0.0000
   188 H101     -0.0224    1.7811   -5.8919   H         1 RES1   0.0000
   189 H102      0.1107    4.2085   -5.4229   H         1 RES1   0.0000
   190 H103     -0.1201    3.9043   -3.7082   H         1 RES1   0.0000
   191 H104     -2.1018    3.4067   -5.9699   H         1 RES1   0.0000
   192 H105     -2.2014    4.6292   -4.7089   H         1 RES1   0.0000
   193 H106     -2.2690    2.6157   -3.0418   H         1 RES1   0.0000
   194 H107     -2.5999    1.6278   -4.4568   H         1 RES1   0.0000
   195 H108     -4.2737    4.0172   -3.5530   H         1 RES1   0.0000
   196 H109     -4.7354    2.3173   -3.4290   H         1 RES1   0.0000
   197 H110     -4.5689    3.0763   -5.0073   H         1 RES1   0.0000
   198 H111      3.9474   -1.2792   -0.9036   H         1 RES1   0.0000
   199 H112      3.0269    1.5675   -0.2453   H         1 RES1   0.0000
   200 H113      4.5017    1.1815   -1.1304   H         1 RES1   0.0000
   201 H114      4.3543    0.7351    0.5744   H         1 RES1   0.0000
   202 H115      3.0622   -2.8212    0.2762   H         1 RES1   0.0000
   203 H116      2.3459   -1.1861    2.7708   H         1 RES1   0.0000
   204 H117      4.0030   -1.4423    2.1929   H         1 RES1   0.0000
   205 H118      3.0756   -2.7965    2.8467   H         1 RES1   0.0000
   206 H119     -0.4065   -5.5719    1.9406   H         1 RES1   0.0000
   207 H120     -1.0937   -4.4018    0.7911   H         1 RES1   0.0000
   208 H121     -2.1854   -4.2832    2.9433   H         1 RES1   0.0000
   209 H122     -1.3787   -2.7565    2.5701   H         1 RES1   0.0000
   210 H123      0.4174   -3.2787    4.1508   H         1 RES1   0.0000
   211 H124     -0.2486   -4.8938    4.4289   H         1 RES1   0.0000
   212 H125     -2.3634   -3.8842    5.2428   H         1 RES1   0.0000
   213 H126     -1.6832   -2.2705    5.0456   H         1 RES1   0.0000
   214 H127     -0.5537   -4.4134    6.8995   H         1 RES1   0.0000
   215 H128     -1.7117   -3.1860    7.3804   H         1 RES1   0.0000
   216 H129      0.1427   -2.0440    8.0253   H         1 RES1   0.0000
   217 H130      0.1567   -1.5445    6.3390   H         1 RES1   0.0000
   218 H131      2.3747   -2.1518    6.9110   H         1 RES1   0.0000
   219 H132      1.7829   -3.4626    5.8929   H         1 RES1   0.0000
   220 H133      1.9055   -3.5039    8.9431   H         1 RES1   0.0000
   221 H134      3.0304   -4.3218    7.8642   H         1 RES1   0.0000
   222 H135      1.3506   -4.8392    7.9390   H         1 RES1   0.0000
   223 H136      1.7105   -5.8411    1.9451   H         1 RES1   0.0000
   224 H137      2.8645   -4.6198    1.4363   H         1 RES1   0.0000
   225 H138      1.8468   -4.7638   -0.9076   H         1 RES1   0.0000
   226 H139      0.8585   -6.0992   -0.3351   H         1 RES1   0.0000
   227 H140      2.7543   -6.9940   -1.5184   H         1 RES1   0.0000
   228 H141      2.8977   -7.4244    0.1801   H         1 RES1   0.0000
   229 H142      4.5991   -5.6969    0.5319   H         1 RES1   0.0000
   230 H143      4.3357   -5.0649   -1.1002   H         1 RES1   0.0000
   231 H144      5.2538   -7.1029   -2.0840   H         1 RES1   0.0000
   232 H145      5.3040   -7.8882   -0.5106   H         1 RES1   0.0000
   233 H146      7.5378   -7.1792   -1.0841   H         1 RES1   0.0000
   234 H147      6.9734   -6.2245    0.2830   H         1 RES1   0.0000
   235 H148      6.5035   -4.3142   -1.2201   H         1 RES1   0.0000
   236 H149      6.9370   -5.2970   -2.6238   H         1 RES1   0.0000
   237 H150      8.8277   -4.5294   -0.3471   H         1 RES1   0.0000
   238 H151      8.8182   -3.8137   -1.9603   H         1 RES1   0.0000
   239 H152      9.2636   -5.5043   -1.7482   H         1 RES1   0.0000
   240 N5       -0.8896   -0.9160   -2.2700   N.3       1 RES1   0.0000
   241 O7       -0.7988   -1.0167   -3.4511   O.2       1 RES1   0.0000
   242 O8       -0.3638   -1.7350   -1.5053   O.co2     1 RES1   0.0000
   243 O9       -1.5119    0.0151   -1.7486   O.co2     1 RES1   0.0000
@<TRIPOS>BOND
     1     1    20    1
     2     1    23    1
     3     1    27    1
     4     1   139    1
     5     1   142    1
     6     1   146    1
     7     1   242    1
     8     1   243    1
     9     2     3    1
    10     2    45    1
    11     2    46    1
    12     2    47    1
    13     3     4    1
    14     3    48    1
    15     3    49    1
    16     4     5    1
    17     4    50    1
    18     4    51    1
    19     5     6    1
    20     5    52    1
    21     5    53    1
    22     6     7    1
    23     6    54    1
    24     6    55    1
    25     7     8    1
    26     7    56    1
    27     7    57    1
    28     8     9    1
    29     8    58    1
    30     8    59    1
    31     9    10    1
    32     9    60    1
    33     9    61    1
    34    10    11    1
    35    10    19    1
    36    11    12    1
    37    11    62    1
    38    11    63    1
    39    12    13    1
    40    12    64    1
    41    12    65    1
    42    13    14    1
    43    13    66    1
    44    13    67    1
    45    14    15    1
    46    14    68    1
    47    14    69    1
    48    15    16    1
    49    15    70    1
    50    15    71    1
    51    16    17    1
    52    16    72    1
    53    16    73    1
    54    17    18    1
    55    17    74    1
    56    17    75    1
    57    18    76    1
    58    18    77    1
    59    18    78    1
    60    19    20    2
    61    19    21    1
    62    21    22    1
    63    21    23    1
    64    21    79    1
    65    22    80    1
    66    22    81    1
    67    22    82    1
    68    23    24    1
    69    24    25    1
    70    24    26    1
    71    24    83    1
    72    25    84    1
    73    25    85    1
    74    25    86    1
    75    26    27    2
    76    26    28    1
    77    28    29    1
    78    28    37    1
    79    29    30    1
    80    29    87    1
    81    29    88    1
    82    30    31    1
    83    30    89    1
    84    30    90    1
    85    31    32    1
    86    31    91    1
    87    31    92    1
    88    32    33    1
    89    32    93    1
    90    32    94    1
    91    33    34    1
    92    33    95    1
    93    33    96    1
    94    34    35    1
    95    34    97    1
    96    34    98    1
    97    35    36    1
    98    35    99    1
    99    35   100    1
   100    36   101    1
   101    36   102    1
   102    36   103    1
   103    37    38    1
   104    37   104    1
   105    37   105    1
   106    38    39    1
   107    38   106    1
   108    38   107    1
   109    39    40    1
   110    39   108    1
   111    39   109    1
   112    40    41    1
   113    40   110    1
   114    40   111    1
   115    41    42    1
   116    41   112    1
   117    41   113    1
   118    42    43    1
   119    42   114    1
   120    42   115    1
   121    43    44    1
   122    43   116    1
   123    43   117    1
   124    44   118    1
   125    44   119    1
   126    44   120    1
   127   121   122    1
   128   121   164    1
   129   121   165    1
   130   121   166    1
   131   122   123    1
   132   122   167    1
   133   122   168    1
   134   123   124    1
   135   123   169    1
   136   123   170    1
   137   124   125    1
   138   124   171    1
   139   124   172    1
   140   125   126    1
   141   125   173    1
   142   125   174    1
   143   126   127    1
   144   126   175    1
   145   126   176    1
   146   127   128    1
   147   127   177    1
   148   127   178    1
   149   128   129    1
   150   128   179    1
   151   128   180    1
   152   129   130    1
   153   129   138    1
   154   130   131    1
   155   130   181    1
   156   130   182    1
   157   131   132    1
   158   131   183    1
   159   131   184    1
   160   132   133    1
   161   132   185    1
   162   132   186    1
   163   133   134    1
   164   133   187    1
   165   133   188    1
   166   134   135    1
   167   134   189    1
   168   134   190    1
   169   135   136    1
   170   135   191    1
   171   135   192    1
   172   136   137    1
   173   136   193    1
   174   136   194    1
   175   137   195    1
   176   137   196    1
   177   137   197    1
   178   138   139    2
   179   138   140    1
   180   140   141    1
   181   140   142    1
   182   140   198    1
   183   141   199    1
   184   141   200    1
   185   141   201    1
   186   142   143    1
   187   143   144    1
   188   143   145    1
   189   143   202    1
   190   144   203    1
   191   144   204    1
   192   144   205    1
   193   145   146    2
   194   145   147    1
   195   147   148    1
   196   147   156    1
   197   148   149    1
   198   148   206    1
   199   148   207    1
   200   149   150    1
   201   149   208    1
   202   149   209    1
   203   150   151    1
   204   150   210    1
   205   150   211    1
   206   151   152    1
   207   151   212    1
   208   151   213    1
   209   152   153    1
   210   152   214    1
   211   152   215    1
   212   153   154    1
   213   153   216    1
   214   153   217    1
   215   154   155    1
   216   154   218    1
   217   154   219    1
   218   155   220    1
   219   155   221    1
   220   155   222    1
   221   156   157    1
   222   156   223    1
   223   156   224    1
   224   157   158    1
   225   157   225    1
   226   157   226    1
   227   158   159    1
   228   158   227    1
   229   158   228    1
   230   159   160    1
   231   159   229    1
   232   159   230    1
   233   160   161    1
   234   160   231    1
   235   160   232    1
   236   161   162    1
   237   161   233    1
   238   161   234    1
   239   162   163    1
   240   162   235    1
   241   162   236    1
   242   163   237    1
   243   163   238    1
   244   163   239    1
   245   240   241    2
   246   240   242    1
   247   240   243    1
@<TRIPOS>SUBSTRUCTURE
     1 RES1      243 GROUP             0 ****  ****    0  
