@<TRIPOS>MOLECULE
ICIGOT_geomtry_0_nunpairedes_0_charge_3 Charge: 3 Unpaired_Electrons: 4 XTB_Unpaired_Electrons: 0 XTB_Charge: 3
    69    81     1     0     0
SMALL
NoCharges
****
Generated from Architector

@<TRIPOS>ATOM
     1 Ho1       0.2145    0.1466    0.5483   Ho        1 RES1   0.0000
     2 C1        0.4327    4.1978    2.7202   C.3       1 RES1   0.0000
     3 C2       -0.0386    3.8601    1.3213   C.3       1 RES1   0.0000
     4 C3        1.0914    3.3124    0.3921   C.3       1 RES1   0.0000
     5 C4        0.5205    3.4329   -1.0414   C.3       1 RES1   0.0000
     6 C5       -0.9012    4.0035   -0.7941   C.3       1 RES1   0.0000
     7 C6       -1.5973    2.8602   -0.1314   C.ar      1 RES1   0.0000
     8 N1       -2.1446    1.7757   -0.6293   N.ar      1 RES1   0.0000
     9 N2       -2.6110    0.8715    0.2211   N.ar      1 RES1   0.0000
    10 C7       -2.2575    0.8933    1.4867   C.ar      1 RES1   0.0000
    11 C8       -2.3685   -0.3957    2.2504   C.ar      1 RES1   0.0000
    12 C9       -3.1712   -0.9234    3.2448   C.ar      1 RES1   0.0000
    13 C10      -2.8247   -2.1765    3.7591   C.ar      1 RES1   0.0000
    14 C11      -1.7206   -2.8889    3.2777   C.ar      1 RES1   0.0000
    15 C12      -0.9844   -2.2919    2.2684   C.ar      1 RES1   0.0000
    16 C13       0.2003   -2.6302    1.4202   C.ar      1 RES1   0.0000
    17 N3       -0.0075   -3.2849    0.3118   N.ar      1 RES1   0.0000
    18 N4        0.8278   -3.1892   -0.7008   N.ar      1 RES1   0.0000
    19 C14       2.0148   -2.6928   -0.4625   C.ar      1 RES1   0.0000
    20 C15       2.2612   -1.9991    0.7688   C.ar      1 RES1   0.0000
    21 N5        1.2668   -1.7657    1.6118   N.ar      1 RES1   0.0000
    22 C16       3.6490   -1.4775    0.7280   C.3       1 RES1   0.0000
    23 C17       3.9965   -0.4222    1.7557   C.3       1 RES1   0.0000
    24 C18       4.4437   -2.8246    0.8528   C.3       1 RES1   0.0000
    25 C19       4.1882   -3.5504   -0.4814   C.3       1 RES1   0.0000
    26 C20       3.2688   -2.5679   -1.2589   C.3       1 RES1   0.0000
    27 C21       3.7959   -1.1762   -0.8040   C.3       1 RES1   0.0000
    28 C22       2.9272    0.0013   -1.2791   C.3       1 RES1   0.0000
    29 C23       5.2169   -0.8451   -1.2522   C.3       1 RES1   0.0000
    30 N6       -1.3033   -1.0737    1.8002   N.ar      1 RES1   0.0000
    31 N7       -1.2524    1.7140    1.9382   N.ar      1 RES1   0.0000
    32 C24      -1.0908    2.8024    1.2050   C.ar      1 RES1   0.0000
    33 C25      -0.6981    4.9624    0.4114   C.3       1 RES1   0.0000
    34 C26       0.1537    6.1907    0.1427   C.3       1 RES1   0.0000
    35 C27      -2.0413    5.4417    0.9560   C.3       1 RES1   0.0000
    36 H1       -0.4054    4.4860    3.3485   H         1 RES1   0.0000
    37 H2        1.1347    5.0255    2.6972   H         1 RES1   0.0000
    38 H3        0.9251    3.3363    3.1744   H         1 RES1   0.0000
    39 H4        1.3720    2.2374    0.6848   H         1 RES1   0.0000
    40 H5        1.9798    3.9292    0.5328   H         1 RES1   0.0000
    41 H6        0.4864    2.4730   -1.5878   H         1 RES1   0.0000
    42 H7        1.0963    4.1400   -1.6386   H         1 RES1   0.0000
    43 H8       -1.3858    4.4320   -1.6625   H         1 RES1   0.0000
    44 H9       -4.0237   -0.3799    3.6211   H         1 RES1   0.0000
    45 H10      -3.4320   -2.5986    4.5502   H         1 RES1   0.0000
    46 H11      -1.4660   -3.8615    3.6739   H         1 RES1   0.0000
    47 H12       4.0155   -0.8656    2.7481   H         1 RES1   0.0000
    48 H13       3.2555    0.3981    1.7681   H         1 RES1   0.0000
    49 H14       4.9831   -0.0113    1.5656   H         1 RES1   0.0000
    50 H15       4.1016   -3.3974    1.7141   H         1 RES1   0.0000
    51 H16       5.4971   -2.6037    1.0041   H         1 RES1   0.0000
    52 H17       3.6834   -4.5067   -0.3486   H         1 RES1   0.0000
    53 H18       5.0972   -3.7515   -1.0455   H         1 RES1   0.0000
    54 H19       3.2017   -2.7462   -2.3262   H         1 RES1   0.0000
    55 H20       1.8059   -0.1249   -1.0888   H         1 RES1   0.0000
    56 H21       3.0350    0.0814   -2.3605   H         1 RES1   0.0000
    57 H22       3.3004    0.9371   -0.8462   H         1 RES1   0.0000
    58 H23       5.9447   -1.5958   -0.9771   H         1 RES1   0.0000
    59 H24       5.5398    0.1001   -0.8235   H         1 RES1   0.0000
    60 H25       5.2500   -0.7480   -2.3343   H         1 RES1   0.0000
    61 H26       1.1429    5.9837   -0.2496   H         1 RES1   0.0000
    62 H27       0.2536    6.7646    1.0601   H         1 RES1   0.0000
    63 H28      -0.3677    6.8257   -0.5672   H         1 RES1   0.0000
    64 H29      -2.7138    4.6182    1.1853   H         1 RES1   0.0000
    65 H30      -2.5219    6.0728    0.2150   H         1 RES1   0.0000
    66 H31      -1.9055    6.0336    1.8564   H         1 RES1   0.0000
    67 O1       -1.0716   -0.8989   -1.3510   O.3       1 RES1   0.0000
    68 H32      -1.0856   -1.7956   -1.7439   H         1 RES1   0.0000
    69 H33      -1.9033   -0.5116   -1.6883   H         1 RES1   0.0000
@<TRIPOS>BOND
     1     1     8    1
     2     1     9    1
     3     1    17    1
     4     1    18    1
     5     1    21    1
     6     1    30    1
     7     1    31    1
     8     1    67    1
     9     2     3    1
    10     2    36    1
    11     2    37    1
    12     2    38    1
    13     3     4    1
    14     3    32    1
    15     3    33    1
    16     4     5    1
    17     4    39    1
    18     4    40    1
    19     5     6    1
    20     5    41    1
    21     5    42    1
    22     6     7    1
    23     6    33    1
    24     6    43    1
    25     7     8    1
    26     7    32    2
    27     8     9    2
    28     9    10    1
    29    10    11    1
    30    10    31    2
    31    11    12    1
    32    11    30    2
    33    12    13    2
    34    12    44    1
    35    13    14    1
    36    13    45    1
    37    14    15    2
    38    14    46    1
    39    15    16    1
    40    15    30    1
    41    16    17    1
    42    16    21    2
    43    17    18    2
    44    18    19    1
    45    19    20    2
    46    19    26    1
    47    20    21    1
    48    20    22    1
    49    22    23    1
    50    22    24    1
    51    22    27    1
    52    23    47    1
    53    23    48    1
    54    23    49    1
    55    24    25    1
    56    24    50    1
    57    24    51    1
    58    25    26    1
    59    25    52    1
    60    25    53    1
    61    26    27    1
    62    26    54    1
    63    27    28    1
    64    27    29    1
    65    28    55    1
    66    28    56    1
    67    28    57    1
    68    29    58    1
    69    29    59    1
    70    29    60    1
    71    31    32    1
    72    33    34    1
    73    33    35    1
    74    34    61    1
    75    34    62    1
    76    34    63    1
    77    35    64    1
    78    35    65    1
    79    35    66    1
    80    67    68    1
    81    67    69    1
@<TRIPOS>SUBSTRUCTURE
     1 RES1       69 GROUP             0 ****  ****    0  
