@<TRIPOS>MOLECULE
YEMSEP_geometry_0_nunpairedes_0_charge_3 Charge: 3 Unpaired_Electrons: 4 XTB_Unpaired_Electrons: 0 XTB_Charge: 3
   305   308     1     0     0
SMALL
NoCharges
****
Generated from Architector

@<TRIPOS>ATOM
     1 Ho1      -0.2883   -0.0637    0.1184   Ho        1 RES1   0.0000
     2 C1       -3.9255   -2.0127   -2.7246   C.3       1 RES1   0.0000
     3 C2       -2.9325   -2.5719   -1.7120   C.3       1 RES1   0.0000
     4 C3       -3.5459   -2.6257   -0.3140   C.3       1 RES1   0.0000
     5 C4       -3.5556   -1.2611    0.3755   C.3       1 RES1   0.0000
     6 C5       -4.4182   -1.2769    1.6442   C.3       1 RES1   0.0000
     7 C6       -5.0578    0.0758    1.9759   C.3       1 RES1   0.0000
     8 C7       -4.0829    1.1635    2.4416   C.3       1 RES1   0.0000
     9 C8       -3.4295    0.7579    3.7681   C.3       1 RES1   0.0000
    10 N1       -2.0536    1.1975    4.0145   N.am      1 RES1   0.0000
    11 C9       -1.8224    1.7264    5.3558   C.3       1 RES1   0.0000
    12 C10      -2.1748    0.7645    6.4993   C.3       1 RES1   0.0000
    13 C11      -1.3990   -0.5486    6.4415   C.3       1 RES1   0.0000
    14 C12      -1.7725   -1.5424    7.5568   C.3       1 RES1   0.0000
    15 C13      -1.7628   -0.9623    8.9878   C.3       1 RES1   0.0000
    16 C14      -0.4060   -0.6719    9.6439   C.3       1 RES1   0.0000
    17 C15       0.3322    0.5926    9.1905   C.3       1 RES1   0.0000
    18 C16      -0.3090    1.8818    9.7020   C.3       1 RES1   0.0000
    19 C17      -0.8938   -2.8020    7.4879   C.3       1 RES1   0.0000
    20 C18      -1.1549   -3.7044    6.2789   C.3       1 RES1   0.0000
    21 C19      -0.2907   -3.4449    5.0391   C.3       1 RES1   0.0000
    22 C20       1.0552   -4.1781    5.0462   C.3       1 RES1   0.0000
    23 C21       2.1629   -3.5142    5.8651   C.3       1 RES1   0.0000
    24 C22       2.4846   -2.0927    5.4150   C.3       1 RES1   0.0000
    25 C23      -1.1136    1.0365    3.1053   C.2       1 RES1   0.0000
    26 O1       -1.3513    0.7004    1.9187   O.2       1 RES1   0.0000
    27 C24       0.3708    1.2640    3.4403   C.3       1 RES1   0.0000
    28 O2        1.0552    0.8249    2.2763   O.3       1 RES1   0.0000
    29 C25       2.4662    0.9614    2.3113   C.3       1 RES1   0.0000
    30 C26       2.9064    0.6866    0.8703   C.2       1 RES1   0.0000
    31 O3        2.0412    0.2245    0.0902   O.2       1 RES1   0.0000
    32 N2        4.1333    0.9724    0.4854   N.am      1 RES1   0.0000
    33 C27       5.2506    1.3299    1.3416   C.3       1 RES1   0.0000
    34 C28       6.2981    0.2101    1.2877   C.3       1 RES1   0.0000
    35 C29       7.6565    0.6548    1.8269   C.3       1 RES1   0.0000
    36 C30       8.4663    1.5433    0.8657   C.3       1 RES1   0.0000
    37 C31       9.5134    0.7847    0.0340   C.3       1 RES1   0.0000
    38 C32       9.0450    0.2711   -1.3307   C.3       1 RES1   0.0000
    39 C33       8.9194    1.3907   -2.3651   C.3       1 RES1   0.0000
    40 C34       8.7238    0.8462   -3.7744   C.3       1 RES1   0.0000
    41 C35       4.4380    0.9570   -0.9443   C.3       1 RES1   0.0000
    42 C36       3.6610    2.0733   -1.6439   C.3       1 RES1   0.0000
    43 C37       2.4930    1.6011   -2.5009   C.3       1 RES1   0.0000
    44 C38       2.0673    2.6470   -3.5318   C.3       1 RES1   0.0000
    45 C39       3.1800    2.9439   -4.5663   C.3       1 RES1   0.0000
    46 C40       2.6635    2.6285   -5.9787   C.3       1 RES1   0.0000
    47 C41       3.6475    2.8531   -7.1336   C.3       1 RES1   0.0000
    48 C42       3.1982    4.0397   -7.9805   C.3       1 RES1   0.0000
    49 C43       1.3934    3.8881   -2.9278   C.3       1 RES1   0.0000
    50 C44       2.0276    4.6961   -1.7988   C.3       1 RES1   0.0000
    51 C45       1.1188    5.8993   -1.4990   C.3       1 RES1   0.0000
    52 C46       1.8313    7.2203   -1.1750   C.3       1 RES1   0.0000
    53 C47       1.9624    7.5347    0.3153   C.3       1 RES1   0.0000
    54 C48       2.9886    6.6804    1.0488   C.3       1 RES1   0.0000
    55 H1       -3.5124   -1.9866   -3.7301   H         1 RES1   0.0000
    56 H2       -4.2361   -1.0088   -2.4469   H         1 RES1   0.0000
    57 H3       -4.8135   -2.6378   -2.7516   H         1 RES1   0.0000
    58 H4       -2.0238   -1.9516   -1.6685   H         1 RES1   0.0000
    59 H5       -2.6460   -3.5797   -2.0197   H         1 RES1   0.0000
    60 H6       -2.9887   -3.3310    0.3038   H         1 RES1   0.0000
    61 H7       -4.5707   -2.9939   -0.4009   H         1 RES1   0.0000
    62 H8       -3.9619   -0.5190   -0.3144   H         1 RES1   0.0000
    63 H9       -2.5037   -0.9679    0.6107   H         1 RES1   0.0000
    64 H10      -3.8283   -1.6450    2.4848   H         1 RES1   0.0000
    65 H11      -5.2279   -1.9967    1.5046   H         1 RES1   0.0000
    66 H12      -5.8119   -0.0753    2.7505   H         1 RES1   0.0000
    67 H13      -5.5795    0.4268    1.0825   H         1 RES1   0.0000
    68 H14      -4.6440    2.0882    2.5769   H         1 RES1   0.0000
    69 H15      -3.3471    1.3350    1.6600   H         1 RES1   0.0000
    70 H16      -3.4250   -0.3328    3.8407   H         1 RES1   0.0000
    71 H17      -4.0344    1.1494    4.5833   H         1 RES1   0.0000
    72 H18      -2.4449    2.6218    5.4506   H         1 RES1   0.0000
    73 H19      -0.7775    2.0196    5.4544   H         1 RES1   0.0000
    74 H20      -3.2415    0.5410    6.5352   H         1 RES1   0.0000
    75 H21      -1.9287    1.2968    7.4161   H         1 RES1   0.0000
    76 H22      -0.3285   -0.3401    6.4803   H         1 RES1   0.0000
    77 H23      -1.6070   -1.0275    5.4810   H         1 RES1   0.0000
    78 H24      -2.8133   -1.8420    7.3738   H         1 RES1   0.0000
    79 H25      -2.2542   -1.7101    9.6152   H         1 RES1   0.0000
    80 H26      -2.3926   -0.0720    9.0310   H         1 RES1   0.0000
    81 H27       0.2489   -1.5344    9.5097   H         1 RES1   0.0000
    82 H28      -0.5819   -0.5744   10.7177   H         1 RES1   0.0000
    83 H29       0.4168    0.6267    8.1023   H         1 RES1   0.0000
    84 H30       1.3505    0.5406    9.5827   H         1 RES1   0.0000
    85 H31      -1.3753    1.9210    9.4811   H         1 RES1   0.0000
    86 H32       0.1663    2.7516    9.2489   H         1 RES1   0.0000
    87 H33      -0.1893    1.9556   10.7806   H         1 RES1   0.0000
    88 H34      -1.0976   -3.3818    8.3874   H         1 RES1   0.0000
    89 H35       0.1539   -2.5107    7.5216   H         1 RES1   0.0000
    90 H36      -2.2090   -3.6126    6.0072   H         1 RES1   0.0000
    91 H37      -0.9951   -4.7406    6.5771   H         1 RES1   0.0000
    92 H38      -0.1153   -2.3780    4.9041   H         1 RES1   0.0000
    93 H39      -0.8595   -3.8035    4.1760   H         1 RES1   0.0000
    94 H40       1.4092   -4.2857    4.0138   H         1 RES1   0.0000
    95 H41       0.8970   -5.1819    5.4400   H         1 RES1   0.0000
    96 H42       3.0624   -4.1231    5.7701   H         1 RES1   0.0000
    97 H43       1.8960   -3.5110    6.9199   H         1 RES1   0.0000
    98 H44       2.6140   -2.0562    4.3319   H         1 RES1   0.0000
    99 H45       3.4027   -1.7493    5.8836   H         1 RES1   0.0000
   100 H46       1.6937   -1.3993    5.6947   H         1 RES1   0.0000
   101 H47       0.6817    0.6828    4.3187   H         1 RES1   0.0000
   102 H48       0.5636    2.3295    3.6303   H         1 RES1   0.0000
   103 H49       2.9061    0.2341    3.0055   H         1 RES1   0.0000
   104 H50       2.7338    1.9775    2.6245   H         1 RES1   0.0000
   105 H51       4.9135    1.4783    2.3657   H         1 RES1   0.0000
   106 H52       5.6671    2.2746    0.9796   H         1 RES1   0.0000
   107 H53       6.4291   -0.1252    0.2614   H         1 RES1   0.0000
   108 H54       5.9154   -0.6368    1.8599   H         1 RES1   0.0000
   109 H55       8.2380   -0.2401    2.0538   H         1 RES1   0.0000
   110 H56       7.4841    1.1859    2.7637   H         1 RES1   0.0000
   111 H57       9.0006    2.2766    1.4690   H         1 RES1   0.0000
   112 H58       7.8028    2.1050    0.2034   H         1 RES1   0.0000
   113 H59       9.8915   -0.0522    0.6259   H         1 RES1   0.0000
   114 H60      10.3581    1.4523   -0.1481   H         1 RES1   0.0000
   115 H61       8.1009   -0.2763   -1.2436   H         1 RES1   0.0000
   116 H62       9.7932   -0.4383   -1.6896   H         1 RES1   0.0000
   117 H63       9.8350    1.9838   -2.3442   H         1 RES1   0.0000
   118 H64       8.0904    2.0568   -2.1062   H         1 RES1   0.0000
   119 H65       9.5864    0.2579   -4.0743   H         1 RES1   0.0000
   120 H66       8.6164    1.6605   -4.4847   H         1 RES1   0.0000
   121 H67       7.8409    0.2117   -3.8318   H         1 RES1   0.0000
   122 H68       4.2147   -0.0265   -1.3639   H         1 RES1   0.0000
   123 H69       5.5018    1.1515   -1.0575   H         1 RES1   0.0000
   124 H70       4.3504    2.6409   -2.2637   H         1 RES1   0.0000
   125 H71       3.3160    2.7349   -0.8544   H         1 RES1   0.0000
   126 H72       1.6429    1.3399   -1.8561   H         1 RES1   0.0000
   127 H73       2.8028    0.6967   -3.0327   H         1 RES1   0.0000
   128 H74       1.2620    2.1875   -4.1146   H         1 RES1   0.0000
   129 H75       4.0642    2.3378   -4.3686   H         1 RES1   0.0000
   130 H76       3.4985    3.9857   -4.5037   H         1 RES1   0.0000
   131 H77       1.7996    3.2705   -6.1656   H         1 RES1   0.0000
   132 H78       2.3159    1.5937   -6.0063   H         1 RES1   0.0000
   133 H79       3.6738    1.9628   -7.7610   H         1 RES1   0.0000
   134 H80       4.6572    2.9967   -6.7542   H         1 RES1   0.0000
   135 H81       2.3136    3.7494   -8.5451   H         1 RES1   0.0000
   136 H82       3.9617    4.3667   -8.6777   H         1 RES1   0.0000
   137 H83       2.9529    4.8861   -7.3416   H         1 RES1   0.0000
   138 H84       0.3831    3.5952   -2.6050   H         1 RES1   0.0000
   139 H85       1.2646    4.5764   -3.7586   H         1 RES1   0.0000
   140 H86       3.0182    5.0257   -2.1075   H         1 RES1   0.0000
   141 H87       2.1363    4.1205   -0.8821   H         1 RES1   0.0000
   142 H88       0.4398    5.6538   -0.6769   H         1 RES1   0.0000
   143 H89       0.4934    6.0733   -2.3750   H         1 RES1   0.0000
   144 H90       1.2499    8.0305   -1.6181   H         1 RES1   0.0000
   145 H91       2.8211    7.2398   -1.6340   H         1 RES1   0.0000
   146 H92       0.9908    7.4242    0.8048   H         1 RES1   0.0000
   147 H93       2.2540    8.5816    0.4193   H         1 RES1   0.0000
   148 H94       2.7209    5.6236    1.0305   H         1 RES1   0.0000
   149 H95       3.0496    7.0037    2.0858   H         1 RES1   0.0000
   150 H96       3.9714    6.7916    0.5966   H         1 RES1   0.0000
   151 C49      -2.2980    5.6353    4.0581   C.3       1 RES1   0.0000
   152 C50      -1.3527    4.8612    3.1476   C.3       1 RES1   0.0000
   153 C51      -1.5389    5.2304    1.6731   C.3       1 RES1   0.0000
   154 C52      -2.6907    4.4739    1.0088   C.3       1 RES1   0.0000
   155 C53      -2.8984    4.8900   -0.4473   C.3       1 RES1   0.0000
   156 C54      -4.0524    4.1549   -1.1272   C.3       1 RES1   0.0000
   157 C55      -3.8059    2.6475   -1.3000   C.3       1 RES1   0.0000
   158 C56      -3.7841    2.1654   -2.7585   C.3       1 RES1   0.0000
   159 N3       -2.4883    1.8213   -3.3718   N.am      1 RES1   0.0000
   160 C57      -2.4382    2.1467   -4.8038   C.3       1 RES1   0.0000
   161 C58      -2.4479    3.6524   -5.1732   C.3       1 RES1   0.0000
   162 C59      -1.0743    4.3334   -5.0486   C.3       1 RES1   0.0000
   163 C60      -0.8369    5.7196   -5.7357   C.3       1 RES1   0.0000
   164 C61      -1.5005    5.8742   -7.1240   C.3       1 RES1   0.0000
   165 C62      -0.8676    5.1602   -8.3272   C.3       1 RES1   0.0000
   166 C63      -1.2476    3.6916   -8.5309   C.3       1 RES1   0.0000
   167 C64      -2.6398    3.5270   -9.1302   C.3       1 RES1   0.0000
   168 C65       0.6870    6.0293   -5.8606   C.3       1 RES1   0.0000
   169 C66       1.4393    7.0553   -4.9760   C.3       1 RES1   0.0000
   170 C67       2.8830    6.5469   -4.7783   C.3       1 RES1   0.0000
   171 C68       4.0453    7.5085   -5.0030   C.3       1 RES1   0.0000
   172 C69       5.3948    6.7866   -4.8227   C.3       1 RES1   0.0000
   173 C70       5.6880    6.3147   -3.3957   C.3       1 RES1   0.0000
   174 C71      -1.6955    0.9660   -2.7469   C.2       1 RES1   0.0000
   175 O4       -1.7876    0.7192   -1.5183   O.2       1 RES1   0.0000
   176 C72      -0.6275    0.1583   -3.4975   C.3       1 RES1   0.0000
   177 O5        0.1184   -0.5107   -2.4858   O.3       1 RES1   0.0000
   178 C73       0.7320   -1.7373   -2.8573   C.3       1 RES1   0.0000
   179 C74       0.7925   -2.5762   -1.5751   C.2       1 RES1   0.0000
   180 O6        0.2384   -2.1045   -0.5526   O.2       1 RES1   0.0000
   181 N4        1.3656   -3.7599   -1.5600   N.am      1 RES1   0.0000
   182 C75       2.1679   -4.3425   -2.6229   C.3       1 RES1   0.0000
   183 C76       3.6669   -4.1933   -2.3141   C.3       1 RES1   0.0000
   184 C77       4.5350   -5.2121   -3.0627   C.3       1 RES1   0.0000
   185 C78       4.4679   -6.6492   -2.5196   C.3       1 RES1   0.0000
   186 C79       5.6081   -7.0222   -1.5625   C.3       1 RES1   0.0000
   187 C80       5.5450   -6.3940   -0.1676   C.3       1 RES1   0.0000
   188 C81       4.4291   -6.9802    0.6984   C.3       1 RES1   0.0000
   189 C82       4.4055   -6.3711    2.0965   C.3       1 RES1   0.0000
   190 C83       1.2791   -4.5394   -0.3259   C.3       1 RES1   0.0000
   191 C84      -0.1646   -4.9210    0.0348   C.3       1 RES1   0.0000
   192 C85      -0.2212   -6.2534    0.7989   C.3       1 RES1   0.0000
   193 C86      -1.0589   -6.2248    2.0829   C.3       1 RES1   0.0000
   194 C87      -0.7200   -7.4503    2.9465   C.3       1 RES1   0.0000
   195 C88      -0.9558   -8.8247    2.3027   C.3       1 RES1   0.0000
   196 C89       0.2566   -9.7505    2.3943   C.3       1 RES1   0.0000
   197 C90      -0.0386  -11.0911    1.7346   C.3       1 RES1   0.0000
   198 C91      -2.5662   -5.9997    1.8721   C.3       1 RES1   0.0000
   199 C92      -3.3182   -7.0027    0.9995   C.3       1 RES1   0.0000
   200 C93      -4.7686   -6.5635    0.7804   C.3       1 RES1   0.0000
   201 C94      -5.4647   -7.3215   -0.3573   C.3       1 RES1   0.0000
   202 C95      -5.4539   -6.5943   -1.7026   C.3       1 RES1   0.0000
   203 C96      -4.0658   -6.3886   -2.2969   C.3       1 RES1   0.0000
   204 H97      -2.1625    5.3498    5.0982   H         1 RES1   0.0000
   205 H98      -3.3352    5.4671    3.7806   H         1 RES1   0.0000
   206 H99      -2.0913    6.6988    3.9826   H         1 RES1   0.0000
   207 H100     -1.5151    3.7853    3.2639   H         1 RES1   0.0000
   208 H101     -0.3251    5.0777    3.4523   H         1 RES1   0.0000
   209 H102     -0.6055    5.0313    1.1379   H         1 RES1   0.0000
   210 H103     -1.7200    6.3024    1.6052   H         1 RES1   0.0000
   211 H104     -3.6069    4.6693    1.5661   H         1 RES1   0.0000
   212 H105     -2.5056    3.3959    1.0716   H         1 RES1   0.0000
   213 H106     -1.9819    4.7384   -1.0236   H         1 RES1   0.0000
   214 H107     -3.1162    5.9562   -0.4670   H         1 RES1   0.0000
   215 H108     -4.2313    4.6214   -2.0966   H         1 RES1   0.0000
   216 H109     -4.9547    4.3019   -0.5350   H         1 RES1   0.0000
   217 H110     -4.6006    2.0922   -0.8020   H         1 RES1   0.0000
   218 H111     -2.8784    2.3640   -0.8071   H         1 RES1   0.0000
   219 H112     -4.2353    2.9184   -3.4004   H         1 RES1   0.0000
   220 H113     -4.3897    1.2590   -2.8516   H         1 RES1   0.0000
   221 H114     -3.3318    1.6897   -5.2401   H         1 RES1   0.0000
   222 H115     -1.5701    1.6768   -5.2661   H         1 RES1   0.0000
   223 H116     -3.1834    4.2003   -4.5837   H         1 RES1   0.0000
   224 H117     -2.7886    3.6931   -6.2047   H         1 RES1   0.0000
   225 H118     -0.3248    3.6345   -5.4285   H         1 RES1   0.0000
   226 H119     -0.9151    4.4702   -3.9795   H         1 RES1   0.0000
   227 H120     -1.3037    6.4788   -5.0989   H         1 RES1   0.0000
   228 H121     -1.4849    6.9452   -7.3415   H         1 RES1   0.0000
   229 H122     -2.5510    5.5912   -7.0661   H         1 RES1   0.0000
   230 H123      0.2170    5.2381   -8.2854   H         1 RES1   0.0000
   231 H124     -1.1831    5.7062   -9.2163   H         1 RES1   0.0000
   232 H125     -1.1742    3.1431   -7.5916   H         1 RES1   0.0000
   233 H126     -0.5314    3.2334   -9.2165   H         1 RES1   0.0000
   234 H127     -3.4045    3.9924   -8.5105   H         1 RES1   0.0000
   235 H128     -2.8820    2.4730   -9.2533   H         1 RES1   0.0000
   236 H129     -2.6744    3.9967  -10.1098   H         1 RES1   0.0000
   237 H130      0.8842    6.3561   -6.8786   H         1 RES1   0.0000
   238 H131      1.2003    5.0764   -5.7379   H         1 RES1   0.0000
   239 H132      0.9501    7.2059   -4.0118   H         1 RES1   0.0000
   240 H133      1.4672    8.0232   -5.4770   H         1 RES1   0.0000
   241 H134      3.0632    5.7303   -5.4756   H         1 RES1   0.0000
   242 H135      2.9827    6.1584   -3.7749   H         1 RES1   0.0000
   243 H136      3.9857    8.3614   -4.3234   H         1 RES1   0.0000
   244 H137      3.9965    7.8833   -6.0259   H         1 RES1   0.0000
   245 H138      6.1922    7.4630   -5.1378   H         1 RES1   0.0000
   246 H139      5.4401    5.9193   -5.4903   H         1 RES1   0.0000
   247 H140      5.6665    7.1442   -2.6911   H         1 RES1   0.0000
   248 H141      6.6792    5.8625   -3.3682   H         1 RES1   0.0000
   249 H142      4.9714    5.5612   -3.0612   H         1 RES1   0.0000
   250 H143      0.0416    0.7659   -4.1167   H         1 RES1   0.0000
   251 H144     -1.1492   -0.5651   -4.1363   H         1 RES1   0.0000
   252 H145      1.7320   -1.5441   -3.2623   H         1 RES1   0.0000
   253 H146      0.1283   -2.2587   -3.6119   H         1 RES1   0.0000
   254 H147      1.9217   -3.8837   -3.5788   H         1 RES1   0.0000
   255 H148      1.9070   -5.3994   -2.6862   H         1 RES1   0.0000
   256 H149      3.8256   -4.3005   -1.2422   H         1 RES1   0.0000
   257 H150      3.9800   -3.1851   -2.5900   H         1 RES1   0.0000
   258 H151      5.5729   -4.8753   -3.0200   H         1 RES1   0.0000
   259 H152      4.2342   -5.2011   -4.1121   H         1 RES1   0.0000
   260 H153      4.5390   -7.3311   -3.3674   H         1 RES1   0.0000
   261 H154      3.5051   -6.8359   -2.0383   H         1 RES1   0.0000
   262 H155      6.5584   -6.7523   -2.0292   H         1 RES1   0.0000
   263 H156      5.6068   -8.1079   -1.4408   H         1 RES1   0.0000
   264 H157      5.4395   -5.3072   -0.2413   H         1 RES1   0.0000
   265 H158      6.4962   -6.5880    0.3323   H         1 RES1   0.0000
   266 H159      4.5797   -8.0583    0.7833   H         1 RES1   0.0000
   267 H160      3.4590   -6.8220    0.2168   H         1 RES1   0.0000
   268 H161      5.3542   -6.5433    2.5993   H         1 RES1   0.0000
   269 H162      3.6189   -6.8236    2.6969   H         1 RES1   0.0000
   270 H163      4.2334   -5.2948    2.0507   H         1 RES1   0.0000
   271 H164      1.7315   -3.9629    0.4876   H         1 RES1   0.0000
   272 H165      1.8582   -5.4475   -0.4777   H         1 RES1   0.0000
   273 H166     -0.7514   -4.9990   -0.8807   H         1 RES1   0.0000
   274 H167     -0.6017   -4.1176    0.6277   H         1 RES1   0.0000
   275 H168      0.7897   -6.5297    1.1022   H         1 RES1   0.0000
   276 H169     -0.5878   -7.0293    0.1318   H         1 RES1   0.0000
   277 H170     -0.7017   -5.3566    2.6578   H         1 RES1   0.0000
   278 H171     -1.2881   -7.3764    3.8728   H         1 RES1   0.0000
   279 H172      0.3359   -7.3621    3.2163   H         1 RES1   0.0000
   280 H173     -1.2073   -8.7219    1.2488   H         1 RES1   0.0000
   281 H174     -1.7976   -9.3182    2.7886   H         1 RES1   0.0000
   282 H175      0.5224   -9.9207    3.4378   H         1 RES1   0.0000
   283 H176      1.1181   -9.2857    1.9068   H         1 RES1   0.0000
   284 H177     -0.8721  -11.5821    2.2286   H         1 RES1   0.0000
   285 H178      0.8210  -11.7519    1.7903   H         1 RES1   0.0000
   286 H179     -0.2984  -10.9586    0.6873   H         1 RES1   0.0000
   287 H180     -2.7057   -5.0076    1.4274   H         1 RES1   0.0000
   288 H181     -3.0380   -5.9682    2.8573   H         1 RES1   0.0000
   289 H182     -3.3219   -7.9775    1.4807   H         1 RES1   0.0000
   290 H183     -2.8206   -7.1039    0.0365   H         1 RES1   0.0000
   291 H184     -4.8040   -5.4887    0.5805   H         1 RES1   0.0000
   292 H185     -5.3132   -6.7318    1.7099   H         1 RES1   0.0000
   293 H186     -6.5081   -7.4839   -0.0863   H         1 RES1   0.0000
   294 H187     -5.0040   -8.3031   -0.4738   H         1 RES1   0.0000
   295 H188     -5.9454   -5.6244   -1.5932   H         1 RES1   0.0000
   296 H189     -6.0485   -7.1782   -2.4057   H         1 RES1   0.0000
   297 H190     -3.4738   -5.7215   -1.6729   H         1 RES1   0.0000
   298 H191     -4.1448   -5.9519   -3.2910   H         1 RES1   0.0000
   299 H192     -3.5496   -7.3416   -2.3855   H         1 RES1   0.0000
   300 O7       -0.1032    2.4528   -0.1213   O.3       1 RES1   0.0000
   301 H193     -0.5175    3.0354    0.5363   H         1 RES1   0.0000
   302 H194      0.0193    3.0303   -0.8958   H         1 RES1   0.0000
   303 O8       -0.3760   -1.8536    2.0930   O.3       1 RES1   0.0000
   304 H195     -1.1022   -2.4731    2.2573   H         1 RES1   0.0000
   305 H196      0.3617   -2.2032    2.6130   H         1 RES1   0.0000
@<TRIPOS>BOND
     1     1    26    1
     2     1    28    1
     3     1    31    1
     4     1   175    1
     5     1   177    1
     6     1   180    1
     7     1   300    1
     8     1   303    1
     9     2     3    1
    10     2    55    1
    11     2    56    1
    12     2    57    1
    13     3     4    1
    14     3    58    1
    15     3    59    1
    16     4     5    1
    17     4    60    1
    18     4    61    1
    19     5     6    1
    20     5    62    1
    21     5    63    1
    22     6     7    1
    23     6    64    1
    24     6    65    1
    25     7     8    1
    26     7    66    1
    27     7    67    1
    28     8     9    1
    29     8    68    1
    30     8    69    1
    31     9    10    1
    32     9    70    1
    33     9    71    1
    34    10    11    1
    35    10    25    1
    36    11    12    1
    37    11    72    1
    38    11    73    1
    39    12    13    1
    40    12    74    1
    41    12    75    1
    42    13    14    1
    43    13    76    1
    44    13    77    1
    45    14    15    1
    46    14    19    1
    47    14    78    1
    48    15    16    1
    49    15    79    1
    50    15    80    1
    51    16    17    1
    52    16    81    1
    53    16    82    1
    54    17    18    1
    55    17    83    1
    56    17    84    1
    57    18    85    1
    58    18    86    1
    59    18    87    1
    60    19    20    1
    61    19    88    1
    62    19    89    1
    63    20    21    1
    64    20    90    1
    65    20    91    1
    66    21    22    1
    67    21    92    1
    68    21    93    1
    69    22    23    1
    70    22    94    1
    71    22    95    1
    72    23    24    1
    73    23    96    1
    74    23    97    1
    75    24    98    1
    76    24    99    1
    77    24   100    1
    78    25    26    2
    79    25    27    1
    80    27    28    1
    81    27   101    1
    82    27   102    1
    83    28    29    1
    84    29    30    1
    85    29   103    1
    86    29   104    1
    87    30    31    2
    88    30    32    1
    89    32    33    1
    90    32    41    1
    91    33    34    1
    92    33   105    1
    93    33   106    1
    94    34    35    1
    95    34   107    1
    96    34   108    1
    97    35    36    1
    98    35   109    1
    99    35   110    1
   100    36    37    1
   101    36   111    1
   102    36   112    1
   103    37    38    1
   104    37   113    1
   105    37   114    1
   106    38    39    1
   107    38   115    1
   108    38   116    1
   109    39    40    1
   110    39   117    1
   111    39   118    1
   112    40   119    1
   113    40   120    1
   114    40   121    1
   115    41    42    1
   116    41   122    1
   117    41   123    1
   118    42    43    1
   119    42   124    1
   120    42   125    1
   121    43    44    1
   122    43   126    1
   123    43   127    1
   124    44    45    1
   125    44    49    1
   126    44   128    1
   127    45    46    1
   128    45   129    1
   129    45   130    1
   130    46    47    1
   131    46   131    1
   132    46   132    1
   133    47    48    1
   134    47   133    1
   135    47   134    1
   136    48   135    1
   137    48   136    1
   138    48   137    1
   139    49    50    1
   140    49   138    1
   141    49   139    1
   142    50    51    1
   143    50   140    1
   144    50   141    1
   145    51    52    1
   146    51   142    1
   147    51   143    1
   148    52    53    1
   149    52   144    1
   150    52   145    1
   151    53    54    1
   152    53   146    1
   153    53   147    1
   154    54   148    1
   155    54   149    1
   156    54   150    1
   157   151   152    1
   158   151   204    1
   159   151   205    1
   160   151   206    1
   161   152   153    1
   162   152   207    1
   163   152   208    1
   164   153   154    1
   165   153   209    1
   166   153   210    1
   167   154   155    1
   168   154   211    1
   169   154   212    1
   170   155   156    1
   171   155   213    1
   172   155   214    1
   173   156   157    1
   174   156   215    1
   175   156   216    1
   176   157   158    1
   177   157   217    1
   178   157   218    1
   179   158   159    1
   180   158   219    1
   181   158   220    1
   182   159   160    1
   183   159   174    1
   184   160   161    1
   185   160   221    1
   186   160   222    1
   187   161   162    1
   188   161   223    1
   189   161   224    1
   190   162   163    1
   191   162   225    1
   192   162   226    1
   193   163   164    1
   194   163   168    1
   195   163   227    1
   196   164   165    1
   197   164   228    1
   198   164   229    1
   199   165   166    1
   200   165   230    1
   201   165   231    1
   202   166   167    1
   203   166   232    1
   204   166   233    1
   205   167   234    1
   206   167   235    1
   207   167   236    1
   208   168   169    1
   209   168   237    1
   210   168   238    1
   211   169   170    1
   212   169   239    1
   213   169   240    1
   214   170   171    1
   215   170   241    1
   216   170   242    1
   217   171   172    1
   218   171   243    1
   219   171   244    1
   220   172   173    1
   221   172   245    1
   222   172   246    1
   223   173   247    1
   224   173   248    1
   225   173   249    1
   226   174   175    2
   227   174   176    1
   228   176   177    1
   229   176   250    1
   230   176   251    1
   231   177   178    1
   232   178   179    1
   233   178   252    1
   234   178   253    1
   235   179   180    2
   236   179   181    1
   237   181   182    1
   238   181   190    1
   239   182   183    1
   240   182   254    1
   241   182   255    1
   242   183   184    1
   243   183   256    1
   244   183   257    1
   245   184   185    1
   246   184   258    1
   247   184   259    1
   248   185   186    1
   249   185   260    1
   250   185   261    1
   251   186   187    1
   252   186   262    1
   253   186   263    1
   254   187   188    1
   255   187   264    1
   256   187   265    1
   257   188   189    1
   258   188   266    1
   259   188   267    1
   260   189   268    1
   261   189   269    1
   262   189   270    1
   263   190   191    1
   264   190   271    1
   265   190   272    1
   266   191   192    1
   267   191   273    1
   268   191   274    1
   269   192   193    1
   270   192   275    1
   271   192   276    1
   272   193   194    1
   273   193   198    1
   274   193   277    1
   275   194   195    1
   276   194   278    1
   277   194   279    1
   278   195   196    1
   279   195   280    1
   280   195   281    1
   281   196   197    1
   282   196   282    1
   283   196   283    1
   284   197   284    1
   285   197   285    1
   286   197   286    1
   287   198   199    1
   288   198   287    1
   289   198   288    1
   290   199   200    1
   291   199   289    1
   292   199   290    1
   293   200   201    1
   294   200   291    1
   295   200   292    1
   296   201   202    1
   297   201   293    1
   298   201   294    1
   299   202   203    1
   300   202   295    1
   301   202   296    1
   302   203   297    1
   303   203   298    1
   304   203   299    1
   305   300   301    1
   306   300   302    1
   307   303   304    1
   308   303   305    1
@<TRIPOS>SUBSTRUCTURE
     1 RES1      305 GROUP             0 ****  ****    0  
