@<TRIPOS>MOLECULE
ICIGOT_geomtry_0_nunpairedes_0_charge_3 Charge: 3 Unpaired_Electrons: 4 XTB_Unpaired_Electrons: 0 XTB_Charge: 3
   233   236     1     0     0
SMALL
NoCharges
****
Generated from Architector

@<TRIPOS>ATOM
     1 Ho1       0.0459   -0.2580   -0.4674   Ho        1 RES1   0.0000
     2 C1        3.9219    3.9773    1.0728   C.3       1 RES1   0.0000
     3 C2        4.6036    3.4770   -0.1916   C.3       1 RES1   0.0000
     4 C3        3.6156    2.8773   -1.1910   C.3       1 RES1   0.0000
     5 C4        4.3727    2.4151   -2.4304   C.3       1 RES1   0.0000
     6 C5        3.5398    1.7176   -3.5062   C.3       1 RES1   0.0000
     7 C6        4.4500    1.4255   -4.7215   C.3       1 RES1   0.0000
     8 C7        5.6466    0.5191   -4.4572   C.3       1 RES1   0.0000
     9 C8        2.3857    2.5490   -4.0871   C.3       1 RES1   0.0000
    10 N1        1.1843    2.9429   -3.3214   N.am      1 RES1   0.0000
    11 C9        0.6290    4.2067   -3.8208   C.3       1 RES1   0.0000
    12 C10       1.2969    5.5130   -3.2963   C.3       1 RES1   0.0000
    13 C11       2.4390    6.0624   -4.1840   C.3       1 RES1   0.0000
    14 C12       3.8821    5.6691   -3.8432   C.3       1 RES1   0.0000
    15 C13       0.2102    6.6152   -3.1863   C.3       1 RES1   0.0000
    16 C14       0.2430    7.4745   -1.9136   C.3       1 RES1   0.0000
    17 C15       1.4563    8.3913   -1.7002   C.3       1 RES1   0.0000
    18 C16       2.5264    7.7855   -0.7985   C.3       1 RES1   0.0000
    19 C17       0.4998    2.0946   -2.5758   C.2       1 RES1   0.0000
    20 O1        0.9818    1.0422   -2.0885   O.2       1 RES1   0.0000
    21 C18      -1.0099    2.3268   -2.3319   C.3       1 RES1   0.0000
    22 O2       -1.4283    1.2449   -1.4960   O.3       1 RES1   0.0000
    23 C19      -2.8354    1.1624   -1.2761   C.3       1 RES1   0.0000
    24 C20      -3.0491   -0.1462   -0.5094   C.2       1 RES1   0.0000
    25 O3       -2.0560   -0.8980   -0.3833   O.2       1 RES1   0.0000
    26 N2       -4.2302   -0.4925   -0.0229   N.am      1 RES1   0.0000
    27 C21      -5.2768    0.4846    0.2675   C.3       1 RES1   0.0000
    28 C22      -5.9981    1.2348   -0.8634   C.3       1 RES1   0.0000
    29 C23      -7.0680    2.0828   -0.1532   C.3       1 RES1   0.0000
    30 C24      -7.5230    3.2820   -0.9691   C.3       1 RES1   0.0000
    31 C25      -6.6428    0.3031   -1.8923   C.3       1 RES1   0.0000
    32 C26      -5.7107   -0.1597   -3.0132   C.3       1 RES1   0.0000
    33 C27      -5.3620    0.9490   -4.0076   C.3       1 RES1   0.0000
    34 C28      -4.1768    0.5634   -4.8858   C.3       1 RES1   0.0000
    35 C29      -4.2891   -1.7929    0.6692   C.3       1 RES1   0.0000
    36 C30      -4.1001   -3.0296   -0.2288   C.3       1 RES1   0.0000
    37 C31      -3.7723   -4.2620    0.6383   C.3       1 RES1   0.0000
    38 C32      -2.6973   -5.1593    0.0332   C.3       1 RES1   0.0000
    39 C33      -5.3437   -3.2320   -1.1000   C.3       1 RES1   0.0000
    40 C34      -5.1866   -4.2680   -2.2146   C.3       1 RES1   0.0000
    41 C35      -4.0825   -3.9442   -3.2203   C.3       1 RES1   0.0000
    42 C36      -4.0864   -4.9266   -4.3827   C.3       1 RES1   0.0000
    43 H1        4.6601    4.3357    1.7846   H         1 RES1   0.0000
    44 H2        3.2439    4.7954    0.8380   H         1 RES1   0.0000
    45 H3        3.3509    3.1734    1.5369   H         1 RES1   0.0000
    46 H4        5.1281    4.3052   -0.6699   H         1 RES1   0.0000
    47 H5        5.3544    2.7290    0.0642   H         1 RES1   0.0000
    48 H6        3.0681    2.0346   -0.7430   H         1 RES1   0.0000
    49 H7        2.8777    3.6335   -1.4623   H         1 RES1   0.0000
    50 H8        4.8882    3.2743   -2.8614   H         1 RES1   0.0000
    51 H9        5.1451    1.7133   -2.1144   H         1 RES1   0.0000
    52 H10       3.1411    0.7861   -3.0974   H         1 RES1   0.0000
    53 H11       3.8516    0.9752   -5.5161   H         1 RES1   0.0000
    54 H12       4.8303    2.3740   -5.1068   H         1 RES1   0.0000
    55 H13       5.3570   -0.3870   -3.9329   H         1 RES1   0.0000
    56 H14       6.0856    0.2282   -5.4068   H         1 RES1   0.0000
    57 H15       6.4204    1.0166   -3.8817   H         1 RES1   0.0000
    58 H16       2.8053    3.4834   -4.4480   H         1 RES1   0.0000
    59 H17       2.0006    1.9907   -4.9524   H         1 RES1   0.0000
    60 H18       0.6962    4.1887   -4.9110   H         1 RES1   0.0000
    61 H19      -0.4269    4.2384   -3.5669   H         1 RES1   0.0000
    62 H20       1.6819    5.3205   -2.2910   H         1 RES1   0.0000
    63 H21       2.2303    5.8324   -5.2313   H         1 RES1   0.0000
    64 H22       2.3989    7.1470   -4.1015   H         1 RES1   0.0000
    65 H23       4.2248    4.7873   -4.3821   H         1 RES1   0.0000
    66 H24       4.5536    6.4791   -4.1247   H         1 RES1   0.0000
    67 H25       4.0070    5.5069   -2.7742   H         1 RES1   0.0000
    68 H26       0.2681    7.2705   -4.0557   H         1 RES1   0.0000
    69 H27      -0.7849    6.1671   -3.2223   H         1 RES1   0.0000
    70 H28      -0.6522    8.0996   -1.9543   H         1 RES1   0.0000
    71 H29       0.1454    6.8229   -1.0406   H         1 RES1   0.0000
    72 H30       1.8910    8.6772   -2.6574   H         1 RES1   0.0000
    73 H31       1.1092    9.3084   -1.2251   H         1 RES1   0.0000
    74 H32       2.9483    6.8838   -1.2347   H         1 RES1   0.0000
    75 H33       3.3319    8.5005   -0.6474   H         1 RES1   0.0000
    76 H34       2.1079    7.5416    0.1800   H         1 RES1   0.0000
    77 H35      -1.2437    3.2860   -1.8526   H         1 RES1   0.0000
    78 H36      -1.5416    2.2732   -3.2974   H         1 RES1   0.0000
    79 H37      -3.2010    2.0373   -0.7183   H         1 RES1   0.0000
    80 H38      -3.3627    1.0966   -2.2380   H         1 RES1   0.0000
    81 H39      -6.0529   -0.0359    0.8286   H         1 RES1   0.0000
    82 H40      -4.8349    1.2368    0.9328   H         1 RES1   0.0000
    83 H41      -5.3133    1.9195   -1.3647   H         1 RES1   0.0000
    84 H42      -7.9218    1.4465    0.0720   H         1 RES1   0.0000
    85 H43      -6.6705    2.4394    0.7989   H         1 RES1   0.0000
    86 H44      -7.9536    2.9717   -1.9159   H         1 RES1   0.0000
    87 H45      -8.2771    3.8344   -0.4171   H         1 RES1   0.0000
    88 H46      -6.6897    3.9515   -1.1704   H         1 RES1   0.0000
    89 H47      -7.0487   -0.5617   -1.3662   H         1 RES1   0.0000
    90 H48      -7.4870    0.8171   -2.3483   H         1 RES1   0.0000
    91 H49      -4.7913   -0.5701   -2.5867   H         1 RES1   0.0000
    92 H50      -6.2041   -0.9660   -3.5585   H         1 RES1   0.0000
    93 H51      -6.2266    1.1413   -4.6403   H         1 RES1   0.0000
    94 H52      -5.1446    1.8826   -3.4834   H         1 RES1   0.0000
    95 H53      -4.3993   -0.3454   -5.4371   H         1 RES1   0.0000
    96 H54      -3.9601    1.3485   -5.6044   H         1 RES1   0.0000
    97 H55      -3.2778    0.3806   -4.2923   H         1 RES1   0.0000
    98 H56      -3.4928   -1.7860    1.4186   H         1 RES1   0.0000
    99 H57      -5.2480   -1.8730    1.1776   H         1 RES1   0.0000
   100 H58      -3.2425   -2.8326   -0.8744   H         1 RES1   0.0000
   101 H59      -3.4282   -3.9396    1.6227   H         1 RES1   0.0000
   102 H60      -4.6756   -4.8480    0.7962   H         1 RES1   0.0000
   103 H61      -1.7691   -4.6076   -0.1177   H         1 RES1   0.0000
   104 H62      -2.4931   -5.9928    0.6993   H         1 RES1   0.0000
   105 H63      -3.0153   -5.5721   -0.9182   H         1 RES1   0.0000
   106 H64      -6.1782   -3.5325   -0.4625   H         1 RES1   0.0000
   107 H65      -5.6046   -2.2774   -1.5534   H         1 RES1   0.0000
   108 H66      -5.0102   -5.2522   -1.7830   H         1 RES1   0.0000
   109 H67      -6.1344   -4.3252   -2.7513   H         1 RES1   0.0000
   110 H68      -4.2187   -2.9285   -3.5982   H         1 RES1   0.0000
   111 H69      -3.1063   -3.9930   -2.7294   H         1 RES1   0.0000
   112 H70      -5.0300   -4.8827   -4.9153   H         1 RES1   0.0000
   113 H71      -3.2892   -4.7048   -5.0868   H         1 RES1   0.0000
   114 H72      -3.9512   -5.9416   -4.0221   H         1 RES1   0.0000
   115 C37      -0.0360   -2.8342   -5.0250   C.3       1 RES1   0.0000
   116 C38       0.7774   -1.5610   -4.7850   C.3       1 RES1   0.0000
   117 C39       2.2780   -1.8241   -4.6066   C.3       1 RES1   0.0000
   118 C40       2.8057   -1.9350   -3.1643   C.3       1 RES1   0.0000
   119 C41       2.8365   -3.2884   -2.4119   C.3       1 RES1   0.0000
   120 C42       3.2453   -4.4598   -3.3242   C.3       1 RES1   0.0000
   121 C43       3.1325   -5.8365   -2.6704   C.3       1 RES1   0.0000
   122 C44       3.8860   -3.2212   -1.2838   C.3       1 RES1   0.0000
   123 N3        3.5782   -2.7025    0.0569   N.am      1 RES1   0.0000
   124 C45       4.5408   -3.1135    1.0721   C.3       1 RES1   0.0000
   125 C46       5.9192   -2.3905    1.1076   C.3       1 RES1   0.0000
   126 C47       5.9269   -0.9606    0.5423   C.3       1 RES1   0.0000
   127 C48       5.4579    0.1167    1.5375   C.3       1 RES1   0.0000
   128 C49       7.0729   -3.2897    0.5988   C.3       1 RES1   0.0000
   129 C50       7.2543   -3.6482   -0.8809   C.3       1 RES1   0.0000
   130 C51       7.6430   -2.4945   -1.8034   C.3       1 RES1   0.0000
   131 C52       7.9877   -2.9907   -3.2025   C.3       1 RES1   0.0000
   132 C53       2.5238   -1.9835    0.3614   C.2       1 RES1   0.0000
   133 O4        1.6020   -1.7359   -0.4539   O.2       1 RES1   0.0000
   134 C54       2.3522   -1.3518    1.7549   C.3       1 RES1   0.0000
   135 O5        1.4641   -0.2537    1.5215   O.3       1 RES1   0.0000
   136 C55       1.5633    0.8372    2.4435   C.3       1 RES1   0.0000
   137 C56       0.6783    1.9617    1.8769   C.2       1 RES1   0.0000
   138 O6        0.1307    1.7078    0.7703   O.2       1 RES1   0.0000
   139 N4        0.5028    3.1440    2.4578   N.am      1 RES1   0.0000
   140 C57       1.1083    3.7411    3.6655   C.3       1 RES1   0.0000
   141 C58       1.5028    2.9866    4.9547   C.3       1 RES1   0.0000
   142 C59       2.9735    2.5049    4.8740   C.3       1 RES1   0.0000
   143 C60       3.3910    1.3968    5.8318   C.3       1 RES1   0.0000
   144 C61       0.4574    1.9918    5.4840   C.3       1 RES1   0.0000
   145 C62      -0.6892    2.6938    6.2215   C.3       1 RES1   0.0000
   146 C63      -1.6844    1.7316    6.8774   C.3       1 RES1   0.0000
   147 C64      -2.3462    0.7413    5.9216   C.3       1 RES1   0.0000
   148 C65      -0.0092    4.2315    1.5851   C.3       1 RES1   0.0000
   149 C66      -1.4051    4.9155    1.7647   C.3       1 RES1   0.0000
   150 C67      -2.1185    4.8775    3.1283   C.3       1 RES1   0.0000
   151 C68      -2.7760    3.5492    3.4900   C.3       1 RES1   0.0000
   152 C69      -2.4236    4.5187    0.6716   C.3       1 RES1   0.0000
   153 C70      -2.4283    5.4717   -0.5305   C.3       1 RES1   0.0000
   154 C71      -3.7627    5.5115   -1.2955   C.3       1 RES1   0.0000
   155 C72      -3.7957    4.7413   -2.6075   C.3       1 RES1   0.0000
   156 H73      -1.1035   -2.6468   -4.9312   H         1 RES1   0.0000
   157 H74       0.1393   -3.1894   -6.0368   H         1 RES1   0.0000
   158 H75       0.2501   -3.6411   -4.3530   H         1 RES1   0.0000
   159 H76       0.6416   -0.9231   -5.6605   H         1 RES1   0.0000
   160 H77       0.3981   -0.9876   -3.9273   H         1 RES1   0.0000
   161 H78       2.5565   -2.6983   -5.1880   H         1 RES1   0.0000
   162 H79       2.8093   -0.9836   -5.0528   H         1 RES1   0.0000
   163 H80       3.8455   -1.6080   -3.2196   H         1 RES1   0.0000
   164 H81       2.2663   -1.2026   -2.5471   H         1 RES1   0.0000
   165 H82       1.8604   -3.5223   -1.9797   H         1 RES1   0.0000
   166 H83       2.5988   -4.4699   -4.2002   H         1 RES1   0.0000
   167 H84       4.2661   -4.3014   -3.6760   H         1 RES1   0.0000
   168 H85       2.1308   -6.0024   -2.2785   H         1 RES1   0.0000
   169 H86       3.3348   -6.6077   -3.4096   H         1 RES1   0.0000
   170 H87       3.8419   -5.9843   -1.8591   H         1 RES1   0.0000
   171 H88       4.2349   -4.2393   -1.1154   H         1 RES1   0.0000
   172 H89       4.7428   -2.6451   -1.6463   H         1 RES1   0.0000
   173 H90       4.0636   -3.0167    2.0451   H         1 RES1   0.0000
   174 H91       4.7359   -4.1788    0.9300   H         1 RES1   0.0000
   175 H92       6.1519   -2.2896    2.1747   H         1 RES1   0.0000
   176 H93       6.9558   -0.7367    0.2671   H         1 RES1   0.0000
   177 H94       5.3205   -0.8839   -0.3605   H         1 RES1   0.0000
   178 H95       5.4037   -0.2695    2.5559   H         1 RES1   0.0000
   179 H96       6.1599    0.9468    1.5543   H         1 RES1   0.0000
   180 H97       4.4881    0.5254    1.2519   H         1 RES1   0.0000
   181 H98       8.0011   -2.8226    0.9321   H         1 RES1   0.0000
   182 H99       6.9890   -4.2317    1.1482   H         1 RES1   0.0000
   183 H100      8.0718   -4.3718   -0.9092   H         1 RES1   0.0000
   184 H101      6.3826   -4.1662   -1.2777   H         1 RES1   0.0000
   185 H102      6.8360   -1.7632   -1.8794   H         1 RES1   0.0000
   186 H103      8.5120   -1.9861   -1.3847   H         1 RES1   0.0000
   187 H104      7.1346   -3.4870   -3.6608   H         1 RES1   0.0000
   188 H105      8.2840   -2.1608   -3.8383   H         1 RES1   0.0000
   189 H106      8.8108   -3.6976   -3.1660   H         1 RES1   0.0000
   190 H107      1.8921   -2.0768    2.4415   H         1 RES1   0.0000
   191 H108      3.3029   -1.0036    2.1586   H         1 RES1   0.0000
   192 H109      1.2697    0.5260    3.4530   H         1 RES1   0.0000
   193 H110      2.6054    1.1856    2.4788   H         1 RES1   0.0000
   194 H111      2.0052    4.2786    3.3346   H         1 RES1   0.0000
   195 H112      0.3724    4.4903    3.9550   H         1 RES1   0.0000
   196 H113      1.5164    3.7891    5.7031   H         1 RES1   0.0000
   197 H114      3.2321    2.2137    3.8571   H         1 RES1   0.0000
   198 H115      3.5921    3.3745    5.0956   H         1 RES1   0.0000
   199 H116      2.9152    0.4456    5.6002   H         1 RES1   0.0000
   200 H117      4.4666    1.2639    5.7558   H         1 RES1   0.0000
   201 H118      3.1670    1.6656    6.8601   H         1 RES1   0.0000
   202 H119      0.0397    1.3878    4.6771   H         1 RES1   0.0000
   203 H120      0.9441    1.3275    6.1972   H         1 RES1   0.0000
   204 H121     -0.2717    3.3220    7.0092   H         1 RES1   0.0000
   205 H122     -1.2223    3.3518    5.5389   H         1 RES1   0.0000
   206 H123     -1.1805    1.1769    7.6695   H         1 RES1   0.0000
   207 H124     -2.4646    2.3317    7.3490   H         1 RES1   0.0000
   208 H125     -1.6124    0.0632    5.4856   H         1 RES1   0.0000
   209 H126     -3.0709    0.1427    6.4675   H         1 RES1   0.0000
   210 H127     -2.8750    1.2619    5.1249   H         1 RES1   0.0000
   211 H128      0.7434    5.0194    1.6724   H         1 RES1   0.0000
   212 H129      0.0351    3.8577    0.5605   H         1 RES1   0.0000
   213 H130     -1.1840    5.9762    1.6013   H         1 RES1   0.0000
   214 H131     -1.4426    5.1889    3.9268   H         1 RES1   0.0000
   215 H132     -2.8999    5.6416    3.0737   H         1 RES1   0.0000
   216 H133     -2.0576    2.7357    3.4208   H         1 RES1   0.0000
   217 H134     -3.1649    3.6112    4.5041   H         1 RES1   0.0000
   218 H135     -3.6117    3.3270    2.8301   H         1 RES1   0.0000
   219 H136     -2.2636    3.4771    0.3723   H         1 RES1   0.0000
   220 H137     -3.4165    4.5931    1.1142   H         1 RES1   0.0000
   221 H138     -2.2592    6.4773   -0.1501   H         1 RES1   0.0000
   222 H139     -1.6051    5.2580   -1.2167   H         1 RES1   0.0000
   223 H140     -4.5683    5.1453   -0.6575   H         1 RES1   0.0000
   224 H141     -3.9790    6.5498   -1.5366   H         1 RES1   0.0000
   225 H142     -3.6868    3.6644   -2.4853   H         1 RES1   0.0000
   226 H143     -4.7539    4.9225   -3.0898   H         1 RES1   0.0000
   227 H144     -3.0201    5.0990   -3.2786   H         1 RES1   0.0000
   228 O7       -1.1616   -0.4153    2.0902   O.3       1 RES1   0.0000
   229 H145     -1.4980   -1.1911    2.5528   H         1 RES1   0.0000
   230 H146     -1.6250    0.3432    2.4757   H         1 RES1   0.0000
   231 O8       -0.5550   -2.1451   -2.0521   O.3       1 RES1   0.0000
   232 H147      0.0631   -2.6101   -2.6404   H         1 RES1   0.0000
   233 H148     -1.3939   -2.6226   -2.1322   H         1 RES1   0.0000
@<TRIPOS>BOND
     1     1    20    1
     2     1    22    1
     3     1    25    1
     4     1   133    1
     5     1   135    1
     6     1   138    1
     7     1   228    1
     8     1   231    1
     9     2     3    1
    10     2    43    1
    11     2    44    1
    12     2    45    1
    13     3     4    1
    14     3    46    1
    15     3    47    1
    16     4     5    1
    17     4    48    1
    18     4    49    1
    19     5     6    1
    20     5    50    1
    21     5    51    1
    22     6     7    1
    23     6     9    1
    24     6    52    1
    25     7     8    1
    26     7    53    1
    27     7    54    1
    28     8    55    1
    29     8    56    1
    30     8    57    1
    31     9    10    1
    32     9    58    1
    33     9    59    1
    34    10    11    1
    35    10    19    1
    36    11    12    1
    37    11    60    1
    38    11    61    1
    39    12    13    1
    40    12    15    1
    41    12    62    1
    42    13    14    1
    43    13    63    1
    44    13    64    1
    45    14    65    1
    46    14    66    1
    47    14    67    1
    48    15    16    1
    49    15    68    1
    50    15    69    1
    51    16    17    1
    52    16    70    1
    53    16    71    1
    54    17    18    1
    55    17    72    1
    56    17    73    1
    57    18    74    1
    58    18    75    1
    59    18    76    1
    60    19    20    2
    61    19    21    1
    62    21    22    1
    63    21    77    1
    64    21    78    1
    65    22    23    1
    66    23    24    1
    67    23    79    1
    68    23    80    1
    69    24    25    2
    70    24    26    1
    71    26    27    1
    72    26    35    1
    73    27    28    1
    74    27    81    1
    75    27    82    1
    76    28    29    1
    77    28    31    1
    78    28    83    1
    79    29    30    1
    80    29    84    1
    81    29    85    1
    82    30    86    1
    83    30    87    1
    84    30    88    1
    85    31    32    1
    86    31    89    1
    87    31    90    1
    88    32    33    1
    89    32    91    1
    90    32    92    1
    91    33    34    1
    92    33    93    1
    93    33    94    1
    94    34    95    1
    95    34    96    1
    96    34    97    1
    97    35    36    1
    98    35    98    1
    99    35    99    1
   100    36    37    1
   101    36    39    1
   102    36   100    1
   103    37    38    1
   104    37   101    1
   105    37   102    1
   106    38   103    1
   107    38   104    1
   108    38   105    1
   109    39    40    1
   110    39   106    1
   111    39   107    1
   112    40    41    1
   113    40   108    1
   114    40   109    1
   115    41    42    1
   116    41   110    1
   117    41   111    1
   118    42   112    1
   119    42   113    1
   120    42   114    1
   121   115   116    1
   122   115   156    1
   123   115   157    1
   124   115   158    1
   125   116   117    1
   126   116   159    1
   127   116   160    1
   128   117   118    1
   129   117   161    1
   130   117   162    1
   131   118   119    1
   132   118   163    1
   133   118   164    1
   134   119   120    1
   135   119   122    1
   136   119   165    1
   137   120   121    1
   138   120   166    1
   139   120   167    1
   140   121   168    1
   141   121   169    1
   142   121   170    1
   143   122   123    1
   144   122   171    1
   145   122   172    1
   146   123   124    1
   147   123   132    1
   148   124   125    1
   149   124   173    1
   150   124   174    1
   151   125   126    1
   152   125   128    1
   153   125   175    1
   154   126   127    1
   155   126   176    1
   156   126   177    1
   157   127   178    1
   158   127   179    1
   159   127   180    1
   160   128   129    1
   161   128   181    1
   162   128   182    1
   163   129   130    1
   164   129   183    1
   165   129   184    1
   166   130   131    1
   167   130   185    1
   168   130   186    1
   169   131   187    1
   170   131   188    1
   171   131   189    1
   172   132   133    2
   173   132   134    1
   174   134   135    1
   175   134   190    1
   176   134   191    1
   177   135   136    1
   178   136   137    1
   179   136   192    1
   180   136   193    1
   181   137   138    2
   182   137   139    1
   183   139   140    1
   184   139   148    1
   185   140   141    1
   186   140   194    1
   187   140   195    1
   188   141   142    1
   189   141   144    1
   190   141   196    1
   191   142   143    1
   192   142   197    1
   193   142   198    1
   194   143   199    1
   195   143   200    1
   196   143   201    1
   197   144   145    1
   198   144   202    1
   199   144   203    1
   200   145   146    1
   201   145   204    1
   202   145   205    1
   203   146   147    1
   204   146   206    1
   205   146   207    1
   206   147   208    1
   207   147   209    1
   208   147   210    1
   209   148   149    1
   210   148   211    1
   211   148   212    1
   212   149   150    1
   213   149   152    1
   214   149   213    1
   215   150   151    1
   216   150   214    1
   217   150   215    1
   218   151   216    1
   219   151   217    1
   220   151   218    1
   221   152   153    1
   222   152   219    1
   223   152   220    1
   224   153   154    1
   225   153   221    1
   226   153   222    1
   227   154   155    1
   228   154   223    1
   229   154   224    1
   230   155   225    1
   231   155   226    1
   232   155   227    1
   233   228   229    1
   234   228   230    1
   235   231   232    1
   236   231   233    1
@<TRIPOS>SUBSTRUCTURE
     1 RES1      233 GROUP             0 ****  ****    0  
