@<TRIPOS>MOLECULE
dodecahedral_0_nunpairedes_0_charge_2 Charge: 2 Unpaired_Electrons: 4 XTB_Unpaired_Electrons: 0 XTB_Charge: 2
   327   331     1     0     0
SMALL
NoCharges
****
Generated from Architector

@<TRIPOS>ATOM
     1 Ho1       0.4963    0.2482    0.2326   Ho        1 RES1   0.0000
     2 C1        9.5582    0.2309    0.2812   C.3       1 RES1   0.0000
     3 C2        9.0759   -1.2122    0.3600   C.3       1 RES1   0.0000
     4 C3        8.7516   -1.5873    1.8014   C.3       1 RES1   0.0000
     5 C4        8.2351   -3.0149    1.9892   C.3       1 RES1   0.0000
     6 C5        6.9793   -3.3772    1.1715   C.3       1 RES1   0.0000
     7 C6        5.7056   -3.6890    1.9794   C.3       1 RES1   0.0000
     8 C7        4.6181   -2.6141    1.8586   C.3       1 RES1   0.0000
     9 C8        4.9684   -1.2928    2.5527   C.3       1 RES1   0.0000
    10 C9        4.3558   -0.0390    1.9021   C.3       1 RES1   0.0000
    11 C10       5.3151    0.6885    0.9347   C.3       1 RES1   0.0000
    12 C11       4.7608    0.8995   -0.4777   C.3       1 RES1   0.0000
    13 C12       4.8411   -0.4083   -1.2711   C.3       1 RES1   0.0000
    14 N1        3.8483   -0.5340   -2.3330   N.am      1 RES1   0.0000
    15 C13       4.3356   -0.3696   -3.6905   C.3       1 RES1   0.0000
    16 C14       4.7385    1.0909   -3.9226   C.3       1 RES1   0.0000
    17 C15       5.1850    1.3738   -5.3605   C.3       1 RES1   0.0000
    18 C16       6.1186    2.5933   -5.4704   C.3       1 RES1   0.0000
    19 C17       7.6218    2.2711   -5.4279   C.3       1 RES1   0.0000
    20 C18       8.2580    2.1135   -4.0322   C.3       1 RES1   0.0000
    21 C19       9.0852    0.8328   -3.8990   C.3       1 RES1   0.0000
    22 C20       8.2084   -0.4108   -3.7816   C.3       1 RES1   0.0000
    23 C21       9.0133   -1.7056   -3.8322   C.3       1 RES1   0.0000
    24 C22       8.1441   -2.9581   -3.7020   C.3       1 RES1   0.0000
    25 C23       7.2751   -3.2284   -4.9300   C.3       1 RES1   0.0000
    26 C24       6.4869   -4.5244   -4.7874   C.3       1 RES1   0.0000
    27 C25       2.5933   -0.6863   -1.9537   C.2       1 RES1   0.0000
    28 O1        2.2760   -0.6369   -0.7397   O.2       1 RES1   0.0000
    29 C26       1.4803   -0.9942   -2.9567   C.3       1 RES1   0.0000
    30 O2        0.2302   -0.7010   -2.3321   O.3       1 RES1   0.0000
    31 C27      -0.5200    0.2712   -3.0657   C.3       1 RES1   0.0000
    32 C28       0.2427    1.5937   -2.9623   C.2       1 RES1   0.0000
    33 O3        0.7739    1.8092   -1.8431   O.2       1 RES1   0.0000
    34 N2        0.3823    2.3970   -4.0117   N.am      1 RES1   0.0000
    35 C29      -0.1115    2.2586   -5.3939   C.3       1 RES1   0.0000
    36 C30      -0.8372    1.0611   -5.9982   C.3       1 RES1   0.0000
    37 C31      -1.0320    1.2896   -7.5116   C.3       1 RES1   0.0000
    38 C32      -1.8129    2.5522   -7.9044   C.3       1 RES1   0.0000
    39 C33      -0.9288    3.7493   -8.2571   C.3       1 RES1   0.0000
    40 C34      -1.7423    4.9599   -8.7231   C.3       1 RES1   0.0000
    41 C35      -0.9310    6.2465   -8.5665   C.3       1 RES1   0.0000
    42 C36      -1.5421    7.4661   -9.2589   C.3       1 RES1   0.0000
    43 C37      -2.9791    7.8027   -8.8526   C.3       1 RES1   0.0000
    44 C38      -3.1462    8.0702   -7.3576   C.3       1 RES1   0.0000
    45 C39      -4.4889    8.7215   -7.0348   C.3       1 RES1   0.0000
    46 C40      -4.6482    8.9874   -5.5426   C.3       1 RES1   0.0000
    47 C41       1.2031    3.6265   -3.8111   C.3       1 RES1   0.0000
    48 C42       1.0944    4.6956   -4.9073   C.3       1 RES1   0.0000
    49 C43       2.2352    5.7277   -4.9825   C.3       1 RES1   0.0000
    50 C44       2.0608    7.0533   -4.2384   C.3       1 RES1   0.0000
    51 C45       0.7270    7.7673   -4.5010   C.3       1 RES1   0.0000
    52 C46      -0.3943    7.3175   -3.5445   C.3       1 RES1   0.0000
    53 C47      -1.6850    6.8737   -4.2434   C.3       1 RES1   0.0000
    54 C48      -2.3948    5.7471   -3.4837   C.3       1 RES1   0.0000
    55 C49      -3.2959    4.8981   -4.3817   C.3       1 RES1   0.0000
    56 C50      -3.6892    3.5466   -3.7729   C.3       1 RES1   0.0000
    57 C51      -4.7253    3.6026   -2.6429   C.3       1 RES1   0.0000
    58 C52      -4.1380    3.7902   -1.2475   C.3       1 RES1   0.0000
    59 H1        9.7001    0.5455   -0.7508   H         1 RES1   0.0000
    60 H2       10.5054    0.3445    0.8018   H         1 RES1   0.0000
    61 H3        8.8389    0.9026    0.7505   H         1 RES1   0.0000
    62 H4        9.8442   -1.8793   -0.0317   H         1 RES1   0.0000
    63 H5        8.1982   -1.3265   -0.2780   H         1 RES1   0.0000
    64 H6        8.0338   -0.8676    2.2010   H         1 RES1   0.0000
    65 H7        9.6654   -1.4820    2.3883   H         1 RES1   0.0000
    66 H8        8.0431   -3.1647    3.0534   H         1 RES1   0.0000
    67 H9        9.0434   -3.6935    1.7128   H         1 RES1   0.0000
    68 H10       7.2234   -4.2505    0.5616   H         1 RES1   0.0000
    69 H11       6.7541   -2.5637    0.4840   H         1 RES1   0.0000
    70 H12       5.9600   -3.8368    3.0275   H         1 RES1   0.0000
    71 H13       5.2743   -4.6301    1.6209   H         1 RES1   0.0000
    72 H14       3.6863   -3.0036    2.2761   H         1 RES1   0.0000
    73 H15       4.4276   -2.4487    0.7995   H         1 RES1   0.0000
    74 H16       6.0509   -1.1911    2.5788   H         1 RES1   0.0000
    75 H17       4.6480   -1.3300    3.5966   H         1 RES1   0.0000
    76 H18       4.0833    0.6532    2.7002   H         1 RES1   0.0000
    77 H19       3.4201   -0.3158    1.3897   H         1 RES1   0.0000
    78 H20       6.2448    0.1258    0.8486   H         1 RES1   0.0000
    79 H21       5.5727    1.6631    1.3532   H         1 RES1   0.0000
    80 H22       5.3408    1.6766   -0.9790   H         1 RES1   0.0000
    81 H23       3.7180    1.2356   -0.4213   H         1 RES1   0.0000
    82 H24       4.6601   -1.2326   -0.5802   H         1 RES1   0.0000
    83 H25       5.8287   -0.5320   -1.7155   H         1 RES1   0.0000
    84 H26       3.5873   -0.6917   -4.4110   H         1 RES1   0.0000
    85 H27       5.2109   -1.0112   -3.8149   H         1 RES1   0.0000
    86 H28       5.5609    1.3332   -3.2529   H         1 RES1   0.0000
    87 H29       3.8965    1.7373   -3.6594   H         1 RES1   0.0000
    88 H30       4.3049    1.5375   -5.9860   H         1 RES1   0.0000
    89 H31       5.7007    0.4997   -5.7585   H         1 RES1   0.0000
    90 H32       5.8832    3.3131   -4.6851   H         1 RES1   0.0000
    91 H33       5.9232    3.0819   -6.4262   H         1 RES1   0.0000
    92 H34       8.1440    3.0793   -5.9448   H         1 RES1   0.0000
    93 H35       7.7991    1.3674   -6.0155   H         1 RES1   0.0000
    94 H36       7.4927    2.1275   -3.2545   H         1 RES1   0.0000
    95 H37       8.9133    2.9640   -3.8389   H         1 RES1   0.0000
    96 H38       9.7277    0.9001   -3.0178   H         1 RES1   0.0000
    97 H39       9.7386    0.7412   -4.7683   H         1 RES1   0.0000
    98 H40       7.4839   -0.4067   -4.5958   H         1 RES1   0.0000
    99 H41       7.6620   -0.3655   -2.8341   H         1 RES1   0.0000
   100 H42       9.7463   -1.6970   -3.0231   H         1 RES1   0.0000
   101 H43       9.5623   -1.7493   -4.7743   H         1 RES1   0.0000
   102 H44       7.5074   -2.8731   -2.8153   H         1 RES1   0.0000
   103 H45       8.7973   -3.8195   -3.5516   H         1 RES1   0.0000
   104 H46       7.9170   -3.2921   -5.8102   H         1 RES1   0.0000
   105 H47       6.5782   -2.4010   -5.0927   H         1 RES1   0.0000
   106 H48       7.1636   -5.3685   -4.6896   H         1 RES1   0.0000
   107 H49       5.8601   -4.6886   -5.6598   H         1 RES1   0.0000
   108 H50       5.8511   -4.4977   -3.9041   H         1 RES1   0.0000
   109 H51       1.5042   -2.0682   -3.1863   H         1 RES1   0.0000
   110 H52       1.5875   -0.4223   -3.8796   H         1 RES1   0.0000
   111 H53      -1.4883    0.3751   -2.5580   H         1 RES1   0.0000
   112 H54      -0.6770   -0.0918   -4.0749   H         1 RES1   0.0000
   113 H55       0.7762    2.3893   -6.0174   H         1 RES1   0.0000
   114 H56      -0.7752    3.1107   -5.5377   H         1 RES1   0.0000
   115 H57      -1.8173    0.9198   -5.5443   H         1 RES1   0.0000
   116 H58      -0.2502    0.1456   -5.9155   H         1 RES1   0.0000
   117 H59      -1.5635    0.4141   -7.8849   H         1 RES1   0.0000
   118 H60      -0.0585    1.3021   -8.0060   H         1 RES1   0.0000
   119 H61      -2.4962    2.8273   -7.0964   H         1 RES1   0.0000
   120 H62      -2.4292    2.3332   -8.7778   H         1 RES1   0.0000
   121 H63      -0.2279    3.4626   -9.0420   H         1 RES1   0.0000
   122 H64      -0.3356    4.0531   -7.3947   H         1 RES1   0.0000
   123 H65      -2.6551    5.0301   -8.1285   H         1 RES1   0.0000
   124 H66      -2.0333    4.8324   -9.7667   H         1 RES1   0.0000
   125 H67       0.0644    6.0860   -8.9896   H         1 RES1   0.0000
   126 H68      -0.8024    6.4592   -7.5017   H         1 RES1   0.0000
   127 H69      -1.5181    7.3034  -10.3388   H         1 RES1   0.0000
   128 H70      -0.9058    8.3296   -9.0439   H         1 RES1   0.0000
   129 H71      -3.6501    6.9964   -9.1565   H         1 RES1   0.0000
   130 H72      -3.2759    8.6976   -9.4051   H         1 RES1   0.0000
   131 H73      -2.3422    8.7277   -7.0165   H         1 RES1   0.0000
   132 H74      -3.0718    7.1321   -6.8050   H         1 RES1   0.0000
   133 H75      -5.2986    8.0742   -7.3780   H         1 RES1   0.0000
   134 H76      -4.5687    9.6644   -7.5782   H         1 RES1   0.0000
   135 H77      -4.6484    8.0532   -4.9831   H         1 RES1   0.0000
   136 H78      -5.5836    9.5036   -5.3430   H         1 RES1   0.0000
   137 H79      -3.8324    9.6103   -5.1790   H         1 RES1   0.0000
   138 H80       2.2440    3.3006   -3.7242   H         1 RES1   0.0000
   139 H81       0.9082    4.0365   -2.8430   H         1 RES1   0.0000
   140 H82       0.1429    5.2080   -4.8158   H         1 RES1   0.0000
   141 H83       1.1219    4.2246   -5.8871   H         1 RES1   0.0000
   142 H84       2.3478    5.9773   -6.0402   H         1 RES1   0.0000
   143 H85       3.1671    5.2570   -4.6637   H         1 RES1   0.0000
   144 H86       2.8793    7.6987   -4.5660   H         1 RES1   0.0000
   145 H87       2.1843    6.9105   -3.1712   H         1 RES1   0.0000
   146 H88       0.4342    7.5970   -5.5388   H         1 RES1   0.0000
   147 H89       0.8852    8.8436   -4.3998   H         1 RES1   0.0000
   148 H90      -0.6202    8.1186   -2.8414   H         1 RES1   0.0000
   149 H91      -0.0237    6.4828   -2.9480   H         1 RES1   0.0000
   150 H92      -1.4531    6.5242   -5.2531   H         1 RES1   0.0000
   151 H93      -2.3586    7.7198   -4.3595   H         1 RES1   0.0000
   152 H94      -2.9836    6.1765   -2.6736   H         1 RES1   0.0000
   153 H95      -1.6429    5.0898   -3.0315   H         1 RES1   0.0000
   154 H96      -2.7610    4.6988   -5.3169   H         1 RES1   0.0000
   155 H97      -4.1969    5.4550   -4.6462   H         1 RES1   0.0000
   156 H98      -2.7882    3.0388   -3.4106   H         1 RES1   0.0000
   157 H99      -4.1072    2.9374   -4.5793   H         1 RES1   0.0000
   158 H100     -5.2860    2.6649   -2.6454   H         1 RES1   0.0000
   159 H101     -5.4360    4.4049   -2.8454   H         1 RES1   0.0000
   160 H102     -3.4248    2.9996   -1.0143   H         1 RES1   0.0000
   161 H103     -4.9370    3.7547   -0.5104   H         1 RES1   0.0000
   162 H104     -3.6369    4.7481   -1.1507   H         1 RES1   0.0000
   163 C53       5.9559    8.1828    2.3282   C.3       1 RES1   0.0000
   164 C54       4.4867    8.4497    2.6335   C.3       1 RES1   0.0000
   165 C55       3.7322    8.9370    1.3955   C.3       1 RES1   0.0000
   166 C56       2.2100    8.8496    1.5304   C.3       1 RES1   0.0000
   167 C57       1.6637    7.4209    1.6771   C.3       1 RES1   0.0000
   168 C58       1.0442    6.8000    0.4269   C.3       1 RES1   0.0000
   169 C59       1.9949    6.5773   -0.7464   C.3       1 RES1   0.0000
   170 C60       3.3058    5.8218   -0.5157   C.3       1 RES1   0.0000
   171 C61       3.1700    4.3569   -0.0653   C.3       1 RES1   0.0000
   172 C62       3.6852    4.1088    1.3609   C.3       1 RES1   0.0000
   173 C63       2.8052    3.1535    2.1686   C.3       1 RES1   0.0000
   174 C64       1.5394    3.8822    2.6224   C.3       1 RES1   0.0000
   175 N3        0.5402    3.0280    3.2567   N.am      1 RES1   0.0000
   176 C65       0.4843    3.1244    4.7044   C.3       1 RES1   0.0000
   177 C66       1.8391    2.7295    5.3023   C.3       1 RES1   0.0000
   178 C67       1.8172    2.6908    6.8308   C.3       1 RES1   0.0000
   179 C68       3.2237    2.7236    7.4548   C.3       1 RES1   0.0000
   180 C69       3.7840    4.1232    7.7575   C.3       1 RES1   0.0000
   181 C70       4.4713    4.8639    6.5924   C.3       1 RES1   0.0000
   182 C71       3.9726    6.3018    6.4303   C.3       1 RES1   0.0000
   183 C72       2.5439    6.3627    5.8968   C.3       1 RES1   0.0000
   184 C73       1.9396    7.7602    5.9931   C.3       1 RES1   0.0000
   185 C74       0.5357    7.8425    5.3934   C.3       1 RES1   0.0000
   186 C75      -0.5354    7.0921    6.1820   C.3       1 RES1   0.0000
   187 C76      -1.8962    7.2112    5.5065   C.3       1 RES1   0.0000
   188 C77      -0.1405    2.2242    2.4594   C.2       1 RES1   0.0000
   189 O4        0.1524    2.1308    1.2410   O.2       1 RES1   0.0000
   190 C78      -1.3789    1.4616    2.9144   C.3       1 RES1   0.0000
   191 O5       -1.4765    0.2547    2.1614   O.3       1 RES1   0.0000
   192 C79      -1.3212   -0.9002    2.9728   C.3       1 RES1   0.0000
   193 C80       0.1405   -0.9954    3.4180   C.2       1 RES1   0.0000
   194 O6        0.9798   -0.4710    2.6386   O.2       1 RES1   0.0000
   195 N4        0.4784   -1.5648    4.5665   N.am      1 RES1   0.0000
   196 C81      -0.3502   -2.2139    5.5955   C.3       1 RES1   0.0000
   197 C82      -1.8637   -2.0554    5.7279   C.3       1 RES1   0.0000
   198 C83      -2.3507   -2.5465    7.1078   C.3       1 RES1   0.0000
   199 C84      -1.9019   -3.9573    7.5148   C.3       1 RES1   0.0000
   200 C85      -0.6527   -3.9735    8.3991   C.3       1 RES1   0.0000
   201 C86      -0.1409   -5.3917    8.6645   C.3       1 RES1   0.0000
   202 C87       1.3330   -5.3706    9.0785   C.3       1 RES1   0.0000
   203 C88       1.8029   -6.6424    9.7873   C.3       1 RES1   0.0000
   204 C89       1.6415   -7.9349    8.9836   C.3       1 RES1   0.0000
   205 C90       2.6230   -8.0511    7.8191   C.3       1 RES1   0.0000
   206 C91       2.4387   -9.3527    7.0424   C.3       1 RES1   0.0000
   207 C92       3.4043   -9.4563    5.8679   C.3       1 RES1   0.0000
   208 C93       1.9381   -1.7261    4.7846   C.3       1 RES1   0.0000
   209 C94       2.3577   -2.2460    6.1595   C.3       1 RES1   0.0000
   210 C95       3.8722   -2.3527    6.3668   C.3       1 RES1   0.0000
   211 C96       4.5871   -3.4575    5.5813   C.3       1 RES1   0.0000
   212 C97       4.0043   -4.8758    5.7252   C.3       1 RES1   0.0000
   213 C98       3.2467   -5.3550    4.4705   C.3       1 RES1   0.0000
   214 C99       1.8064   -5.8232    4.7031   C.3       1 RES1   0.0000
   215 C100      0.9643   -5.6881    3.4319   C.3       1 RES1   0.0000
   216 C101     -0.5237   -5.9208    3.6832   C.3       1 RES1   0.0000
   217 C102     -1.4264   -5.5396    2.5051   C.3       1 RES1   0.0000
   218 C103     -1.4019   -6.4993    1.3084   C.3       1 RES1   0.0000
   219 C104     -0.3687   -6.1432    0.2448   C.3       1 RES1   0.0000
   220 H105      6.4791    7.8447    3.2197   H         1 RES1   0.0000
   221 H106      6.4403    9.0865    1.9692   H         1 RES1   0.0000
   222 H107      6.0601    7.4178    1.5592   H         1 RES1   0.0000
   223 H108      4.4083    9.1992    3.4224   H         1 RES1   0.0000
   224 H109      4.0356    7.5327    3.0189   H         1 RES1   0.0000
   225 H110      4.0631    8.3680    0.5267   H         1 RES1   0.0000
   226 H111      4.0067    9.9762    1.2129   H         1 RES1   0.0000
   227 H112      1.7475    9.3277    0.6654   H         1 RES1   0.0000
   228 H113      1.9183    9.4242    2.4112   H         1 RES1   0.0000
   229 H114      0.8842    7.4275    2.4425   H         1 RES1   0.0000
   230 H115      2.4592    6.7649    2.0275   H         1 RES1   0.0000
   231 H116      0.2395    7.4460    0.0678   H         1 RES1   0.0000
   232 H117      0.5746    5.8498    0.7000   H         1 RES1   0.0000
   233 H118      2.2524    7.5578   -1.1500   H         1 RES1   0.0000
   234 H119      1.4302    6.0340   -1.5069   H         1 RES1   0.0000
   235 H120      3.9172    6.3644    0.1996   H         1 RES1   0.0000
   236 H121      3.8439    5.8587   -1.4657   H         1 RES1   0.0000
   237 H122      3.7451    3.7268   -0.7453   H         1 RES1   0.0000
   238 H123      2.1306    4.0291   -0.1455   H         1 RES1   0.0000
   239 H124      3.7520    5.0519    1.9061   H         1 RES1   0.0000
   240 H125      4.7000    3.7105    1.3157   H         1 RES1   0.0000
   241 H126      3.3659    2.7982    3.0335   H         1 RES1   0.0000
   242 H127      2.5238    2.2807    1.5579   H         1 RES1   0.0000
   243 H128      1.0660    4.3205    1.7431   H         1 RES1   0.0000
   244 H129      1.7883    4.6809    3.3223   H         1 RES1   0.0000
   245 H130     -0.3063    2.4948    5.1055   H         1 RES1   0.0000
   246 H131      0.2563    4.1601    4.9744   H         1 RES1   0.0000
   247 H132      2.5882    3.4564    4.9979   H         1 RES1   0.0000
   248 H133      2.1278    1.7516    4.9080   H         1 RES1   0.0000
   249 H134      1.3024    1.7826    7.1530   H         1 RES1   0.0000
   250 H135      1.2440    3.5413    7.2022   H         1 RES1   0.0000
   251 H136      3.9249    2.1851    6.8154   H         1 RES1   0.0000
   252 H137      3.1727    2.1890    8.4049   H         1 RES1   0.0000
   253 H138      4.5141    4.0131    8.5619   H         1 RES1   0.0000
   254 H139      2.9776    4.7387    8.1613   H         1 RES1   0.0000
   255 H140      4.3313    4.3265    5.6530   H         1 RES1   0.0000
   256 H141      5.5465    4.8965    6.7743   H         1 RES1   0.0000
   257 H142      4.6309    6.8456    5.7493   H         1 RES1   0.0000
   258 H143      4.0230    6.8020    7.3988   H         1 RES1   0.0000
   259 H144      1.9250    5.6682    6.4643   H         1 RES1   0.0000
   260 H145      2.5414    6.0436    4.8494   H         1 RES1   0.0000
   261 H146      2.5875    8.4617    5.4634   H         1 RES1   0.0000
   262 H147      1.9045    8.0670    7.0398   H         1 RES1   0.0000
   263 H148      0.5620    7.4462    4.3755   H         1 RES1   0.0000
   264 H149      0.2430    8.8921    5.3283   H         1 RES1   0.0000
   265 H150     -0.5916    7.5014    7.1914   H         1 RES1   0.0000
   266 H151     -0.2699    6.0346    6.2697   H         1 RES1   0.0000
   267 H152     -2.1957    8.2536    5.4457   H         1 RES1   0.0000
   268 H153     -2.6534    6.6698    6.0669   H         1 RES1   0.0000
   269 H154     -1.8623    6.8112    4.4939   H         1 RES1   0.0000
   270 H155     -2.2445    2.0858    2.6502   H         1 RES1   0.0000
   271 H156     -1.3962    1.2507    3.9851   H         1 RES1   0.0000
   272 H157     -1.5474   -1.7683    2.3426   H         1 RES1   0.0000
   273 H158     -2.0363   -0.8595    3.7893   H         1 RES1   0.0000
   274 H159      0.0536   -1.8564    6.5417   H         1 RES1   0.0000
   275 H160     -0.1444   -3.2824    5.5124   H         1 RES1   0.0000
   276 H161     -2.3826   -2.6235    4.9556   H         1 RES1   0.0000
   277 H162     -2.1598   -1.0071    5.6778   H         1 RES1   0.0000
   278 H163     -3.4403   -2.5116    7.0770   H         1 RES1   0.0000
   279 H164     -2.0345   -1.8395    7.8767   H         1 RES1   0.0000
   280 H165     -1.7278   -4.5599    6.6192   H         1 RES1   0.0000
   281 H166     -2.7048   -4.4465    8.0680   H         1 RES1   0.0000
   282 H167     -0.8797   -3.4885    9.3488   H         1 RES1   0.0000
   283 H168      0.1508   -3.3994    7.9368   H         1 RES1   0.0000
   284 H169     -0.2553   -5.9886    7.7572   H         1 RES1   0.0000
   285 H170     -0.7388   -5.8605    9.4470   H         1 RES1   0.0000
   286 H171      1.4921   -4.5327    9.7616   H         1 RES1   0.0000
   287 H172      1.9500   -5.1907    8.1942   H         1 RES1   0.0000
   288 H173      1.2426   -6.7375   10.7197   H         1 RES1   0.0000
   289 H174      2.8578   -6.5207   10.0486   H         1 RES1   0.0000
   290 H175      0.6177   -8.0115    8.6110   H         1 RES1   0.0000
   291 H176      1.8054   -8.7782    9.6587   H         1 RES1   0.0000
   292 H177      3.6442   -8.0066    8.2046   H         1 RES1   0.0000
   293 H178      2.4923   -7.2106    7.1365   H         1 RES1   0.0000
   294 H179      1.4106   -9.4149    6.6773   H         1 RES1   0.0000
   295 H180      2.5960  -10.1964    7.7162   H         1 RES1   0.0000
   296 H181      3.2200   -8.6657    5.1426   H         1 RES1   0.0000
   297 H182      3.2944  -10.4142    5.3658   H         1 RES1   0.0000
   298 H183      4.4317   -9.3670    6.2131   H         1 RES1   0.0000
   299 H184      2.3967   -0.7508    4.5981   H         1 RES1   0.0000
   300 H185      2.2932   -2.4135    4.0114   H         1 RES1   0.0000
   301 H186      1.9380   -3.2367    6.3192   H         1 RES1   0.0000
   302 H187      1.9799   -1.5764    6.9368   H         1 RES1   0.0000
   303 H188      4.0271   -2.5367    7.4324   H         1 RES1   0.0000
   304 H189      4.3377   -1.3924    6.1349   H         1 RES1   0.0000
   305 H190      5.6223   -3.4565    5.9270   H         1 RES1   0.0000
   306 H191      4.6091   -3.1943    4.5277   H         1 RES1   0.0000
   307 H192      3.3497   -4.9148    6.5952   H         1 RES1   0.0000
   308 H193      4.8175   -5.5701    5.9369   H         1 RES1   0.0000
   309 H194      3.8065   -6.1630    3.9983   H         1 RES1   0.0000
   310 H195      3.2103   -4.5406    3.7446   H         1 RES1   0.0000
   311 H196      1.3461   -5.2363    5.5043   H         1 RES1   0.0000
   312 H197      1.7969   -6.8639    5.0253   H         1 RES1   0.0000
   313 H198      1.3243   -6.4044    2.6936   H         1 RES1   0.0000
   314 H199      1.0965   -4.6827    3.0149   H         1 RES1   0.0000
   315 H200     -0.8248   -5.3114    4.5424   H         1 RES1   0.0000
   316 H201     -0.6976   -6.9641    3.9547   H         1 RES1   0.0000
   317 H202     -1.1619   -4.5340    2.1611   H         1 RES1   0.0000
   318 H203     -2.4509   -5.4993    2.8839   H         1 RES1   0.0000
   319 H204     -2.3855   -6.4801    0.8344   H         1 RES1   0.0000
   320 H205     -1.2301   -7.5182    1.6587   H         1 RES1   0.0000
   321 H206     -0.5245   -5.1271   -0.1139   H         1 RES1   0.0000
   322 H207     -0.4629   -6.8198   -0.6014   H         1 RES1   0.0000
   323 H208      0.6445   -6.2230    0.6275   H         1 RES1   0.0000
   324 N5       -1.2239   -1.3187   -0.4046   N.3       1 RES1   0.0000
   325 O7       -1.9220   -2.0989   -0.9608   O.2       1 RES1   0.0000
   326 O8       -1.4509   -0.0977   -0.4317   O.co2     1 RES1   0.0000
   327 O9       -0.2360   -1.6847    0.2552   O.co2     1 RES1   0.0000
@<TRIPOS>BOND
     1     1    28    1
     2     1    30    1
     3     1    33    1
     4     1   189    1
     5     1   191    1
     6     1   194    1
     7     1   326    1
     8     1   327    1
     9     2     3    1
    10     2    59    1
    11     2    60    1
    12     2    61    1
    13     3     4    1
    14     3    62    1
    15     3    63    1
    16     4     5    1
    17     4    64    1
    18     4    65    1
    19     5     6    1
    20     5    66    1
    21     5    67    1
    22     6     7    1
    23     6    68    1
    24     6    69    1
    25     7     8    1
    26     7    70    1
    27     7    71    1
    28     8     9    1
    29     8    72    1
    30     8    73    1
    31     9    10    1
    32     9    74    1
    33     9    75    1
    34    10    11    1
    35    10    76    1
    36    10    77    1
    37    11    12    1
    38    11    78    1
    39    11    79    1
    40    12    13    1
    41    12    80    1
    42    12    81    1
    43    13    14    1
    44    13    82    1
    45    13    83    1
    46    14    15    1
    47    14    27    1
    48    15    16    1
    49    15    84    1
    50    15    85    1
    51    16    17    1
    52    16    86    1
    53    16    87    1
    54    17    18    1
    55    17    88    1
    56    17    89    1
    57    18    19    1
    58    18    90    1
    59    18    91    1
    60    19    20    1
    61    19    92    1
    62    19    93    1
    63    20    21    1
    64    20    94    1
    65    20    95    1
    66    21    22    1
    67    21    96    1
    68    21    97    1
    69    22    23    1
    70    22    98    1
    71    22    99    1
    72    23    24    1
    73    23   100    1
    74    23   101    1
    75    24    25    1
    76    24   102    1
    77    24   103    1
    78    25    26    1
    79    25   104    1
    80    25   105    1
    81    26   106    1
    82    26   107    1
    83    26   108    1
    84    27    28    2
    85    27    29    1
    86    29    30    1
    87    29   109    1
    88    29   110    1
    89    30    31    1
    90    31    32    1
    91    31   111    1
    92    31   112    1
    93    32    33    2
    94    32    34    1
    95    34    35    1
    96    34    47    1
    97    35    36    1
    98    35   113    1
    99    35   114    1
   100    36    37    1
   101    36   115    1
   102    36   116    1
   103    37    38    1
   104    37   117    1
   105    37   118    1
   106    38    39    1
   107    38   119    1
   108    38   120    1
   109    39    40    1
   110    39   121    1
   111    39   122    1
   112    40    41    1
   113    40   123    1
   114    40   124    1
   115    41    42    1
   116    41   125    1
   117    41   126    1
   118    42    43    1
   119    42   127    1
   120    42   128    1
   121    43    44    1
   122    43   129    1
   123    43   130    1
   124    44    45    1
   125    44   131    1
   126    44   132    1
   127    45    46    1
   128    45   133    1
   129    45   134    1
   130    46   135    1
   131    46   136    1
   132    46   137    1
   133    47    48    1
   134    47   138    1
   135    47   139    1
   136    48    49    1
   137    48   140    1
   138    48   141    1
   139    49    50    1
   140    49   142    1
   141    49   143    1
   142    50    51    1
   143    50   144    1
   144    50   145    1
   145    51    52    1
   146    51   146    1
   147    51   147    1
   148    52    53    1
   149    52   148    1
   150    52   149    1
   151    53    54    1
   152    53   150    1
   153    53   151    1
   154    54    55    1
   155    54   152    1
   156    54   153    1
   157    55    56    1
   158    55   154    1
   159    55   155    1
   160    56    57    1
   161    56   156    1
   162    56   157    1
   163    57    58    1
   164    57   158    1
   165    57   159    1
   166    58   160    1
   167    58   161    1
   168    58   162    1
   169   163   164    1
   170   163   220    1
   171   163   221    1
   172   163   222    1
   173   164   165    1
   174   164   223    1
   175   164   224    1
   176   165   166    1
   177   165   225    1
   178   165   226    1
   179   166   167    1
   180   166   227    1
   181   166   228    1
   182   167   168    1
   183   167   229    1
   184   167   230    1
   185   168   169    1
   186   168   231    1
   187   168   232    1
   188   169   170    1
   189   169   233    1
   190   169   234    1
   191   170   171    1
   192   170   235    1
   193   170   236    1
   194   171   172    1
   195   171   237    1
   196   171   238    1
   197   172   173    1
   198   172   239    1
   199   172   240    1
   200   173   174    1
   201   173   241    1
   202   173   242    1
   203   174   175    1
   204   174   243    1
   205   174   244    1
   206   175   176    1
   207   175   188    1
   208   176   177    1
   209   176   245    1
   210   176   246    1
   211   177   178    1
   212   177   247    1
   213   177   248    1
   214   178   179    1
   215   178   249    1
   216   178   250    1
   217   179   180    1
   218   179   251    1
   219   179   252    1
   220   180   181    1
   221   180   253    1
   222   180   254    1
   223   181   182    1
   224   181   255    1
   225   181   256    1
   226   182   183    1
   227   182   257    1
   228   182   258    1
   229   183   184    1
   230   183   259    1
   231   183   260    1
   232   184   185    1
   233   184   261    1
   234   184   262    1
   235   185   186    1
   236   185   263    1
   237   185   264    1
   238   186   187    1
   239   186   265    1
   240   186   266    1
   241   187   267    1
   242   187   268    1
   243   187   269    1
   244   188   189    2
   245   188   190    1
   246   190   191    1
   247   190   270    1
   248   190   271    1
   249   191   192    1
   250   192   193    1
   251   192   272    1
   252   192   273    1
   253   193   194    2
   254   193   195    1
   255   195   196    1
   256   195   208    1
   257   196   197    1
   258   196   274    1
   259   196   275    1
   260   197   198    1
   261   197   276    1
   262   197   277    1
   263   198   199    1
   264   198   278    1
   265   198   279    1
   266   199   200    1
   267   199   280    1
   268   199   281    1
   269   200   201    1
   270   200   282    1
   271   200   283    1
   272   201   202    1
   273   201   284    1
   274   201   285    1
   275   202   203    1
   276   202   286    1
   277   202   287    1
   278   203   204    1
   279   203   288    1
   280   203   289    1
   281   204   205    1
   282   204   290    1
   283   204   291    1
   284   205   206    1
   285   205   292    1
   286   205   293    1
   287   206   207    1
   288   206   294    1
   289   206   295    1
   290   207   296    1
   291   207   297    1
   292   207   298    1
   293   208   209    1
   294   208   299    1
   295   208   300    1
   296   209   210    1
   297   209   301    1
   298   209   302    1
   299   210   211    1
   300   210   303    1
   301   210   304    1
   302   211   212    1
   303   211   305    1
   304   211   306    1
   305   212   213    1
   306   212   307    1
   307   212   308    1
   308   213   214    1
   309   213   309    1
   310   213   310    1
   311   214   215    1
   312   214   311    1
   313   214   312    1
   314   215   216    1
   315   215   313    1
   316   215   314    1
   317   216   217    1
   318   216   315    1
   319   216   316    1
   320   217   218    1
   321   217   317    1
   322   217   318    1
   323   218   219    1
   324   218   319    1
   325   218   320    1
   326   219   321    1
   327   219   322    1
   328   219   323    1
   329   324   325    2
   330   324   326    1
   331   324   327    1
@<TRIPOS>SUBSTRUCTURE
     1 RES1      327 GROUP             0 ****  ****    0  
