@<TRIPOS>MOLECULE
ICIGOT_geomtry_0_nunpairedes_0_charge_2 Charge: 2 Unpaired_Electrons: 4 XTB_Unpaired_Electrons: 0 XTB_Charge: 2
   147   151     1     0     0
SMALL
NoCharges
****
Generated from Architector

@<TRIPOS>ATOM
     1 Ho1       0.1840    0.0112   -0.1169   Ho        1 RES1   0.0000
     2 C1       -4.9930    5.3982    3.8842   C.3       1 RES1   0.0000
     3 C2       -4.9168    4.9735    2.4238   C.3       1 RES1   0.0000
     4 C3       -6.1520    4.1859    1.9923   C.3       1 RES1   0.0000
     5 C4       -5.9799    3.5781    0.6009   C.3       1 RES1   0.0000
     6 C5       -7.1155    2.6313    0.2161   C.3       1 RES1   0.0000
     7 C6       -7.2044    1.3495    1.0503   C.3       1 RES1   0.0000
     8 C7       -5.9704    0.4333    0.9715   C.3       1 RES1   0.0000
     9 C8       -5.0118    0.5745    2.1651   C.3       1 RES1   0.0000
    10 N1       -3.8018   -0.2150    1.9765   N.am      1 RES1   0.0000
    11 C9       -3.8689   -1.6094    2.3730   C.3       1 RES1   0.0000
    12 C10      -2.7218    0.2281    1.3608   C.2       1 RES1   0.0000
    13 O1       -1.7787   -0.5186    1.0076   O.2       1 RES1   0.0000
    14 C11      -2.5265    1.7300    1.1333   C.3       1 RES1   0.0000
    15 O2       -1.1208    1.8608    0.9952   O.3       1 RES1   0.0000
    16 C12      -0.6126    3.1872    1.0282   C.3       1 RES1   0.0000
    17 C13       0.9029    2.9479    1.0661   C.2       1 RES1   0.0000
    18 O3        1.3224    1.9554    0.4319   O.2       1 RES1   0.0000
    19 N2        1.6908    3.7387    1.7808   N.am      1 RES1   0.0000
    20 C14       1.2837    4.9982    2.3695   C.3       1 RES1   0.0000
    21 C15       3.0922    3.3697    1.9686   C.3       1 RES1   0.0000
    22 C16       3.5079    3.3563    3.4454   C.3       1 RES1   0.0000
    23 C17       4.9759    2.9452    3.6588   C.3       1 RES1   0.0000
    24 C18       5.2561    1.4670    3.9384   C.3       1 RES1   0.0000
    25 C19       5.0092    0.5133    2.7717   C.3       1 RES1   0.0000
    26 C20       5.3528   -0.9369    3.1254   C.3       1 RES1   0.0000
    27 C21       5.2068   -1.8496    1.9059   C.3       1 RES1   0.0000
    28 C22       5.4428   -3.3191    2.2255   C.3       1 RES1   0.0000
    29 H1       -4.1147    5.9727    4.1672   H         1 RES1   0.0000
    30 H2       -5.0643    4.5283    4.5351   H         1 RES1   0.0000
    31 H3       -5.8681    6.0178    4.0514   H         1 RES1   0.0000
    32 H4       -4.0245    4.3544    2.2745   H         1 RES1   0.0000
    33 H5       -4.8087    5.8524    1.7865   H         1 RES1   0.0000
    34 H6       -7.0199    4.8466    1.9924   H         1 RES1   0.0000
    35 H7       -6.3416    3.3971    2.7236   H         1 RES1   0.0000
    36 H8       -5.0279    3.0431    0.5502   H         1 RES1   0.0000
    37 H9       -5.9298    4.3862   -0.1330   H         1 RES1   0.0000
    38 H10      -7.0084    2.3687   -0.8394   H         1 RES1   0.0000
    39 H11      -8.0604    3.1668    0.3214   H         1 RES1   0.0000
    40 H12      -8.0651    0.7947    0.6732   H         1 RES1   0.0000
    41 H13      -7.4201    1.5988    2.0906   H         1 RES1   0.0000
    42 H14      -5.4244    0.6224    0.0448   H         1 RES1   0.0000
    43 H15      -6.3181   -0.5990    0.9481   H         1 RES1   0.0000
    44 H16      -5.4963    0.2171    3.0746   H         1 RES1   0.0000
    45 H17      -4.7531    1.6202    2.3169   H         1 RES1   0.0000
    46 H18      -4.6178   -2.1486    1.7956   H         1 RES1   0.0000
    47 H19      -4.1345   -1.6496    3.4288   H         1 RES1   0.0000
    48 H20      -2.8972   -2.0783    2.2266   H         1 RES1   0.0000
    49 H21      -2.8758    2.3206    1.9877   H         1 RES1   0.0000
    50 H22      -3.0611    2.0524    0.2295   H         1 RES1   0.0000
    51 H23      -1.0070    3.7171    1.8996   H         1 RES1   0.0000
    52 H24      -0.8903    3.7386    0.1198   H         1 RES1   0.0000
    53 H25       0.5336    5.5116    1.7713   H         1 RES1   0.0000
    54 H26       2.1597    5.6442    2.4122   H         1 RES1   0.0000
    55 H27       0.9016    4.8479    3.3783   H         1 RES1   0.0000
    56 H28       3.7183    4.0923    1.4350   H         1 RES1   0.0000
    57 H29       3.2252    2.3847    1.5203   H         1 RES1   0.0000
    58 H30       2.8459    2.7035    4.0128   H         1 RES1   0.0000
    59 H31       3.4020    4.3643    3.8455   H         1 RES1   0.0000
    60 H32       5.3347    3.4865    4.5367   H         1 RES1   0.0000
    61 H33       5.5684    3.2710    2.8018   H         1 RES1   0.0000
    62 H34       4.6706    1.1515    4.8064   H         1 RES1   0.0000
    63 H35       6.3107    1.3932    4.2140   H         1 RES1   0.0000
    64 H36       5.6250    0.8194    1.9242   H         1 RES1   0.0000
    65 H37       3.9632    0.5510    2.4568   H         1 RES1   0.0000
    66 H38       4.6915   -1.2848    3.9254   H         1 RES1   0.0000
    67 H39       6.3763   -0.9845    3.5018   H         1 RES1   0.0000
    68 H40       5.9223   -1.5350    1.1443   H         1 RES1   0.0000
    69 H41       4.2046   -1.7059    1.4845   H         1 RES1   0.0000
    70 H42       6.4359   -3.4565    2.6406   H         1 RES1   0.0000
    71 H43       5.3716   -3.9177    1.3215   H         1 RES1   0.0000
    72 H44       4.7207   -3.6873    2.9517   H         1 RES1   0.0000
    73 C23      -1.6440   -4.5115    4.9732   C.3       1 RES1   0.0000
    74 C24      -1.4383   -3.6238    6.1940   C.3       1 RES1   0.0000
    75 C25      -1.6968   -2.1530    5.8785   C.3       1 RES1   0.0000
    76 C26      -1.3607   -1.2502    7.0648   C.3       1 RES1   0.0000
    77 C27      -1.3462    0.2417    6.7128   C.3       1 RES1   0.0000
    78 C28      -0.4543    0.6103    5.5209   C.3       1 RES1   0.0000
    79 C29       1.0129    0.2419    5.7514   C.3       1 RES1   0.0000
    80 C30       1.7807   -0.0006    4.4543   C.3       1 RES1   0.0000
    81 N3        1.5347   -1.3108    3.8481   N.am      1 RES1   0.0000
    82 C31       1.9342   -2.4856    4.5924   C.3       1 RES1   0.0000
    83 C32       1.1737   -1.3613    2.5764   C.2       1 RES1   0.0000
    84 O4        0.8678   -0.3331    1.9368   O.2       1 RES1   0.0000
    85 C33       1.1917   -2.7060    1.8513   C.3       1 RES1   0.0000
    86 O5        0.7136   -2.4707    0.5367   O.3       1 RES1   0.0000
    87 C34       1.3418   -3.1826   -0.5290   C.3       1 RES1   0.0000
    88 C35       1.7039   -2.1185   -1.5929   C.2       1 RES1   0.0000
    89 O6        1.8454   -0.9508   -1.1570   O.2       1 RES1   0.0000
    90 N4        1.8550   -2.4622   -2.8558   N.am      1 RES1   0.0000
    91 C36       1.8576   -3.8303   -3.3479   C.3       1 RES1   0.0000
    92 C37       1.9589   -1.5252   -3.9868   C.3       1 RES1   0.0000
    93 C38       1.8837   -0.0182   -3.7433   C.3       1 RES1   0.0000
    94 C39       3.2494    0.5997   -3.4482   C.3       1 RES1   0.0000
    95 C40       3.1366    2.1130   -3.2713   C.3       1 RES1   0.0000
    96 C41       4.4127    2.7363   -2.7021   C.3       1 RES1   0.0000
    97 C42       4.4683    2.5910   -1.1806   C.3       1 RES1   0.0000
    98 C43       5.7951    3.0349   -0.5621   C.3       1 RES1   0.0000
    99 C44       6.9458    2.0739   -0.8316   C.3       1 RES1   0.0000
   100 H45      -1.4106   -5.5441    5.2123   H         1 RES1   0.0000
   101 H46      -1.0039   -4.1935    4.1490   H         1 RES1   0.0000
   102 H47      -2.6739   -4.4700    4.6308   H         1 RES1   0.0000
   103 H48      -0.4126   -3.7347    6.5562   H         1 RES1   0.0000
   104 H49      -2.0992   -3.9462    6.9974   H         1 RES1   0.0000
   105 H50      -2.7440   -2.0086    5.6019   H         1 RES1   0.0000
   106 H51      -1.0836   -1.8748    5.0182   H         1 RES1   0.0000
   107 H52      -0.3914   -1.5416    7.4765   H         1 RES1   0.0000
   108 H53      -2.0971   -1.4173    7.8536   H         1 RES1   0.0000
   109 H54      -1.0180    0.7950    7.5968   H         1 RES1   0.0000
   110 H55      -2.3655    0.5604    6.4880   H         1 RES1   0.0000
   111 H56      -0.5588    1.6827    5.3468   H         1 RES1   0.0000
   112 H57      -0.7963    0.1063    4.6142   H         1 RES1   0.0000
   113 H58       1.0602   -0.6643    6.3486   H         1 RES1   0.0000
   114 H59       1.5191    1.0295    6.3128   H         1 RES1   0.0000
   115 H60       2.8565    0.0588    4.6430   H         1 RES1   0.0000
   116 H61       1.5095    0.7504    3.7087   H         1 RES1   0.0000
   117 H62       2.7333   -3.0199    4.0782   H         1 RES1   0.0000
   118 H63       2.3090   -2.1811    5.5658   H         1 RES1   0.0000
   119 H64       1.0972   -3.1649    4.7536   H         1 RES1   0.0000
   120 H65       0.5755   -3.4681    2.3459   H         1 RES1   0.0000
   121 H66       2.2292   -3.0628    1.8560   H         1 RES1   0.0000
   122 H67       0.6263   -3.9234   -0.9006   H         1 RES1   0.0000
   123 H68       2.2569   -3.6894   -0.1862   H         1 RES1   0.0000
   124 H69       1.7718   -4.5701   -2.5592   H         1 RES1   0.0000
   125 H70       2.7909   -4.0055   -3.8864   H         1 RES1   0.0000
   126 H71       1.0298   -3.9684   -4.0473   H         1 RES1   0.0000
   127 H72       1.1437   -1.8029   -4.6624   H         1 RES1   0.0000
   128 H73       2.9043   -1.7365   -4.4997   H         1 RES1   0.0000
   129 H74       1.1734    0.2405   -2.9486   H         1 RES1   0.0000
   130 H75       1.5167    0.4297   -4.6704   H         1 RES1   0.0000
   131 H76       3.9152    0.3971   -4.2892   H         1 RES1   0.0000
   132 H77       3.6797    0.1483   -2.5525   H         1 RES1   0.0000
   133 H78       2.3024    2.3328   -2.5976   H         1 RES1   0.0000
   134 H79       2.9086    2.5602   -4.2403   H         1 RES1   0.0000
   135 H80       4.4379    3.7989   -2.9534   H         1 RES1   0.0000
   136 H81       5.2824    2.2685   -3.1653   H         1 RES1   0.0000
   137 H82       4.2647    1.5524   -0.9004   H         1 RES1   0.0000
   138 H83       3.6640    3.2039   -0.7634   H         1 RES1   0.0000
   139 H84       5.6610    3.1174    0.5203   H         1 RES1   0.0000
   140 H85       6.0561    4.0258   -0.9373   H         1 RES1   0.0000
   141 H86       6.6813    1.0643   -0.5235   H         1 RES1   0.0000
   142 H87       7.8244    2.3802   -0.2699   H         1 RES1   0.0000
   143 H88       7.2094    2.0518   -1.8849   H         1 RES1   0.0000
   144 N5       -1.5673   -0.0111   -1.6208   N.3       1 RES1   0.0000
   145 O7       -2.7531    0.0265   -1.6897   O.2       1 RES1   0.0000
   146 O8       -0.8983    1.0348   -1.5664   O.co2     1 RES1   0.0000
   147 O9       -0.9338   -1.0711   -1.5884   O.co2     1 RES1   0.0000
@<TRIPOS>BOND
     1     1    13    1
     2     1    15    1
     3     1    18    1
     4     1    84    1
     5     1    86    1
     6     1    89    1
     7     1   146    1
     8     1   147    1
     9     2     3    1
    10     2    29    1
    11     2    30    1
    12     2    31    1
    13     3     4    1
    14     3    32    1
    15     3    33    1
    16     4     5    1
    17     4    34    1
    18     4    35    1
    19     5     6    1
    20     5    36    1
    21     5    37    1
    22     6     7    1
    23     6    38    1
    24     6    39    1
    25     7     8    1
    26     7    40    1
    27     7    41    1
    28     8     9    1
    29     8    42    1
    30     8    43    1
    31     9    10    1
    32     9    44    1
    33     9    45    1
    34    10    11    1
    35    10    12    1
    36    11    46    1
    37    11    47    1
    38    11    48    1
    39    12    13    2
    40    12    14    1
    41    14    15    1
    42    14    49    1
    43    14    50    1
    44    15    16    1
    45    16    17    1
    46    16    51    1
    47    16    52    1
    48    17    18    2
    49    17    19    1
    50    19    20    1
    51    19    21    1
    52    20    53    1
    53    20    54    1
    54    20    55    1
    55    21    22    1
    56    21    56    1
    57    21    57    1
    58    22    23    1
    59    22    58    1
    60    22    59    1
    61    23    24    1
    62    23    60    1
    63    23    61    1
    64    24    25    1
    65    24    62    1
    66    24    63    1
    67    25    26    1
    68    25    64    1
    69    25    65    1
    70    26    27    1
    71    26    66    1
    72    26    67    1
    73    27    28    1
    74    27    68    1
    75    27    69    1
    76    28    70    1
    77    28    71    1
    78    28    72    1
    79    73    74    1
    80    73   100    1
    81    73   101    1
    82    73   102    1
    83    74    75    1
    84    74   103    1
    85    74   104    1
    86    75    76    1
    87    75   105    1
    88    75   106    1
    89    76    77    1
    90    76   107    1
    91    76   108    1
    92    77    78    1
    93    77   109    1
    94    77   110    1
    95    78    79    1
    96    78   111    1
    97    78   112    1
    98    79    80    1
    99    79   113    1
   100    79   114    1
   101    80    81    1
   102    80   115    1
   103    80   116    1
   104    81    82    1
   105    81    83    1
   106    82   117    1
   107    82   118    1
   108    82   119    1
   109    83    84    2
   110    83    85    1
   111    85    86    1
   112    85   120    1
   113    85   121    1
   114    86    87    1
   115    87    88    1
   116    87   122    1
   117    87   123    1
   118    88    89    2
   119    88    90    1
   120    90    91    1
   121    90    92    1
   122    91   124    1
   123    91   125    1
   124    91   126    1
   125    92    93    1
   126    92   127    1
   127    92   128    1
   128    93    94    1
   129    93   129    1
   130    93   130    1
   131    94    95    1
   132    94   131    1
   133    94   132    1
   134    95    96    1
   135    95   133    1
   136    95   134    1
   137    96    97    1
   138    96   135    1
   139    96   136    1
   140    97    98    1
   141    97   137    1
   142    97   138    1
   143    98    99    1
   144    98   139    1
   145    98   140    1
   146    99   141    1
   147    99   142    1
   148    99   143    1
   149   144   145    2
   150   144   146    1
   151   144   147    1
@<TRIPOS>SUBSTRUCTURE
     1 RES1      147 GROUP             0 ****  ****    0  
