@<TRIPOS>MOLECULE
ICIGOT_geomtry_0_nunpairedes_0_charge_3 Charge: 3 Unpaired_Electrons: 4 XTB_Unpaired_Electrons: 0 XTB_Charge: 3
    89    94     1     0     0
SMALL
NoCharges
****
Generated from Architector

@<TRIPOS>ATOM
     1 Ho1       0.6903    1.2368   -0.0973   Ho        1 RES1   0.0000
     2 C1       -4.9062   -4.5820   -0.8368   C.3       1 RES1   0.0000
     3 C2       -5.6374   -3.6835    0.1533   C.3       1 RES1   0.0000
     4 C3       -4.7201   -2.6738    0.8460   C.3       1 RES1   0.0000
     5 C4       -3.8454   -3.3424    1.9062   C.3       1 RES1   0.0000
     6 C5       -2.7654   -2.4119    2.4726   C.3       1 RES1   0.0000
     7 C6       -1.5310   -2.2993    1.5834   C.3       1 RES1   0.0000
     8 O1       -0.5495   -1.4947    2.3106   O.3       1 RES1   0.0000
     9 P1        0.5771   -0.4954    2.0278   P.3       1 RES1   0.0000
    10 O2        1.3271   -0.5300    0.7152   O.2       1 RES1   0.0000
    11 O3        1.5366   -0.5420    3.2366   O.3       1 RES1   0.0000
    12 O4        0.0805    1.0717    2.0088   O.3       1 RES1   0.0000
    13 C7       -1.1905    1.5131    2.6284   C.3       1 RES1   0.0000
    14 C8       -1.2484    1.2031    4.1107   C.3       1 RES1   0.0000
    15 C9       -2.4709    1.8629    4.7689   C.3       1 RES1   0.0000
    16 C10      -3.7956    1.1200    4.5204   C.3       1 RES1   0.0000
    17 C11      -4.8297    1.9225    3.7259   C.3       1 RES1   0.0000
    18 C12      -4.5291    2.0612    2.2351   C.3       1 RES1   0.0000
    19 H1       -5.6137   -5.2288   -1.3483   H         1 RES1   0.0000
    20 H2       -4.1779   -5.2212   -0.3409   H         1 RES1   0.0000
    21 H3       -4.3870   -3.9842   -1.5872   H         1 RES1   0.0000
    22 H4       -6.1300   -4.3010    0.9063   H         1 RES1   0.0000
    23 H5       -6.4227   -3.1454   -0.3810   H         1 RES1   0.0000
    24 H6       -5.3373   -1.9170    1.3325   H         1 RES1   0.0000
    25 H7       -4.0999   -2.1673    0.0987   H         1 RES1   0.0000
    26 H8       -3.3828   -4.2466    1.5124   H         1 RES1   0.0000
    27 H9       -4.4934   -3.6510    2.7264   H         1 RES1   0.0000
    28 H10      -2.4364   -2.7984    3.4386   H         1 RES1   0.0000
    29 H11      -3.1956   -1.4198    2.6236   H         1 RES1   0.0000
    30 H12      -1.7339   -1.8302    0.6179   H         1 RES1   0.0000
    31 H13      -1.0697   -3.2786    1.4429   H         1 RES1   0.0000
    32 H14       1.5579   -1.3055    3.8196   H         1 RES1   0.0000
    33 H15      -2.0163    1.0523    2.0727   H         1 RES1   0.0000
    34 H16      -1.2203    2.6026    2.4866   H         1 RES1   0.0000
    35 H17      -0.3377    1.5788    4.5804   H         1 RES1   0.0000
    36 H18      -1.2930    0.1246    4.2621   H         1 RES1   0.0000
    37 H19      -2.5584    2.8918    4.4162   H         1 RES1   0.0000
    38 H20      -2.2745    1.9056    5.8402   H         1 RES1   0.0000
    39 H21      -4.2457    0.8738    5.4817   H         1 RES1   0.0000
    40 H22      -3.6061    0.1694    4.0171   H         1 RES1   0.0000
    41 H23      -4.9213    2.9161    4.1656   H         1 RES1   0.0000
    42 H24      -5.7967    1.4309    3.8331   H         1 RES1   0.0000
    43 H25      -3.6898    2.7313    2.0516   H         1 RES1   0.0000
    44 H26      -5.3944    2.4815    1.7300   H         1 RES1   0.0000
    45 H27      -4.3219    1.0896    1.7827   H         1 RES1   0.0000
    46 C13       2.1880    3.3262    0.9205   C.3       1 RES1   0.0000
    47 C14       2.9003    3.8081   -0.3561   C.3       1 RES1   0.0000
    48 C15       2.3042    3.2322   -1.6544   C.3       1 RES1   0.0000
    49 C16       2.7050    1.7553   -1.9623   C.3       1 RES1   0.0000
    50 C17       1.9862    1.1440   -3.2042   C.3       1 RES1   0.0000
    51 C18       0.5155    1.5154   -3.4392   C.3       1 RES1   0.0000
    52 O5       -0.3051    1.3590   -2.2391   O.3       1 RES1   0.0000
    53 P2       -1.0444   -0.0049   -1.7056   P.3       1 RES1   0.0000
    54 O6       -1.2457    0.4123   -0.2879   O.2       1 RES1   0.0000
    55 O7       -2.3495   -0.3513   -2.4146   O.3       1 RES1   0.0000
    56 O8        0.1375   -1.0529   -1.8253   O.3       1 RES1   0.0000
    57 C19       0.0963   -2.3869   -2.4673   C.3       1 RES1   0.0000
    58 C20       0.2644   -2.3149   -3.9771   C.3       1 RES1   0.0000
    59 C21      -0.9124   -1.7254   -4.7609   C.3       1 RES1   0.0000
    60 C22      -2.2453   -2.4934   -4.6907   C.3       1 RES1   0.0000
    61 C23      -2.1758   -3.9855   -5.0577   C.3       1 RES1   0.0000
    62 C24      -1.8069   -4.9122   -3.8984   C.3       1 RES1   0.0000
    63 H28       2.5122    3.9628    1.7478   H         1 RES1   0.0000
    64 H29       2.4886    2.2921    1.2153   H         1 RES1   0.0000
    65 H30       1.0728    3.4910    0.8444   H         1 RES1   0.0000
    66 H31       3.9671    3.5772   -0.2930   H         1 RES1   0.0000
    67 H32       2.8139    4.8977   -0.4020   H         1 RES1   0.0000
    68 H33       2.6736    3.8371   -2.4903   H         1 RES1   0.0000
    69 H34       1.1959    3.3831   -1.6216   H         1 RES1   0.0000
    70 H35       2.6188    1.0595   -1.0619   H         1 RES1   0.0000
    71 H36       3.7720    1.7463   -2.2157   H         1 RES1   0.0000
    72 H37       2.0899    0.0545   -3.1470   H         1 RES1   0.0000
    73 H38       2.5116    1.4715   -4.1062   H         1 RES1   0.0000
    74 H39       0.1244    0.9037   -4.2536   H         1 RES1   0.0000
    75 H40       0.4003    2.5630   -3.7291   H         1 RES1   0.0000
    76 H41      -2.4183   -0.9878   -3.1612   H         1 RES1   0.0000
    77 H42      -0.8251   -2.8956   -2.1881   H         1 RES1   0.0000
    78 H43       0.9329   -2.9146   -2.0070   H         1 RES1   0.0000
    79 H44       0.4231   -3.3309   -4.3364   H         1 RES1   0.0000
    80 H45       1.1769   -1.7623   -4.2115   H         1 RES1   0.0000
    81 H46      -0.6079   -1.7106   -5.8075   H         1 RES1   0.0000
    82 H47      -1.0622   -0.6741   -4.4823   H         1 RES1   0.0000
    83 H48      -2.9178   -2.0077   -5.4000   H         1 RES1   0.0000
    84 H49      -2.7340   -2.4502   -3.7061   H         1 RES1   0.0000
    85 H50      -1.4937   -4.1386   -5.8941   H         1 RES1   0.0000
    86 H51      -3.1707   -4.2722   -5.3987   H         1 RES1   0.0000
    87 H52      -0.7372   -4.9502   -3.7049   H         1 RES1   0.0000
    88 H53      -2.1238   -5.9226   -4.1398   H         1 RES1   0.0000
    89 H54      -2.3224   -4.6194   -2.9825   H         1 RES1   0.0000
@<TRIPOS>BOND
     1     1     8    1
     2     1    10    1
     3     1    11    1
     4     1    12    1
     5     1    52    1
     6     1    54    1
     7     1    55    1
     8     1    56    1
     9     2     3    1
    10     2    19    1
    11     2    20    1
    12     2    21    1
    13     3     4    1
    14     3    22    1
    15     3    23    1
    16     4     5    1
    17     4    24    1
    18     4    25    1
    19     5     6    1
    20     5    26    1
    21     5    27    1
    22     6     7    1
    23     6    28    1
    24     6    29    1
    25     7     8    1
    26     7    30    1
    27     7    31    1
    28     8     9    1
    29     9    10    2
    30     9    11    1
    31     9    12    1
    32    11    32    1
    33    12    13    1
    34    13    14    1
    35    13    33    1
    36    13    34    1
    37    14    15    1
    38    14    35    1
    39    14    36    1
    40    15    16    1
    41    15    37    1
    42    15    38    1
    43    16    17    1
    44    16    39    1
    45    16    40    1
    46    17    18    1
    47    17    41    1
    48    17    42    1
    49    18    43    1
    50    18    44    1
    51    18    45    1
    52    46    47    1
    53    46    63    1
    54    46    64    1
    55    46    65    1
    56    47    48    1
    57    47    66    1
    58    47    67    1
    59    48    49    1
    60    48    68    1
    61    48    69    1
    62    49    50    1
    63    49    70    1
    64    49    71    1
    65    50    51    1
    66    50    72    1
    67    50    73    1
    68    51    52    1
    69    51    74    1
    70    51    75    1
    71    52    53    1
    72    53    54    2
    73    53    55    1
    74    53    56    1
    75    55    76    1
    76    56    57    1
    77    57    58    1
    78    57    77    1
    79    57    78    1
    80    58    59    1
    81    58    79    1
    82    58    80    1
    83    59    60    1
    84    59    81    1
    85    59    82    1
    86    60    61    1
    87    60    83    1
    88    60    84    1
    89    61    62    1
    90    61    85    1
    91    61    86    1
    92    62    87    1
    93    62    88    1
    94    62    89    1
@<TRIPOS>SUBSTRUCTURE
     1 RES1       89 GROUP             0 ****  ****    0  
