@<TRIPOS>MOLECULE
ICIGOT_geomtry_0_nunpairedes_0_charge_2 Charge: 2 Unpaired_Electrons: 4 XTB_Unpaired_Electrons: 0 XTB_Charge: 2
   111   115     1     0     0
SMALL
NoCharges
****
Generated from Architector

@<TRIPOS>ATOM
     1 Ho1      -0.2770    0.0455   -0.1604   Ho        1 RES1   0.0000
     2 C1       -0.2149    2.8276    5.5957   C.3       1 RES1   0.0000
     3 C2        1.0071    2.0246    6.0214   C.3       1 RES1   0.0000
     4 C3        1.2656    0.7863    5.1551   C.3       1 RES1   0.0000
     5 N1        1.5352    1.0724    3.7545   N.am      1 RES1   0.0000
     6 C4        2.8565    1.6015    3.4309   C.3       1 RES1   0.0000
     7 C5        2.8460    3.0991    3.1094   C.3       1 RES1   0.0000
     8 C6        4.2698    3.6397    3.0084   C.3       1 RES1   0.0000
     9 C7        0.6730    0.8415    2.7731   C.2       1 RES1   0.0000
    10 O1        0.9642    0.9737    1.5691   O.2       1 RES1   0.0000
    11 C8       -0.7463    0.3918    3.1443   C.3       1 RES1   0.0000
    12 O2       -1.5240    0.2283    1.9697   O.3       1 RES1   0.0000
    13 C9       -2.6351    1.1040    1.7969   C.3       1 RES1   0.0000
    14 C10      -2.3800    1.9878    0.5690   C.2       1 RES1   0.0000
    15 O3       -1.2299    1.9749    0.0698   O.2       1 RES1   0.0000
    16 N2       -3.3405    2.7621    0.1038   N.am      1 RES1   0.0000
    17 C11      -4.7144    2.6951    0.5712   C.3       1 RES1   0.0000
    18 C12      -5.4978    1.5409   -0.0747   C.3       1 RES1   0.0000
    19 C13      -5.6879    1.7039   -1.5779   C.3       1 RES1   0.0000
    20 C14      -3.0181    3.6409   -1.0205   C.3       1 RES1   0.0000
    21 C15      -2.0857    4.7857   -0.6110   C.3       1 RES1   0.0000
    22 C16      -2.6624    5.6494    0.5035   C.3       1 RES1   0.0000
    23 H1       -0.3045    3.7189    6.2102   H         1 RES1   0.0000
    24 H2       -0.1331    3.1407    4.5565   H         1 RES1   0.0000
    25 H3       -1.1217    2.2436    5.7342   H         1 RES1   0.0000
    26 H4        1.8862    2.6657    6.0151   H         1 RES1   0.0000
    27 H5        0.8677    1.6709    7.0441   H         1 RES1   0.0000
    28 H6        2.1461    0.2726    5.5515   H         1 RES1   0.0000
    29 H7        0.4151    0.1111    5.2362   H         1 RES1   0.0000
    30 H8        3.5011    1.4192    4.2907   H         1 RES1   0.0000
    31 H9        3.2490    1.0593    2.5663   H         1 RES1   0.0000
    32 H10       2.3168    3.2688    2.1701   H         1 RES1   0.0000
    33 H11       2.3223    3.6445    3.8932   H         1 RES1   0.0000
    34 H12       4.8416    3.1107    2.2482   H         1 RES1   0.0000
    35 H13       4.2532    4.6953    2.7485   H         1 RES1   0.0000
    36 H14       4.7869    3.5388    3.9606   H         1 RES1   0.0000
    37 H15      -0.7111   -0.5904    3.6311   H         1 RES1   0.0000
    38 H16      -1.1939    1.1209    3.8276   H         1 RES1   0.0000
    39 H17      -3.5094    0.4671    1.6344   H         1 RES1   0.0000
    40 H18      -2.7952    1.7344    2.6835   H         1 RES1   0.0000
    41 H19      -4.7294    2.5864    1.6578   H         1 RES1   0.0000
    42 H20      -5.1937    3.6422    0.3240   H         1 RES1   0.0000
    43 H21      -4.9909    0.5914    0.1109   H         1 RES1   0.0000
    44 H22      -6.4752    1.5021    0.4089   H         1 RES1   0.0000
    45 H23      -4.7396    1.6525   -2.1053   H         1 RES1   0.0000
    46 H24      -6.3199    0.9064   -1.9574   H         1 RES1   0.0000
    47 H25      -6.1737    2.6471   -1.8105   H         1 RES1   0.0000
    48 H26      -2.5241    3.0521   -1.8006   H         1 RES1   0.0000
    49 H27      -3.9512    4.0443   -1.4068   H         1 RES1   0.0000
    50 H28      -1.1228    4.3766   -0.3036   H         1 RES1   0.0000
    51 H29      -1.9161    5.3992   -1.4952   H         1 RES1   0.0000
    52 H30      -2.8406    5.0608    1.4015   H         1 RES1   0.0000
    53 H31      -1.9698    6.4469    0.7604   H         1 RES1   0.0000
    54 H32      -3.6001    6.1045    0.1942   H         1 RES1   0.0000
    55 C17       2.4679    2.9776   -3.7967   C.3       1 RES1   0.0000
    56 C18       1.6331    1.7288   -4.0471   C.3       1 RES1   0.0000
    57 C19       2.4647    0.4474   -4.1562   C.3       1 RES1   0.0000
    58 N3        3.2148    0.0299   -2.9604   N.am      1 RES1   0.0000
    59 C20       4.5758   -0.4547   -3.1496   C.3       1 RES1   0.0000
    60 C21       5.6610    0.4469   -2.5472   C.3       1 RES1   0.0000
    61 C22       5.9420    1.6762   -3.4007   C.3       1 RES1   0.0000
    62 C23       2.5810   -0.0829   -1.8046   C.2       1 RES1   0.0000
    63 O4        1.3905    0.2543   -1.6417   O.2       1 RES1   0.0000
    64 C24       3.2577   -0.6728   -0.5553   C.3       1 RES1   0.0000
    65 O5        2.1821   -1.1172    0.2782   O.3       1 RES1   0.0000
    66 C25       2.2520   -2.4608    0.7287   C.3       1 RES1   0.0000
    67 C26       0.8200   -2.8298    1.1515   C.2       1 RES1   0.0000
    68 O6       -0.0948   -2.0795    0.7457   O.2       1 RES1   0.0000
    69 N4        0.6059   -3.8967    1.9073   N.am      1 RES1   0.0000
    70 C27      -0.7748   -4.2811    2.2457   C.3       1 RES1   0.0000
    71 C28      -1.6091   -3.2400    2.9990   C.3       1 RES1   0.0000
    72 C29      -1.1523   -2.9947    4.4347   C.3       1 RES1   0.0000
    73 C30       1.6619   -4.8693    2.1837   C.3       1 RES1   0.0000
    74 C31       2.4879   -4.5941    3.4517   C.3       1 RES1   0.0000
    75 C32       1.8503   -5.1679    4.7114   C.3       1 RES1   0.0000
    76 H33       1.8376    3.8621   -3.8439   H         1 RES1   0.0000
    77 H34       3.2408    3.0793   -4.5565   H         1 RES1   0.0000
    78 H35       2.9294    2.9458   -2.8111   H         1 RES1   0.0000
    79 H36       1.1158    1.8307   -5.0032   H         1 RES1   0.0000
    80 H37       0.8709    1.6263   -3.2721   H         1 RES1   0.0000
    81 H38       3.1919    0.5783   -4.9588   H         1 RES1   0.0000
    82 H39       1.7883   -0.3711   -4.4264   H         1 RES1   0.0000
    83 H40       4.7547   -0.5399   -4.2216   H         1 RES1   0.0000
    84 H41       4.6618   -1.4608   -2.7310   H         1 RES1   0.0000
    85 H42       6.5733   -0.1453   -2.4650   H         1 RES1   0.0000
    86 H43       5.3745    0.7587   -1.5416   H         1 RES1   0.0000
    87 H44       6.2185    1.3863   -4.4099   H         1 RES1   0.0000
    88 H45       6.7642    2.2471   -2.9808   H         1 RES1   0.0000
    89 H46       5.0744    2.3232   -3.4451   H         1 RES1   0.0000
    90 H47       3.7883    0.1312   -0.0285   H         1 RES1   0.0000
    91 H48       3.9568   -1.4802   -0.7820   H         1 RES1   0.0000
    92 H49       2.9626   -2.5515    1.5577   H         1 RES1   0.0000
    93 H50       2.5525   -3.1408   -0.0826   H         1 RES1   0.0000
    94 H51      -0.7210   -5.1863    2.8512   H         1 RES1   0.0000
    95 H52      -1.3001   -4.5116    1.3137   H         1 RES1   0.0000
    96 H53      -2.6267   -3.6342    3.0301   H         1 RES1   0.0000
    97 H54      -1.6414   -2.3118    2.4257   H         1 RES1   0.0000
    98 H55      -1.1906   -3.9218    5.0044   H         1 RES1   0.0000
    99 H56      -1.8195   -2.2899    4.9303   H         1 RES1   0.0000
   100 H57      -0.1343   -2.6056    4.4719   H         1 RES1   0.0000
   101 H58       2.3249   -4.9213    1.3187   H         1 RES1   0.0000
   102 H59       1.1959   -5.8504    2.2891   H         1 RES1   0.0000
   103 H60       2.6460   -3.5204    3.5738   H         1 RES1   0.0000
   104 H61       3.4653   -5.0602    3.3195   H         1 RES1   0.0000
   105 H62       0.8911   -4.7064    4.9120   H         1 RES1   0.0000
   106 H63       2.4911   -4.9977    5.5716   H         1 RES1   0.0000
   107 H64       1.7081   -6.2401    4.6115   H         1 RES1   0.0000
   108 N5       -2.1710   -0.6168   -1.6508   N.3       1 RES1   0.0000
   109 O7       -2.9317   -1.1671   -2.3758   O.2       1 RES1   0.0000
   110 O8       -2.3100   -0.6484   -0.4110   O.co2     1 RES1   0.0000
   111 O9       -1.2035    0.0378   -2.0710   O.co2     1 RES1   0.0000
@<TRIPOS>BOND
     1     1    10    1
     2     1    12    1
     3     1    15    1
     4     1    63    1
     5     1    65    1
     6     1    68    1
     7     1   110    1
     8     1   111    1
     9     2     3    1
    10     2    23    1
    11     2    24    1
    12     2    25    1
    13     3     4    1
    14     3    26    1
    15     3    27    1
    16     4     5    1
    17     4    28    1
    18     4    29    1
    19     5     6    1
    20     5     9    1
    21     6     7    1
    22     6    30    1
    23     6    31    1
    24     7     8    1
    25     7    32    1
    26     7    33    1
    27     8    34    1
    28     8    35    1
    29     8    36    1
    30     9    10    2
    31     9    11    1
    32    11    12    1
    33    11    37    1
    34    11    38    1
    35    12    13    1
    36    13    14    1
    37    13    39    1
    38    13    40    1
    39    14    15    2
    40    14    16    1
    41    16    17    1
    42    16    20    1
    43    17    18    1
    44    17    41    1
    45    17    42    1
    46    18    19    1
    47    18    43    1
    48    18    44    1
    49    19    45    1
    50    19    46    1
    51    19    47    1
    52    20    21    1
    53    20    48    1
    54    20    49    1
    55    21    22    1
    56    21    50    1
    57    21    51    1
    58    22    52    1
    59    22    53    1
    60    22    54    1
    61    55    56    1
    62    55    76    1
    63    55    77    1
    64    55    78    1
    65    56    57    1
    66    56    79    1
    67    56    80    1
    68    57    58    1
    69    57    81    1
    70    57    82    1
    71    58    59    1
    72    58    62    1
    73    59    60    1
    74    59    83    1
    75    59    84    1
    76    60    61    1
    77    60    85    1
    78    60    86    1
    79    61    87    1
    80    61    88    1
    81    61    89    1
    82    62    63    2
    83    62    64    1
    84    64    65    1
    85    64    90    1
    86    64    91    1
    87    65    66    1
    88    66    67    1
    89    66    92    1
    90    66    93    1
    91    67    68    2
    92    67    69    1
    93    69    70    1
    94    69    73    1
    95    70    71    1
    96    70    94    1
    97    70    95    1
    98    71    72    1
    99    71    96    1
   100    71    97    1
   101    72    98    1
   102    72    99    1
   103    72   100    1
   104    73    74    1
   105    73   101    1
   106    73   102    1
   107    74    75    1
   108    74   103    1
   109    74   104    1
   110    75   105    1
   111    75   106    1
   112    75   107    1
   113   108   109    2
   114   108   110    1
   115   108   111    1
@<TRIPOS>SUBSTRUCTURE
     1 RES1      111 GROUP             0 ****  ****    0  
