@<TRIPOS>MOLECULE
ICIGOT_geomtry_0_nunpairedes_0_charge_3 Charge: 3 Unpaired_Electrons: 4 XTB_Unpaired_Electrons: 0 XTB_Charge: 3
   197   200     1     0     0
SMALL
NoCharges
****
Generated from Architector

@<TRIPOS>ATOM
     1 Ho1      -0.1021    0.2913   -0.1590   Ho        1 RES1   0.0000
     2 C1       -0.3866   -5.0776   -2.2590   C.3       1 RES1   0.0000
     3 C2       -1.8881   -4.7451   -2.2636   C.3       1 RES1   0.0000
     4 C3       -2.2083   -3.4433   -3.0040   C.3       1 RES1   0.0000
     5 C4       -2.4497   -4.8038   -0.8365   C.3       1 RES1   0.0000
     6 C5       -3.9760   -4.6785   -0.7323   C.3       1 RES1   0.0000
     7 C6       -4.5290   -3.2521   -0.6006   C.3       1 RES1   0.0000
     8 C7       -5.9493   -3.2363    0.0118   C.3       1 RES1   0.0000
     9 C8       -6.9479   -2.5389   -0.9162   C.3       1 RES1   0.0000
    10 C9       -6.0063   -2.6104    1.4147   C.3       1 RES1   0.0000
    11 C10      -5.3576   -3.4341    2.5361   C.3       1 RES1   0.0000
    12 C11      -3.8296   -3.3456    2.6802   C.3       1 RES1   0.0000
    13 C12      -3.3649   -1.9132    2.9780   C.3       1 RES1   0.0000
    14 N1       -1.9425   -1.8130    3.3059   N.am      1 RES1   0.0000
    15 C13      -1.5907   -2.3106    4.6208   C.3       1 RES1   0.0000
    16 C14      -1.1036   -1.2859    2.4369   C.2       1 RES1   0.0000
    17 O1       -1.4775   -0.7959    1.3437   O.2       1 RES1   0.0000
    18 C15       0.4010   -1.2631    2.7465   C.3       1 RES1   0.0000
    19 O2        1.0376   -0.8088    1.5541   O.3       1 RES1   0.0000
    20 C16       2.4705   -0.8965    1.4935   C.3       1 RES1   0.0000
    21 C17       2.7751   -1.0703   -0.0089   C.2       1 RES1   0.0000
    22 O3        1.9144   -0.6477   -0.8158   O.2       1 RES1   0.0000
    23 N2        3.8324   -1.7726   -0.3815   N.am      1 RES1   0.0000
    24 C18       3.8156   -2.4856   -1.6463   C.3       1 RES1   0.0000
    25 C19       5.0712   -1.8787    0.3804   C.3       1 RES1   0.0000
    26 C20       6.2905   -1.3362   -0.3859   C.3       1 RES1   0.0000
    27 C21       6.2690    0.1606   -0.7010   C.3       1 RES1   0.0000
    28 C22       5.2810    0.5763   -1.7962   C.3       1 RES1   0.0000
    29 C23       5.7522    1.7483   -2.6751   C.3       1 RES1   0.0000
    30 C24       6.9192    1.3239   -3.5702   C.3       1 RES1   0.0000
    31 C25       6.1162    3.0197   -1.8968   C.3       1 RES1   0.0000
    32 C26       4.9266    3.9292   -1.5726   C.3       1 RES1   0.0000
    33 C27       4.2019    3.5703   -0.2755   C.3       1 RES1   0.0000
    34 C28       3.2009    4.6473    0.1584   C.3       1 RES1   0.0000
    35 C29       2.8771    4.4837    1.6442   C.3       1 RES1   0.0000
    36 C30       1.9454    4.6305   -0.7183   C.3       1 RES1   0.0000
    37 H1        0.0708   -4.8093   -3.2101   H         1 RES1   0.0000
    38 H2       -0.2517   -6.1459   -2.1137   H         1 RES1   0.0000
    39 H3        0.1576   -4.5776   -1.4556   H         1 RES1   0.0000
    40 H4       -2.3757   -5.5384   -2.8340   H         1 RES1   0.0000
    41 H5       -1.9938   -2.5540   -2.4165   H         1 RES1   0.0000
    42 H6       -3.2568   -3.4290   -3.2796   H         1 RES1   0.0000
    43 H7       -1.6304   -3.3978   -3.9238   H         1 RES1   0.0000
    44 H8       -1.9930   -4.0283   -0.1968   H         1 RES1   0.0000
    45 H9       -2.1616   -5.7693   -0.4125   H         1 RES1   0.0000
    46 H10      -4.2884   -5.2363    0.1509   H         1 RES1   0.0000
    47 H11      -4.4281   -5.1565   -1.6026   H         1 RES1   0.0000
    48 H12      -4.5721   -2.7842   -1.5834   H         1 RES1   0.0000
    49 H13      -3.8582   -2.6414    0.0112   H         1 RES1   0.0000
    50 H14      -6.2965   -4.2669    0.1078   H         1 RES1   0.0000
    51 H15      -6.7441   -1.4734   -1.0072   H         1 RES1   0.0000
    52 H16      -7.9623   -2.6590   -0.5433   H         1 RES1   0.0000
    53 H17      -6.9089   -2.9844   -1.9063   H         1 RES1   0.0000
    54 H18      -7.0604   -2.5004    1.6780   H         1 RES1   0.0000
    55 H19      -5.5816   -1.6027    1.4018   H         1 RES1   0.0000
    56 H20      -5.6242   -4.4845    2.3983   H         1 RES1   0.0000
    57 H21      -5.7985   -3.1189    3.4845   H         1 RES1   0.0000
    58 H22      -3.3424   -3.7292    1.7860   H         1 RES1   0.0000
    59 H23      -3.5574   -3.9990    3.5088   H         1 RES1   0.0000
    60 H24      -3.9397   -1.5299    3.8233   H         1 RES1   0.0000
    61 H25      -3.5440   -1.2803    2.1076   H         1 RES1   0.0000
    62 H26      -1.7519   -3.3869    4.6655   H         1 RES1   0.0000
    63 H27      -2.2414   -1.8447    5.3617   H         1 RES1   0.0000
    64 H28      -0.5623   -2.1033    4.8931   H         1 RES1   0.0000
    65 H29       0.7537   -2.2656    3.0222   H         1 RES1   0.0000
    66 H30       0.6033   -0.5698    3.5777   H         1 RES1   0.0000
    67 H31       2.8220   -1.7798    2.0386   H         1 RES1   0.0000
    68 H32       2.9207    0.0130    1.9095   H         1 RES1   0.0000
    69 H33       2.8583   -2.3432   -2.1395   H         1 RES1   0.0000
    70 H34       3.9655   -3.5463   -1.4364   H         1 RES1   0.0000
    71 H35       4.6037   -2.1577   -2.3160   H         1 RES1   0.0000
    72 H36       5.2612   -2.9307    0.6120   H         1 RES1   0.0000
    73 H37       4.9761   -1.3226    1.3124   H         1 RES1   0.0000
    74 H38       6.4429   -1.9024   -1.3030   H         1 RES1   0.0000
    75 H39       7.1553   -1.5391    0.2475   H         1 RES1   0.0000
    76 H40       7.2749    0.4246   -1.0245   H         1 RES1   0.0000
    77 H41       6.0712    0.7144    0.2168   H         1 RES1   0.0000
    78 H42       4.3090    0.8179   -1.3618   H         1 RES1   0.0000
    79 H43       5.1255   -0.2538   -2.4829   H         1 RES1   0.0000
    80 H44       4.9152    1.9964   -3.3406   H         1 RES1   0.0000
    81 H45       7.8379    1.2152   -3.0018   H         1 RES1   0.0000
    82 H46       7.0924    2.0729   -4.3393   H         1 RES1   0.0000
    83 H47       6.7089    0.3796   -4.0681   H         1 RES1   0.0000
    84 H48       6.8184    3.5911   -2.5044   H         1 RES1   0.0000
    85 H49       6.6288    2.7633   -0.9708   H         1 RES1   0.0000
    86 H50       4.2272    3.9167   -2.4114   H         1 RES1   0.0000
    87 H51       5.3007    4.9497   -1.4767   H         1 RES1   0.0000
    88 H52       4.9507    3.4539    0.5114   H         1 RES1   0.0000
    89 H53       3.6755    2.6137   -0.3807   H         1 RES1   0.0000
    90 H54       3.6717    5.6267    0.0341   H         1 RES1   0.0000
    91 H55       2.6004    3.4561    1.8751   H         1 RES1   0.0000
    92 H56       2.0803    5.1611    1.9409   H         1 RES1   0.0000
    93 H57       3.7520    4.7244    2.2428   H         1 RES1   0.0000
    94 H58       1.5186    3.6247   -0.8135   H         1 RES1   0.0000
    95 H59       2.1937    4.9776   -1.7180   H         1 RES1   0.0000
    96 H60       1.1907    5.3053   -0.3208   H         1 RES1   0.0000
    97 C31       3.9984   -0.2696    5.8670   C.3       1 RES1   0.0000
    98 C32       2.7718    0.3187    5.1715   C.3       1 RES1   0.0000
    99 C33       3.2076    1.3910    4.1726   C.3       1 RES1   0.0000
   100 C34       1.7855    0.8355    6.2327   C.3       1 RES1   0.0000
   101 C35       0.3825    1.2277    5.7445   C.3       1 RES1   0.0000
   102 C36       0.2651    2.6876    5.2899   C.3       1 RES1   0.0000
   103 C37      -0.8401    2.9345    4.2507   C.3       1 RES1   0.0000
   104 C38      -0.7049    4.3617    3.7160   C.3       1 RES1   0.0000
   105 C39      -2.2330    2.6599    4.8351   C.3       1 RES1   0.0000
   106 C40      -3.3937    2.8561    3.8535   C.3       1 RES1   0.0000
   107 C41      -3.4561    1.8510    2.6911   C.3       1 RES1   0.0000
   108 C42      -3.9847    2.5432    1.4322   C.3       1 RES1   0.0000
   109 N3       -4.0605    1.6336    0.2915   N.am      1 RES1   0.0000
   110 C43      -5.3508    1.1153   -0.1135   C.3       1 RES1   0.0000
   111 C44      -2.9431    1.2752   -0.3064   C.2       1 RES1   0.0000
   112 O4       -1.8149    1.6903    0.0426   O.2       1 RES1   0.0000
   113 C45      -3.0301    0.2969   -1.4768   C.3       1 RES1   0.0000
   114 O5       -1.7106   -0.0459   -1.9083   O.3       1 RES1   0.0000
   115 C46      -1.2811    0.4802   -3.1704   C.3       1 RES1   0.0000
   116 C47       0.0674    1.1917   -2.9990   C.2       1 RES1   0.0000
   117 O6        0.4047    1.5493   -1.8446   O.2       1 RES1   0.0000
   118 N4        0.7885    1.4494   -4.0695   N.am      1 RES1   0.0000
   119 C48       2.0293    2.1871   -3.9517   C.3       1 RES1   0.0000
   120 C49       0.5003    0.9376   -5.4000   C.3       1 RES1   0.0000
   121 C50       1.1186   -0.4572   -5.5752   C.3       1 RES1   0.0000
   122 C51       0.5341   -1.2115   -6.7707   C.3       1 RES1   0.0000
   123 C52      -0.9323   -1.6221   -6.5684   C.3       1 RES1   0.0000
   124 C53      -1.9651   -0.6951   -7.2450   C.3       1 RES1   0.0000
   125 C54      -2.3257   -1.2332   -8.6285   C.3       1 RES1   0.0000
   126 C55      -3.2231   -0.5238   -6.3797   C.3       1 RES1   0.0000
   127 C56      -4.1610    0.5615   -6.9221   C.3       1 RES1   0.0000
   128 C57      -5.1732    1.0932   -5.9026   C.3       1 RES1   0.0000
   129 C58      -4.5707    1.7826   -4.6694   C.3       1 RES1   0.0000
   130 C59      -3.5296    2.8479   -5.0157   C.3       1 RES1   0.0000
   131 C60      -5.6822    2.4021   -3.8227   C.3       1 RES1   0.0000
   132 H61       4.7063   -0.6556    5.1372   H         1 RES1   0.0000
   133 H62       3.7092   -1.0824    6.5277   H         1 RES1   0.0000
   134 H63       4.5017    0.4873    6.4591   H         1 RES1   0.0000
   135 H64       2.2931   -0.5036    4.6186   H         1 RES1   0.0000
   136 H65       3.5439    2.2771    4.7010   H         1 RES1   0.0000
   137 H66       2.3927    1.6681    3.5046   H         1 RES1   0.0000
   138 H67       4.0485    1.0342    3.5787   H         1 RES1   0.0000
   139 H68       2.2253    1.6906    6.7448   H         1 RES1   0.0000
   140 H69       1.6743    0.0430    6.9746   H         1 RES1   0.0000
   141 H70      -0.3208    1.0511    6.5602   H         1 RES1   0.0000
   142 H71       0.0789    0.5707    4.9208   H         1 RES1   0.0000
   143 H72       1.2149    3.0107    4.8632   H         1 RES1   0.0000
   144 H73       0.0790    3.3205    6.1576   H         1 RES1   0.0000
   145 H74      -0.6966    2.2224    3.4151   H         1 RES1   0.0000
   146 H75      -0.9723    5.0735    4.4906   H         1 RES1   0.0000
   147 H76      -1.3442    4.5383    2.8553   H         1 RES1   0.0000
   148 H77       0.3234    4.5738    3.4274   H         1 RES1   0.0000
   149 H78      -2.3914    3.3351    5.6780   H         1 RES1   0.0000
   150 H79      -2.2535    1.6408    5.2283   H         1 RES1   0.0000
   151 H80      -3.3417    3.8664    3.4494   H         1 RES1   0.0000
   152 H81      -4.3184    2.7960    4.4263   H         1 RES1   0.0000
   153 H82      -4.1148    1.0219    2.9532   H         1 RES1   0.0000
   154 H83      -2.4699    1.4330    2.4676   H         1 RES1   0.0000
   155 H84      -3.3135    3.3597    1.1595   H         1 RES1   0.0000
   156 H85      -4.9762    2.9530    1.6182   H         1 RES1   0.0000
   157 H86      -6.1277    1.5689    0.4961   H         1 RES1   0.0000
   158 H87      -5.3897    0.0313    0.0096   H         1 RES1   0.0000
   159 H88      -5.5614    1.3553   -1.1559   H         1 RES1   0.0000
   160 H89      -3.6269    0.7336   -2.2876   H         1 RES1   0.0000
   161 H90      -3.5178   -0.6314   -1.1510   H         1 RES1   0.0000
   162 H91      -1.9865    1.2221   -3.5623   H         1 RES1   0.0000
   163 H92      -1.2092   -0.3629   -3.8710   H         1 RES1   0.0000
   164 H93       2.2742    2.3230   -2.9020   H         1 RES1   0.0000
   165 H94       1.9059    3.1581   -4.4288   H         1 RES1   0.0000
   166 H95       2.8305    1.6393   -4.4466   H         1 RES1   0.0000
   167 H96       0.9279    1.6298   -6.1273   H         1 RES1   0.0000
   168 H97      -0.5725    0.8953   -5.5691   H         1 RES1   0.0000
   169 H98       0.9460   -1.0393   -4.6636   H         1 RES1   0.0000
   170 H99       2.1984   -0.3647   -5.7004   H         1 RES1   0.0000
   171 H100      1.1424   -2.1030   -6.9263   H         1 RES1   0.0000
   172 H101      0.6294   -0.5955   -7.6630   H         1 RES1   0.0000
   173 H102     -1.1377   -1.6885   -5.4946   H         1 RES1   0.0000
   174 H103     -1.0720   -2.6234   -6.9724   H         1 RES1   0.0000
   175 H104     -1.5164    0.2952   -7.3894   H         1 RES1   0.0000
   176 H105     -2.8849   -2.1645   -8.5471   H         1 RES1   0.0000
   177 H106     -1.4205   -1.4164   -9.2026   H         1 RES1   0.0000
   178 H107     -2.9304   -0.5140   -9.1745   H         1 RES1   0.0000
   179 H108     -2.9163   -0.2626   -5.3630   H         1 RES1   0.0000
   180 H109     -3.7549   -1.4757   -6.3214   H         1 RES1   0.0000
   181 H110     -4.7238    0.1538   -7.7606   H         1 RES1   0.0000
   182 H111     -3.5707    1.3942   -7.3089   H         1 RES1   0.0000
   183 H112     -5.7996    0.2668   -5.5562   H         1 RES1   0.0000
   184 H113     -5.8247    1.8007   -6.4164   H         1 RES1   0.0000
   185 H114     -4.0857    0.9930   -4.0724   H         1 RES1   0.0000
   186 H115     -3.9722    3.6068   -5.6529   H         1 RES1   0.0000
   187 H116     -2.6781    2.4220   -5.5423   H         1 RES1   0.0000
   188 H117     -3.1710    3.3439   -4.1125   H         1 RES1   0.0000
   189 H118     -6.2164    3.1521   -4.3976   H         1 RES1   0.0000
   190 H119     -5.2717    2.8938   -2.9404   H         1 RES1   0.0000
   191 H120     -6.4009    1.6449   -3.5162   H         1 RES1   0.0000
   192 O7       -0.2273   -2.1224   -0.6648   O.3       1 RES1   0.0000
   193 H121     -0.9185   -2.7698   -0.4132   H         1 RES1   0.0000
   194 H122      0.2402   -2.5491   -1.4030   H         1 RES1   0.0000
   195 O8        0.7654    2.0131    1.2697   O.3       1 RES1   0.0000
   196 H123      0.4416    2.3272    2.1378   H         1 RES1   0.0000
   197 H124      0.9917    2.8354    0.7883   H         1 RES1   0.0000
@<TRIPOS>BOND
     1     1    17    1
     2     1    19    1
     3     1    22    1
     4     1   112    1
     5     1   114    1
     6     1   117    1
     7     1   192    1
     8     1   195    1
     9     2     3    1
    10     2    37    1
    11     2    38    1
    12     2    39    1
    13     3     4    1
    14     3     5    1
    15     3    40    1
    16     4    41    1
    17     4    42    1
    18     4    43    1
    19     5     6    1
    20     5    44    1
    21     5    45    1
    22     6     7    1
    23     6    46    1
    24     6    47    1
    25     7     8    1
    26     7    48    1
    27     7    49    1
    28     8     9    1
    29     8    10    1
    30     8    50    1
    31     9    51    1
    32     9    52    1
    33     9    53    1
    34    10    11    1
    35    10    54    1
    36    10    55    1
    37    11    12    1
    38    11    56    1
    39    11    57    1
    40    12    13    1
    41    12    58    1
    42    12    59    1
    43    13    14    1
    44    13    60    1
    45    13    61    1
    46    14    15    1
    47    14    16    1
    48    15    62    1
    49    15    63    1
    50    15    64    1
    51    16    17    2
    52    16    18    1
    53    18    19    1
    54    18    65    1
    55    18    66    1
    56    19    20    1
    57    20    21    1
    58    20    67    1
    59    20    68    1
    60    21    22    2
    61    21    23    1
    62    23    24    1
    63    23    25    1
    64    24    69    1
    65    24    70    1
    66    24    71    1
    67    25    26    1
    68    25    72    1
    69    25    73    1
    70    26    27    1
    71    26    74    1
    72    26    75    1
    73    27    28    1
    74    27    76    1
    75    27    77    1
    76    28    29    1
    77    28    78    1
    78    28    79    1
    79    29    30    1
    80    29    31    1
    81    29    80    1
    82    30    81    1
    83    30    82    1
    84    30    83    1
    85    31    32    1
    86    31    84    1
    87    31    85    1
    88    32    33    1
    89    32    86    1
    90    32    87    1
    91    33    34    1
    92    33    88    1
    93    33    89    1
    94    34    35    1
    95    34    36    1
    96    34    90    1
    97    35    91    1
    98    35    92    1
    99    35    93    1
   100    36    94    1
   101    36    95    1
   102    36    96    1
   103    97    98    1
   104    97   132    1
   105    97   133    1
   106    97   134    1
   107    98    99    1
   108    98   100    1
   109    98   135    1
   110    99   136    1
   111    99   137    1
   112    99   138    1
   113   100   101    1
   114   100   139    1
   115   100   140    1
   116   101   102    1
   117   101   141    1
   118   101   142    1
   119   102   103    1
   120   102   143    1
   121   102   144    1
   122   103   104    1
   123   103   105    1
   124   103   145    1
   125   104   146    1
   126   104   147    1
   127   104   148    1
   128   105   106    1
   129   105   149    1
   130   105   150    1
   131   106   107    1
   132   106   151    1
   133   106   152    1
   134   107   108    1
   135   107   153    1
   136   107   154    1
   137   108   109    1
   138   108   155    1
   139   108   156    1
   140   109   110    1
   141   109   111    1
   142   110   157    1
   143   110   158    1
   144   110   159    1
   145   111   112    2
   146   111   113    1
   147   113   114    1
   148   113   160    1
   149   113   161    1
   150   114   115    1
   151   115   116    1
   152   115   162    1
   153   115   163    1
   154   116   117    2
   155   116   118    1
   156   118   119    1
   157   118   120    1
   158   119   164    1
   159   119   165    1
   160   119   166    1
   161   120   121    1
   162   120   167    1
   163   120   168    1
   164   121   122    1
   165   121   169    1
   166   121   170    1
   167   122   123    1
   168   122   171    1
   169   122   172    1
   170   123   124    1
   171   123   173    1
   172   123   174    1
   173   124   125    1
   174   124   126    1
   175   124   175    1
   176   125   176    1
   177   125   177    1
   178   125   178    1
   179   126   127    1
   180   126   179    1
   181   126   180    1
   182   127   128    1
   183   127   181    1
   184   127   182    1
   185   128   129    1
   186   128   183    1
   187   128   184    1
   188   129   130    1
   189   129   131    1
   190   129   185    1
   191   130   186    1
   192   130   187    1
   193   130   188    1
   194   131   189    1
   195   131   190    1
   196   131   191    1
   197   192   193    1
   198   192   194    1
   199   195   196    1
   200   195   197    1
@<TRIPOS>SUBSTRUCTURE
     1 RES1      197 GROUP             0 ****  ****    0  
