@<TRIPOS>MOLECULE
bicapped_trigonal_prismatic_0_nunpairedes_0_charge_2 Charge: 2 Unpaired_Electrons: 4 XTB_Unpaired_Electrons: 0 XTB_Charge: 2
   315   319     1     0     0
SMALL
NoCharges
****
Generated from Architector

@<TRIPOS>ATOM
     1 Ho1       0.0190    0.1504   -0.0717   Ho        1 RES1   0.0000
     2 C1       -0.1878    0.4548    8.4781   C.3       1 RES1   0.0000
     3 C2       -0.6275   -0.5193    7.3928   C.3       1 RES1   0.0000
     4 C3        0.5359   -1.1589    6.6309   C.3       1 RES1   0.0000
     5 C4        1.3940   -2.1023    7.4702   C.3       1 RES1   0.0000
     6 C5        2.2862   -3.0254    6.6284   C.3       1 RES1   0.0000
     7 C6        3.7129   -2.5463    6.3219   C.3       1 RES1   0.0000
     8 C7        3.8604   -1.4934    5.2121   C.3       1 RES1   0.0000
     9 C8        5.3145   -1.4276    4.7179   C.3       1 RES1   0.0000
    10 C9        5.6158   -0.5657    3.4818   C.3       1 RES1   0.0000
    11 C10       5.2893   -1.0774    2.0562   C.3       1 RES1   0.0000
    12 N1        3.9216   -1.4547    1.6879   N.am      1 RES1   0.0000
    13 C11       3.7206   -2.8879    1.4296   C.3       1 RES1   0.0000
    14 C12       3.7256   -3.8254    2.6287   C.3       1 RES1   0.0000
    15 C13       3.6754   -5.2857    2.1710   C.3       1 RES1   0.0000
    16 C14       2.3517   -5.7427    1.5334   C.3       1 RES1   0.0000
    17 C15       1.3590   -6.4007    2.5034   C.3       1 RES1   0.0000
    18 C16       0.5109   -5.4662    3.3712   C.3       1 RES1   0.0000
    19 C17      -0.6232   -4.7621    2.6182   C.3       1 RES1   0.0000
    20 C18      -1.7484   -4.4120    3.5987   C.3       1 RES1   0.0000
    21 C19      -3.0411   -3.7718    3.0345   C.3       1 RES1   0.0000
    22 C20      -3.1095   -3.5611    1.5214   C.3       1 RES1   0.0000
    23 C21       2.9782   -0.6302    1.2377   C.2       1 RES1   0.0000
    24 O1        1.8126   -1.0188    0.9987   O.2       1 RES1   0.0000
    25 C22       3.2750    0.8382    0.8615   C.3       1 RES1   0.0000
    26 C23       3.3045    1.8376    2.0439   C.3       1 RES1   0.0000
    27 C24       2.9609    1.2780    3.4333   C.3       1 RES1   0.0000
    28 C25       1.5016    1.4621    3.8040   C.3       1 RES1   0.0000
    29 O2        2.1971    1.2289   -0.0151   O.3       1 RES1   0.0000
    30 C26       2.4338    1.5804   -1.3932   C.3       1 RES1   0.0000
    31 C27       3.3917    2.7778   -1.5384   C.3       1 RES1   0.0000
    32 C28       3.8105    3.0807   -2.9755   C.3       1 RES1   0.0000
    33 C29       4.7737    2.0594   -3.5738   C.3       1 RES1   0.0000
    34 C30       1.0447    2.0958   -1.8285   C.2       1 RES1   0.0000
    35 O3        0.3001    2.4810   -0.9125   O.2       1 RES1   0.0000
    36 N2        0.7309    2.3200   -3.1203   N.am      1 RES1   0.0000
    37 C31      -0.2364    3.3948   -3.3935   C.3       1 RES1   0.0000
    38 C32      -1.7138    3.1005   -3.0781   C.3       1 RES1   0.0000
    39 C33      -2.3201    3.7589   -1.8301   C.3       1 RES1   0.0000
    40 C34      -2.5907    5.2650   -1.9092   C.3       1 RES1   0.0000
    41 C35      -3.4773    5.7077   -0.7393   C.3       1 RES1   0.0000
    42 C36      -3.9750    7.1550   -0.7998   C.3       1 RES1   0.0000
    43 C37      -2.9123    8.2541   -0.7428   C.3       1 RES1   0.0000
    44 C38      -1.9801    8.2559    0.4743   C.3       1 RES1   0.0000
    45 C39      -2.5423    8.8224    1.7845   C.3       1 RES1   0.0000
    46 C40      -3.5001    7.9130    2.5438   C.3       1 RES1   0.0000
    47 C41       0.7656    1.2036   -4.0647   C.3       1 RES1   0.0000
    48 C42       1.3559    1.4104   -5.4561   C.3       1 RES1   0.0000
    49 C43       1.1533    0.0801   -6.1945   C.3       1 RES1   0.0000
    50 C44       1.9054   -0.0449   -7.5171   C.3       1 RES1   0.0000
    51 C45       3.4242    0.1240   -7.4125   C.3       1 RES1   0.0000
    52 C46       4.1018   -0.6082   -6.2542   C.3       1 RES1   0.0000
    53 C47       3.9893   -2.1323   -6.2989   C.3       1 RES1   0.0000
    54 C48       4.6708   -2.7795   -5.0871   C.3       1 RES1   0.0000
    55 C49       3.8932   -2.5887   -3.7833   C.3       1 RES1   0.0000
    56 C50       4.6245   -3.2238   -2.6071   C.3       1 RES1   0.0000
    57 H1       -1.0550    0.9267    8.9350   H         1 RES1   0.0000
    58 H2        0.4443    1.2367    8.0590   H         1 RES1   0.0000
    59 H3        0.3636   -0.0628    9.2577   H         1 RES1   0.0000
    60 H4       -1.2582    0.0180    6.6773   H         1 RES1   0.0000
    61 H5       -1.2382   -1.3045    7.8419   H         1 RES1   0.0000
    62 H6        1.1670   -0.3714    6.2162   H         1 RES1   0.0000
    63 H7        0.1186   -1.7287    5.7953   H         1 RES1   0.0000
    64 H8        0.7200   -2.7248    8.0610   H         1 RES1   0.0000
    65 H9        2.0062   -1.5361    8.1706   H         1 RES1   0.0000
    66 H10       1.7756   -3.2562    5.6901   H         1 RES1   0.0000
    67 H11       2.3883   -3.9664    7.1722   H         1 RES1   0.0000
    68 H12       4.2787   -3.4324    6.0201   H         1 RES1   0.0000
    69 H13       4.1692   -2.1754    7.2412   H         1 RES1   0.0000
    70 H14       3.5612   -0.5196    5.6024   H         1 RES1   0.0000
    71 H15       3.1923   -1.7506    4.3889   H         1 RES1   0.0000
    72 H16       5.6836   -2.4397    4.5475   H         1 RES1   0.0000
    73 H17       5.9093   -1.0102    5.5344   H         1 RES1   0.0000
    74 H18       6.7018   -0.4339    3.4579   H         1 RES1   0.0000
    75 H19       5.1927    0.4218    3.6276   H         1 RES1   0.0000
    76 H20       5.9062   -1.9586    1.8734   H         1 RES1   0.0000
    77 H21       5.6209   -0.2880    1.3743   H         1 RES1   0.0000
    78 H22       4.5221   -3.1945    0.7463   H         1 RES1   0.0000
    79 H23       2.7682   -2.9801    0.9062   H         1 RES1   0.0000
    80 H24       2.8798   -3.6035    3.2750   H         1 RES1   0.0000
    81 H25       4.6398   -3.6787    3.2015   H         1 RES1   0.0000
    82 H26       3.8861   -5.9207    3.0314   H         1 RES1   0.0000
    83 H27       4.4875   -5.4464    1.4576   H         1 RES1   0.0000
    84 H28       2.5981   -6.4931    0.7784   H         1 RES1   0.0000
    85 H29       1.8541   -4.9214    1.0162   H         1 RES1   0.0000
    86 H30       1.9151   -7.0777    3.1580   H         1 RES1   0.0000
    87 H31       0.6719   -7.0219    1.9195   H         1 RES1   0.0000
    88 H32       1.1431   -4.7343    3.8731   H         1 RES1   0.0000
    89 H33       0.0681   -6.0834    4.1555   H         1 RES1   0.0000
    90 H34      -1.0022   -5.4327    1.8477   H         1 RES1   0.0000
    91 H35      -0.2473   -3.8703    2.1160   H         1 RES1   0.0000
    92 H36      -1.3409   -3.7472    4.3665   H         1 RES1   0.0000
    93 H37      -2.0281   -5.3394    4.1053   H         1 RES1   0.0000
    94 H38      -3.2244   -2.8229    3.5501   H         1 RES1   0.0000
    95 H39      -3.8797   -4.4210    3.3006   H         1 RES1   0.0000
    96 H40      -2.2883   -2.9641    1.1214   H         1 RES1   0.0000
    97 H41      -4.0462   -3.0584    1.2807   H         1 RES1   0.0000
    98 H42      -3.1065   -4.5192    1.0145   H         1 RES1   0.0000
    99 H43       4.2170    0.8587    0.3054   H         1 RES1   0.0000
   100 H44       4.2853    2.3105    2.0691   H         1 RES1   0.0000
   101 H45       2.5735    2.6161    1.8049   H         1 RES1   0.0000
   102 H46       3.5736    1.7803    4.1870   H         1 RES1   0.0000
   103 H47       3.1777    0.2150    3.4641   H         1 RES1   0.0000
   104 H48       1.2660    2.5195    3.8918   H         1 RES1   0.0000
   105 H49       1.2948    0.9798    4.7563   H         1 RES1   0.0000
   106 H50       0.8747    1.0186    3.0387   H         1 RES1   0.0000
   107 H51       2.7953    0.7122   -1.9596   H         1 RES1   0.0000
   108 H52       2.9068    3.6515   -1.0975   H         1 RES1   0.0000
   109 H53       4.2921    2.5727   -0.9595   H         1 RES1   0.0000
   110 H54       4.3059    4.0539   -2.9815   H         1 RES1   0.0000
   111 H55       2.9217    3.1608   -3.6010   H         1 RES1   0.0000
   112 H56       5.6705    1.9693   -2.9650   H         1 RES1   0.0000
   113 H57       5.0773    2.3878   -4.5649   H         1 RES1   0.0000
   114 H58       4.3210    1.0744   -3.6625   H         1 RES1   0.0000
   115 H59      -0.1400    3.6024   -4.4601   H         1 RES1   0.0000
   116 H60       0.1013    4.2768   -2.8449   H         1 RES1   0.0000
   117 H61      -1.8209    2.0206   -2.9540   H         1 RES1   0.0000
   118 H62      -2.3241    3.4045   -3.9290   H         1 RES1   0.0000
   119 H63      -1.6989    3.5449   -0.9575   H         1 RES1   0.0000
   120 H64      -3.2927    3.2748   -1.6831   H         1 RES1   0.0000
   121 H65      -3.1056    5.4953   -2.8431   H         1 RES1   0.0000
   122 H66      -1.6530    5.8208   -1.9005   H         1 RES1   0.0000
   123 H67      -2.9472    5.5333    0.1992   H         1 RES1   0.0000
   124 H68      -4.3668    5.0687   -0.7200   H         1 RES1   0.0000
   125 H69      -4.6811    7.2954    0.0180   H         1 RES1   0.0000
   126 H70      -4.5335    7.2866   -1.7281   H         1 RES1   0.0000
   127 H71      -3.4246    9.2170   -0.7817   H         1 RES1   0.0000
   128 H72      -2.2932    8.1907   -1.6420   H         1 RES1   0.0000
   129 H73      -1.1182    8.8778    0.2109   H         1 RES1   0.0000
   130 H74      -1.6048    7.2448    0.6478   H         1 RES1   0.0000
   131 H75      -3.0371    9.7716    1.5794   H         1 RES1   0.0000
   132 H76      -1.6912    9.0384    2.4372   H         1 RES1   0.0000
   133 H77      -4.4582    7.8304    2.0439   H         1 RES1   0.0000
   134 H78      -3.6775    8.3145    3.5374   H         1 RES1   0.0000
   135 H79      -3.0824    6.9146    2.6547   H         1 RES1   0.0000
   136 H80      -0.2785    0.8887   -4.1939   H         1 RES1   0.0000
   137 H81       1.2905    0.3807   -3.5724   H         1 RES1   0.0000
   138 H82       2.4154    1.6521   -5.3965   H         1 RES1   0.0000
   139 H83       0.8496    2.2163   -5.9919   H         1 RES1   0.0000
   140 H84       0.0844   -0.0522   -6.3892   H         1 RES1   0.0000
   141 H85       1.4591   -0.7371   -5.5371   H         1 RES1   0.0000
   142 H86       1.5274    0.7008   -8.2199   H         1 RES1   0.0000
   143 H87       1.6733   -1.0264   -7.9343   H         1 RES1   0.0000
   144 H88       3.6529    1.1875   -7.3165   H         1 RES1   0.0000
   145 H89       3.8596   -0.2179   -8.3519   H         1 RES1   0.0000
   146 H90       3.6915   -0.2510   -5.3083   H         1 RES1   0.0000
   147 H91       5.1628   -0.3440   -6.2698   H         1 RES1   0.0000
   148 H92       4.4624   -2.4991   -7.2129   H         1 RES1   0.0000
   149 H93       2.9401   -2.4379   -6.3209   H         1 RES1   0.0000
   150 H94       5.6745   -2.3586   -4.9713   H         1 RES1   0.0000
   151 H95       4.7802   -3.8517   -5.2662   H         1 RES1   0.0000
   152 H96       2.9020   -3.0409   -3.8846   H         1 RES1   0.0000
   153 H97       3.7546   -1.5206   -3.5837   H         1 RES1   0.0000
   154 H98       4.7934   -4.2793   -2.8008   H         1 RES1   0.0000
   155 H99       4.0328   -3.1275   -1.7004   H         1 RES1   0.0000
   156 H100      5.5904   -2.7450   -2.4555   H         1 RES1   0.0000
   157 C51       3.6385    1.4504    8.8379   C.3       1 RES1   0.0000
   158 C52       4.0513    2.2494    7.6081   C.3       1 RES1   0.0000
   159 C53       2.9036    3.0553    6.9884   C.3       1 RES1   0.0000
   160 C54       2.3898    4.1630    7.9119   C.3       1 RES1   0.0000
   161 C55       1.6404    5.2944    7.1948   C.3       1 RES1   0.0000
   162 C56       0.1187    5.1579    7.0775   C.3       1 RES1   0.0000
   163 C57      -0.3845    4.0921    6.1010   C.3       1 RES1   0.0000
   164 C58      -1.7781    4.4301    5.5491   C.3       1 RES1   0.0000
   165 C59      -2.2799    3.3593    4.5610   C.3       1 RES1   0.0000
   166 C60      -2.5395    3.8323    3.1129   C.3       1 RES1   0.0000
   167 N3       -1.5165    3.3529    2.1935   N.am      1 RES1   0.0000
   168 C61      -0.5319    4.3020    1.6550   C.3       1 RES1   0.0000
   169 C62       0.2876    5.1018    2.6546   C.3       1 RES1   0.0000
   170 C63       1.0580    6.2387    1.9694   C.3       1 RES1   0.0000
   171 C64       2.3402    5.8016    1.2327   C.3       1 RES1   0.0000
   172 C65       3.6184    6.4388    1.8221   C.3       1 RES1   0.0000
   173 C66       4.6979    5.4342    2.2439   C.3       1 RES1   0.0000
   174 C67       5.4675    4.8307    1.0698   C.3       1 RES1   0.0000
   175 C68       6.6594    3.9839    1.5264   C.3       1 RES1   0.0000
   176 C69       7.4989    3.4389    0.3593   C.3       1 RES1   0.0000
   177 C70       7.0956    2.0305   -0.0618   C.3       1 RES1   0.0000
   178 C71      -1.4640    2.0934    1.7766   C.2       1 RES1   0.0000
   179 O4       -0.4036    1.6005    1.3475   O.2       1 RES1   0.0000
   180 C72      -2.7182    1.2036    1.6935   C.3       1 RES1   0.0000
   181 C73      -3.0498    0.4089    2.9667   C.3       1 RES1   0.0000
   182 C74      -1.8501   -0.1508    3.7307   C.3       1 RES1   0.0000
   183 C75      -0.9488   -1.0956    2.9434   C.3       1 RES1   0.0000
   184 O5       -2.4794    0.2725    0.6184   O.3       1 RES1   0.0000
   185 C76      -3.4091    0.3545   -0.4826   C.3       1 RES1   0.0000
   186 C77      -4.8394   -0.0252   -0.0877   C.3       1 RES1   0.0000
   187 C78      -5.9074    0.4066   -1.1043   C.3       1 RES1   0.0000
   188 C79      -6.2614    1.8886   -1.0111   C.3       1 RES1   0.0000
   189 C80      -2.6123   -0.3293   -1.6228   C.2       1 RES1   0.0000
   190 O6       -1.4803    0.2150   -1.7647   O.2       1 RES1   0.0000
   191 N4       -3.0021   -1.2900   -2.4470   N.am      1 RES1   0.0000
   192 C81      -4.1367   -2.1935   -2.2625   C.3       1 RES1   0.0000
   193 C82      -3.9855   -3.6200   -2.8103   C.3       1 RES1   0.0000
   194 C83      -2.9636   -4.5120   -2.0765   C.3       1 RES1   0.0000
   195 C84      -3.6498   -5.7530   -1.4890   C.3       1 RES1   0.0000
   196 C85      -2.6691   -6.7096   -0.8124   C.3       1 RES1   0.0000
   197 C86      -3.3083   -7.9830   -0.2434   C.3       1 RES1   0.0000
   198 C87      -4.4144   -7.7871    0.7994   C.3       1 RES1   0.0000
   199 C88      -4.0079   -6.9551    2.0265   C.3       1 RES1   0.0000
   200 C89      -4.0583   -7.7112    3.3567   C.3       1 RES1   0.0000
   201 C90      -2.8831   -8.6644    3.5332   C.3       1 RES1   0.0000
   202 C91      -2.1927   -1.5281   -3.6441   C.3       1 RES1   0.0000
   203 C92      -2.9228   -1.1700   -4.9482   C.3       1 RES1   0.0000
   204 C93      -3.4516    0.2707   -4.9961   C.3       1 RES1   0.0000
   205 C94      -3.6047    0.7686   -6.4403   C.3       1 RES1   0.0000
   206 C95      -4.6388    1.8850   -6.6139   C.3       1 RES1   0.0000
   207 C96      -4.3111    3.2286   -5.9579   C.3       1 RES1   0.0000
   208 C97      -3.0784    3.9395   -6.5247   C.3       1 RES1   0.0000
   209 C98      -2.9539    5.3670   -5.9808   C.3       1 RES1   0.0000
   210 C99      -1.5950    6.0047   -6.2734   C.3       1 RES1   0.0000
   211 C100     -1.4162    7.3396   -5.5568   C.3       1 RES1   0.0000
   212 H101      4.4882    0.8955    9.2282   H         1 RES1   0.0000
   213 H102      2.8508    0.7435    8.5886   H         1 RES1   0.0000
   214 H103      3.2799    2.1073    9.6247   H         1 RES1   0.0000
   215 H104      4.4520    1.5604    6.8566   H         1 RES1   0.0000
   216 H105      4.8562    2.9355    7.8799   H         1 RES1   0.0000
   217 H106      2.0869    2.3826    6.7202   H         1 RES1   0.0000
   218 H107      3.2743    3.5111    6.0652   H         1 RES1   0.0000
   219 H108      3.2567    4.6034    8.4091   H         1 RES1   0.0000
   220 H109      1.7542    3.7360    8.6872   H         1 RES1   0.0000
   221 H110      2.0725    5.4364    6.2007   H         1 RES1   0.0000
   222 H111      1.8210    6.2157    7.7513   H         1 RES1   0.0000
   223 H112     -0.2559    6.1257    6.7349   H         1 RES1   0.0000
   224 H113     -0.3041    4.9743    8.0662   H         1 RES1   0.0000
   225 H114     -0.4315    3.1210    6.5991   H         1 RES1   0.0000
   226 H115      0.3117    4.0106    5.2652   H         1 RES1   0.0000
   227 H116     -1.7476    5.4112    5.0710   H         1 RES1   0.0000
   228 H117     -2.4729    4.5154    6.3866   H         1 RES1   0.0000
   229 H118     -3.1950    2.9148    4.9523   H         1 RES1   0.0000
   230 H119     -1.5328    2.5674    4.5172   H         1 RES1   0.0000
   231 H120     -2.5551    4.9208    3.0670   H         1 RES1   0.0000
   232 H121     -3.5133    3.4739    2.7725   H         1 RES1   0.0000
   233 H122     -1.1052    5.0039    1.0397   H         1 RES1   0.0000
   234 H123      0.1299    3.7300    1.0014   H         1 RES1   0.0000
   235 H124      0.9936    4.4491    3.1643   H         1 RES1   0.0000
   236 H125     -0.3676    5.5371    3.4091   H         1 RES1   0.0000
   237 H126      1.3182    6.9702    2.7368   H         1 RES1   0.0000
   238 H127      0.3893    6.7462    1.2725   H         1 RES1   0.0000
   239 H128      2.2590    6.0645    0.1751   H         1 RES1   0.0000
   240 H129      2.4394    4.7141    1.2738   H         1 RES1   0.0000
   241 H130      3.3455    7.0199    2.7054   H         1 RES1   0.0000
   242 H131      4.0478    7.1438    1.1058   H         1 RES1   0.0000
   243 H132      4.2387    4.6423    2.8432   H         1 RES1   0.0000
   244 H133      5.4083    5.9568    2.8883   H         1 RES1   0.0000
   245 H134      5.8384    5.6463    0.4455   H         1 RES1   0.0000
   246 H135      4.7946    4.2295    0.4542   H         1 RES1   0.0000
   247 H136      6.3141    3.1482    2.1461   H         1 RES1   0.0000
   248 H137      7.2976    4.6004    2.1610   H         1 RES1   0.0000
   249 H138      8.5505    3.4158    0.6469   H         1 RES1   0.0000
   250 H139      7.4093    4.1128   -0.4949   H         1 RES1   0.0000
   251 H140      7.2391    1.3307    0.7578   H         1 RES1   0.0000
   252 H141      7.6940    1.6928   -0.9030   H         1 RES1   0.0000
   253 H142      6.0513    2.0023   -0.3616   H         1 RES1   0.0000
   254 H143     -3.5662    1.8439    1.4242   H         1 RES1   0.0000
   255 H144     -3.6277    1.0458    3.6390   H         1 RES1   0.0000
   256 H145     -3.6933   -0.4208    2.6645   H         1 RES1   0.0000
   257 H146     -2.2558   -0.7048    4.5792   H         1 RES1   0.0000
   258 H147     -1.2528    0.6689    4.1343   H         1 RES1   0.0000
   259 H148     -0.2585   -1.5746    3.6358   H         1 RES1   0.0000
   260 H149     -0.3466   -0.5796    2.1754   H         1 RES1   0.0000
   261 H150     -1.5368   -1.8644    2.4589   H         1 RES1   0.0000
   262 H151     -3.4319    1.4094   -0.8120   H         1 RES1   0.0000
   263 H152     -4.9018   -1.0900    0.1221   H         1 RES1   0.0000
   264 H153     -5.0690    0.4938    0.8470   H         1 RES1   0.0000
   265 H154     -6.8096   -0.1734   -0.9011   H         1 RES1   0.0000
   266 H155     -5.5927    0.1802   -2.1234   H         1 RES1   0.0000
   267 H156     -6.5711    2.1479   -0.0018   H         1 RES1   0.0000
   268 H157     -7.0881    2.1049   -1.6819   H         1 RES1   0.0000
   269 H158     -5.4242    2.5241   -1.2945   H         1 RES1   0.0000
   270 H159     -5.0201   -1.7559   -2.7367   H         1 RES1   0.0000
   271 H160     -4.3065   -2.2900   -1.1949   H         1 RES1   0.0000
   272 H161     -3.7956   -3.6229   -3.8820   H         1 RES1   0.0000
   273 H162     -4.9747   -4.0679   -2.6793   H         1 RES1   0.0000
   274 H163     -2.4753   -3.9519   -1.2764   H         1 RES1   0.0000
   275 H164     -2.1738   -4.8336   -2.7593   H         1 RES1   0.0000
   276 H165     -4.1699   -6.2821   -2.2907   H         1 RES1   0.0000
   277 H166     -4.4040   -5.4269   -0.7694   H         1 RES1   0.0000
   278 H167     -2.1392   -6.1754   -0.0214   H         1 RES1   0.0000
   279 H168     -1.9152   -7.0184   -1.5392   H         1 RES1   0.0000
   280 H169     -2.5125   -8.5824    0.2044   H         1 RES1   0.0000
   281 H170     -3.7293   -8.5647   -1.0678   H         1 RES1   0.0000
   282 H171     -4.7318   -8.7765    1.1355   H         1 RES1   0.0000
   283 H172     -5.2817   -7.3296    0.3177   H         1 RES1   0.0000
   284 H173     -4.6762   -6.0943    2.0981   H         1 RES1   0.0000
   285 H174     -2.9917   -6.5840    1.9025   H         1 RES1   0.0000
   286 H175     -4.9958   -8.2648    3.4260   H         1 RES1   0.0000
   287 H176     -4.0498   -6.9852    4.1755   H         1 RES1   0.0000
   288 H177     -2.8655   -9.4046    2.7378   H         1 RES1   0.0000
   289 H178     -2.9585   -9.1873    4.4841   H         1 RES1   0.0000
   290 H179     -1.9398   -8.1196    3.5190   H         1 RES1   0.0000
   291 H180     -1.8815   -2.5737   -3.6392   H         1 RES1   0.0000
   292 H181     -1.2949   -0.9125   -3.5645   H         1 RES1   0.0000
   293 H182     -3.7512   -1.8517   -5.1439   H         1 RES1   0.0000
   294 H183     -2.1963   -1.3096   -5.7511   H         1 RES1   0.0000
   295 H184     -2.7690    0.9282   -4.4556   H         1 RES1   0.0000
   296 H185     -4.4209    0.3222   -4.4927   H         1 RES1   0.0000
   297 H186     -3.9266   -0.0706   -7.0609   H         1 RES1   0.0000
   298 H187     -2.6329    1.0961   -6.8147   H         1 RES1   0.0000
   299 H188     -5.5914    1.5331   -6.2101   H         1 RES1   0.0000
   300 H189     -4.7792    2.0494   -7.6823   H         1 RES1   0.0000
   301 H190     -4.1957    3.0841   -4.8799   H         1 RES1   0.0000
   302 H191     -5.1731    3.8853   -6.1014   H         1 RES1   0.0000
   303 H192     -3.1428    3.9725   -7.6138   H         1 RES1   0.0000
   304 H193     -2.1753    3.3769   -6.2727   H         1 RES1   0.0000
   305 H194     -3.1051    5.3565   -4.8986   H         1 RES1   0.0000
   306 H195     -3.7445    5.9889   -6.4057   H         1 RES1   0.0000
   307 H196     -1.4899    6.1536   -7.3499   H         1 RES1   0.0000
   308 H197     -0.7971    5.3257   -5.9572   H         1 RES1   0.0000
   309 H198     -2.1916    8.0403   -5.8529   H         1 RES1   0.0000
   310 H199     -0.4518    7.7766   -5.8041   H         1 RES1   0.0000
   311 H200     -1.4672    7.2098   -4.4761   H         1 RES1   0.0000
   312 N5        0.3603   -1.9805   -1.1625   N.3       1 RES1   0.0000
   313 O7        0.6047   -3.0464   -1.6256   O.2       1 RES1   0.0000
   314 O8       -0.5124   -1.8367   -0.2938   O.co2     1 RES1   0.0000
   315 O9        0.9554   -0.9571   -1.5490   O.co2     1 RES1   0.0000
@<TRIPOS>BOND
     1     1    24    1
     2     1    29    1
     3     1    35    1
     4     1   179    1
     5     1   184    1
     6     1   190    1
     7     1   314    1
     8     1   315    1
     9     2     3    1
    10     2    57    1
    11     2    58    1
    12     2    59    1
    13     3     4    1
    14     3    60    1
    15     3    61    1
    16     4     5    1
    17     4    62    1
    18     4    63    1
    19     5     6    1
    20     5    64    1
    21     5    65    1
    22     6     7    1
    23     6    66    1
    24     6    67    1
    25     7     8    1
    26     7    68    1
    27     7    69    1
    28     8     9    1
    29     8    70    1
    30     8    71    1
    31     9    10    1
    32     9    72    1
    33     9    73    1
    34    10    11    1
    35    10    74    1
    36    10    75    1
    37    11    12    1
    38    11    76    1
    39    11    77    1
    40    12    13    1
    41    12    23    1
    42    13    14    1
    43    13    78    1
    44    13    79    1
    45    14    15    1
    46    14    80    1
    47    14    81    1
    48    15    16    1
    49    15    82    1
    50    15    83    1
    51    16    17    1
    52    16    84    1
    53    16    85    1
    54    17    18    1
    55    17    86    1
    56    17    87    1
    57    18    19    1
    58    18    88    1
    59    18    89    1
    60    19    20    1
    61    19    90    1
    62    19    91    1
    63    20    21    1
    64    20    92    1
    65    20    93    1
    66    21    22    1
    67    21    94    1
    68    21    95    1
    69    22    96    1
    70    22    97    1
    71    22    98    1
    72    23    24    2
    73    23    25    1
    74    25    26    1
    75    25    29    1
    76    25    99    1
    77    26    27    1
    78    26   100    1
    79    26   101    1
    80    27    28    1
    81    27   102    1
    82    27   103    1
    83    28   104    1
    84    28   105    1
    85    28   106    1
    86    29    30    1
    87    30    31    1
    88    30    34    1
    89    30   107    1
    90    31    32    1
    91    31   108    1
    92    31   109    1
    93    32    33    1
    94    32   110    1
    95    32   111    1
    96    33   112    1
    97    33   113    1
    98    33   114    1
    99    34    35    2
   100    34    36    1
   101    36    37    1
   102    36    47    1
   103    37    38    1
   104    37   115    1
   105    37   116    1
   106    38    39    1
   107    38   117    1
   108    38   118    1
   109    39    40    1
   110    39   119    1
   111    39   120    1
   112    40    41    1
   113    40   121    1
   114    40   122    1
   115    41    42    1
   116    41   123    1
   117    41   124    1
   118    42    43    1
   119    42   125    1
   120    42   126    1
   121    43    44    1
   122    43   127    1
   123    43   128    1
   124    44    45    1
   125    44   129    1
   126    44   130    1
   127    45    46    1
   128    45   131    1
   129    45   132    1
   130    46   133    1
   131    46   134    1
   132    46   135    1
   133    47    48    1
   134    47   136    1
   135    47   137    1
   136    48    49    1
   137    48   138    1
   138    48   139    1
   139    49    50    1
   140    49   140    1
   141    49   141    1
   142    50    51    1
   143    50   142    1
   144    50   143    1
   145    51    52    1
   146    51   144    1
   147    51   145    1
   148    52    53    1
   149    52   146    1
   150    52   147    1
   151    53    54    1
   152    53   148    1
   153    53   149    1
   154    54    55    1
   155    54   150    1
   156    54   151    1
   157    55    56    1
   158    55   152    1
   159    55   153    1
   160    56   154    1
   161    56   155    1
   162    56   156    1
   163   157   158    1
   164   157   212    1
   165   157   213    1
   166   157   214    1
   167   158   159    1
   168   158   215    1
   169   158   216    1
   170   159   160    1
   171   159   217    1
   172   159   218    1
   173   160   161    1
   174   160   219    1
   175   160   220    1
   176   161   162    1
   177   161   221    1
   178   161   222    1
   179   162   163    1
   180   162   223    1
   181   162   224    1
   182   163   164    1
   183   163   225    1
   184   163   226    1
   185   164   165    1
   186   164   227    1
   187   164   228    1
   188   165   166    1
   189   165   229    1
   190   165   230    1
   191   166   167    1
   192   166   231    1
   193   166   232    1
   194   167   168    1
   195   167   178    1
   196   168   169    1
   197   168   233    1
   198   168   234    1
   199   169   170    1
   200   169   235    1
   201   169   236    1
   202   170   171    1
   203   170   237    1
   204   170   238    1
   205   171   172    1
   206   171   239    1
   207   171   240    1
   208   172   173    1
   209   172   241    1
   210   172   242    1
   211   173   174    1
   212   173   243    1
   213   173   244    1
   214   174   175    1
   215   174   245    1
   216   174   246    1
   217   175   176    1
   218   175   247    1
   219   175   248    1
   220   176   177    1
   221   176   249    1
   222   176   250    1
   223   177   251    1
   224   177   252    1
   225   177   253    1
   226   178   179    2
   227   178   180    1
   228   180   181    1
   229   180   184    1
   230   180   254    1
   231   181   182    1
   232   181   255    1
   233   181   256    1
   234   182   183    1
   235   182   257    1
   236   182   258    1
   237   183   259    1
   238   183   260    1
   239   183   261    1
   240   184   185    1
   241   185   186    1
   242   185   189    1
   243   185   262    1
   244   186   187    1
   245   186   263    1
   246   186   264    1
   247   187   188    1
   248   187   265    1
   249   187   266    1
   250   188   267    1
   251   188   268    1
   252   188   269    1
   253   189   190    2
   254   189   191    1
   255   191   192    1
   256   191   202    1
   257   192   193    1
   258   192   270    1
   259   192   271    1
   260   193   194    1
   261   193   272    1
   262   193   273    1
   263   194   195    1
   264   194   274    1
   265   194   275    1
   266   195   196    1
   267   195   276    1
   268   195   277    1
   269   196   197    1
   270   196   278    1
   271   196   279    1
   272   197   198    1
   273   197   280    1
   274   197   281    1
   275   198   199    1
   276   198   282    1
   277   198   283    1
   278   199   200    1
   279   199   284    1
   280   199   285    1
   281   200   201    1
   282   200   286    1
   283   200   287    1
   284   201   288    1
   285   201   289    1
   286   201   290    1
   287   202   203    1
   288   202   291    1
   289   202   292    1
   290   203   204    1
   291   203   293    1
   292   203   294    1
   293   204   205    1
   294   204   295    1
   295   204   296    1
   296   205   206    1
   297   205   297    1
   298   205   298    1
   299   206   207    1
   300   206   299    1
   301   206   300    1
   302   207   208    1
   303   207   301    1
   304   207   302    1
   305   208   209    1
   306   208   303    1
   307   208   304    1
   308   209   210    1
   309   209   305    1
   310   209   306    1
   311   210   211    1
   312   210   307    1
   313   210   308    1
   314   211   309    1
   315   211   310    1
   316   211   311    1
   317   312   313    2
   318   312   314    1
   319   312   315    1
@<TRIPOS>SUBSTRUCTURE
     1 RES1      315 GROUP             0 ****  ****    0  
