@<TRIPOS>MOLECULE
ICIGOT_geomtry_0_nunpairedes_0_charge_3 Charge: 3 Unpaired_Electrons: 4 XTB_Unpaired_Electrons: 0 XTB_Charge: 3
   233   236     1     0     0
SMALL
NoCharges
****
Generated from Architector

@<TRIPOS>ATOM
     1 Ho1      -0.0731   -0.1074   -0.0314   Ho        1 RES1   0.0000
     2 C1       -8.3357    1.1333   -1.1704   C.3       1 RES1   0.0000
     3 C2       -7.6815    1.8557    0.0017   C.3       1 RES1   0.0000
     4 C3       -7.0185    0.8683    0.9629   C.3       1 RES1   0.0000
     5 C4       -6.2844    1.5334    2.1354   C.3       1 RES1   0.0000
     6 C5       -4.7748    1.7108    1.9352   C.3       1 RES1   0.0000
     7 C6       -4.3885    2.8185    0.9474   C.3       1 RES1   0.0000
     8 N1       -2.9370    2.9020    0.7768   N.am      1 RES1   0.0000
     9 C7       -2.2295    3.9457    1.5311   C.3       1 RES1   0.0000
    10 C8       -1.9420    3.5653    2.9896   C.3       1 RES1   0.0000
    11 C9       -1.6578    4.7772    3.9008   C.3       1 RES1   0.0000
    12 C10      -1.8880    4.3769    5.3606   C.3       1 RES1   0.0000
    13 C11      -0.2768    5.4141    3.6929   C.3       1 RES1   0.0000
    14 C12       0.8952    4.5565    4.1646   C.3       1 RES1   0.0000
    15 C13       2.2415    5.2813    4.1094   C.3       1 RES1   0.0000
    16 C14       2.7146    5.6887    2.7123   C.3       1 RES1   0.0000
    17 C15       4.0965    6.3324    2.7973   C.3       1 RES1   0.0000
    18 C16       2.7836    4.4811    1.7795   C.3       1 RES1   0.0000
    19 C17      -2.2530    2.0175    0.0709   C.2       1 RES1   0.0000
    20 O1       -0.9980    1.9424    0.0888   O.2       1 RES1   0.0000
    21 C18      -2.9959    1.0646   -0.8880   C.3       1 RES1   0.0000
    22 O2       -2.2853   -0.1816   -0.9749   O.3       1 RES1   0.0000
    23 C19      -2.2978   -0.8272   -2.2531   C.3       1 RES1   0.0000
    24 C20      -0.9031   -0.6904   -2.8917   C.2       1 RES1   0.0000
    25 O3       -0.0879    0.0406   -2.2798   O.2       1 RES1   0.0000
    26 N2       -0.6526   -1.2870   -4.0459   N.am      1 RES1   0.0000
    27 C21       0.4431   -0.7736   -4.8819   C.3       1 RES1   0.0000
    28 C22       1.4592   -1.8034   -5.3902   C.3       1 RES1   0.0000
    29 C23       1.3736   -2.1014   -6.8916   C.3       1 RES1   0.0000
    30 C24       2.4271   -3.1352   -7.2972   C.3       1 RES1   0.0000
    31 C25       2.3298   -3.5497   -8.7651   C.3       1 RES1   0.0000
    32 C26       3.3743   -4.6059   -9.1095   C.3       1 RES1   0.0000
    33 C27      -1.5806   -2.2408   -4.6546   C.3       1 RES1   0.0000
    34 C28      -1.7573   -3.6170   -3.9793   C.3       1 RES1   0.0000
    35 C29      -0.5553   -4.5745   -4.0116   C.3       1 RES1   0.0000
    36 C30      -0.2298   -5.0048   -5.4413   C.3       1 RES1   0.0000
    37 C31      -0.8096   -5.8740   -3.2300   C.3       1 RES1   0.0000
    38 C32      -1.0761   -5.7710   -1.7290   C.3       1 RES1   0.0000
    39 C33      -0.9068   -7.1565   -1.0996   C.3       1 RES1   0.0000
    40 C34      -1.2521   -7.2967    0.3887   C.3       1 RES1   0.0000
    41 C35      -0.4770   -6.3147    1.2666   C.3       1 RES1   0.0000
    42 C36      -2.7525   -7.1893    0.6424   C.3       1 RES1   0.0000
    43 H1       -8.8033    1.8443   -1.8452   H         1 RES1   0.0000
    44 H2       -7.6001    0.5618   -1.7357   H         1 RES1   0.0000
    45 H3       -9.1005    0.4472   -0.8165   H         1 RES1   0.0000
    46 H4       -6.9516    2.5748   -0.3787   H         1 RES1   0.0000
    47 H5       -8.4425    2.4153    0.5469   H         1 RES1   0.0000
    48 H6       -7.8033    0.2218    1.3606   H         1 RES1   0.0000
    49 H7       -6.3330    0.2204    0.4053   H         1 RES1   0.0000
    50 H8       -6.7508    2.4941    2.3558   H         1 RES1   0.0000
    51 H9       -6.4116    0.9094    3.0215   H         1 RES1   0.0000
    52 H10      -4.3450    1.9430    2.9102   H         1 RES1   0.0000
    53 H11      -4.3463    0.7629    1.6021   H         1 RES1   0.0000
    54 H12      -4.8622    2.6625   -0.0192   H         1 RES1   0.0000
    55 H13      -4.7487    3.7728    1.3249   H         1 RES1   0.0000
    56 H14      -1.3031    4.1714    0.9980   H         1 RES1   0.0000
    57 H15      -2.8608    4.8348    1.5208   H         1 RES1   0.0000
    58 H16      -2.8239    3.0750    3.4013   H         1 RES1   0.0000
    59 H17      -1.1129    2.8537    3.0200   H         1 RES1   0.0000
    60 H18      -2.3954    5.5500    3.6623   H         1 RES1   0.0000
    61 H19      -1.3085    3.4975    5.6331   H         1 RES1   0.0000
    62 H20      -1.6021    5.1923    6.0171   H         1 RES1   0.0000
    63 H21      -2.9404    4.1651    5.5359   H         1 RES1   0.0000
    64 H22      -0.1537    5.6687    2.6401   H         1 RES1   0.0000
    65 H23      -0.2607    6.3488    4.2530   H         1 RES1   0.0000
    66 H24       0.7277    4.2728    5.2033   H         1 RES1   0.0000
    67 H25       0.9418    3.6400    3.5678   H         1 RES1   0.0000
    68 H26       2.1852    6.1766    4.7265   H         1 RES1   0.0000
    69 H27       3.0033    4.6358    4.5536   H         1 RES1   0.0000
    70 H28       2.0178    6.4206    2.2938   H         1 RES1   0.0000
    71 H29       4.8275    5.6233    3.1810   H         1 RES1   0.0000
    72 H30       4.4246    6.6660    1.8159   H         1 RES1   0.0000
    73 H31       4.0787    7.1925    3.4582   H         1 RES1   0.0000
    74 H32       3.4100    3.7139    2.2329   H         1 RES1   0.0000
    75 H33       1.7944    4.0675    1.5865   H         1 RES1   0.0000
    76 H34       3.2319    4.7741    0.8326   H         1 RES1   0.0000
    77 H35      -4.0218    0.8509   -0.5779   H         1 RES1   0.0000
    78 H36      -2.9967    1.5783   -1.8575   H         1 RES1   0.0000
    79 H37      -2.5612   -1.8739   -2.0856   H         1 RES1   0.0000
    80 H38      -3.0442   -0.3767   -2.9166   H         1 RES1   0.0000
    81 H39      -0.0230   -0.2929   -5.7466   H         1 RES1   0.0000
    82 H40       0.9370   -0.0037   -4.2871   H         1 RES1   0.0000
    83 H41       2.4578   -1.4111   -5.2129   H         1 RES1   0.0000
    84 H42       1.3723   -2.7283   -4.8239   H         1 RES1   0.0000
    85 H43       0.3833   -2.4614   -7.1802   H         1 RES1   0.0000
    86 H44       1.5508   -1.1837   -7.4523   H         1 RES1   0.0000
    87 H45       3.4223   -2.7245   -7.1140   H         1 RES1   0.0000
    88 H46       2.3246   -4.0273   -6.6757   H         1 RES1   0.0000
    89 H47       1.3353   -3.9539   -8.9647   H         1 RES1   0.0000
    90 H48       2.4696   -2.6743   -9.4027   H         1 RES1   0.0000
    91 H49       3.2305   -5.5016   -8.5079   H         1 RES1   0.0000
    92 H50       3.3004   -4.8872  -10.1559   H         1 RES1   0.0000
    93 H51       4.3774   -4.2266   -8.9279   H         1 RES1   0.0000
    94 H52      -2.5728   -1.7841   -4.7263   H         1 RES1   0.0000
    95 H53      -1.2239   -2.4105   -5.6661   H         1 RES1   0.0000
    96 H54      -2.0799   -3.4991   -2.9450   H         1 RES1   0.0000
    97 H55      -2.5755   -4.0911   -4.5274   H         1 RES1   0.0000
    98 H56       0.3112   -4.0701   -3.5627   H         1 RES1   0.0000
    99 H57      -1.0475   -5.6025   -5.8371   H         1 RES1   0.0000
   100 H58      -0.0715   -4.1666   -6.1072   H         1 RES1   0.0000
   101 H59       0.6663   -5.6204   -5.4477   H         1 RES1   0.0000
   102 H60      -1.6365   -6.4088   -3.6970   H         1 RES1   0.0000
   103 H61       0.0828   -6.4896   -3.3598   H         1 RES1   0.0000
   104 H62      -0.3564   -5.0787   -1.2771   H         1 RES1   0.0000
   105 H63      -2.0885   -5.4018   -1.5523   H         1 RES1   0.0000
   106 H64      -1.5259   -7.8621   -1.6525   H         1 RES1   0.0000
   107 H65       0.1314   -7.4585   -1.2377   H         1 RES1   0.0000
   108 H66      -0.9417   -8.3064    0.6743   H         1 RES1   0.0000
   109 H67      -0.7955   -5.2874    1.0908   H         1 RES1   0.0000
   110 H68      -0.6487   -6.5429    2.3152   H         1 RES1   0.0000
   111 H69       0.5899   -6.3923    1.0733   H         1 RES1   0.0000
   112 H70      -3.2899   -7.9321    0.0608   H         1 RES1   0.0000
   113 H71      -3.1260   -6.2065    0.3732   H         1 RES1   0.0000
   114 H72      -2.9744   -7.3608    1.6923   H         1 RES1   0.0000
   115 C37       5.0792    1.7553    7.0655   C.3       1 RES1   0.0000
   116 C38       3.7109    1.0879    6.9709   C.3       1 RES1   0.0000
   117 C39       2.5998    2.1295    6.8403   C.3       1 RES1   0.0000
   118 C40       1.1703    1.5785    6.8975   C.3       1 RES1   0.0000
   119 C41       0.6181    1.0458    5.5669   C.3       1 RES1   0.0000
   120 C42       1.0867   -0.3786    5.2567   C.3       1 RES1   0.0000
   121 N3        0.4760   -0.9626    4.0627   N.am      1 RES1   0.0000
   122 C43      -0.6241   -1.9138    4.2900   C.3       1 RES1   0.0000
   123 C44      -1.8603   -1.2532    4.9140   C.3       1 RES1   0.0000
   124 C45      -3.0187   -2.2078    5.2643   C.3       1 RES1   0.0000
   125 C46      -4.0446   -1.4201    6.0828   C.3       1 RES1   0.0000
   126 C47      -3.6922   -2.9274    4.0834   C.3       1 RES1   0.0000
   127 C48      -4.4866   -2.0343    3.1318   C.3       1 RES1   0.0000
   128 C49      -5.2555   -2.7851    2.0441   C.3       1 RES1   0.0000
   129 C50      -4.4521   -3.7582    1.1762   C.3       1 RES1   0.0000
   130 C51      -5.3401   -4.2331    0.0245   C.3       1 RES1   0.0000
   131 C52      -3.1587   -3.1493    0.6155   C.3       1 RES1   0.0000
   132 C53       0.8941   -0.7329    2.8326   C.2       1 RES1   0.0000
   133 O4        0.3960   -1.3042    1.8301   O.2       1 RES1   0.0000
   134 C54       2.0200    0.2704    2.5238   C.3       1 RES1   0.0000
   135 O5        1.5873    1.0499    1.3886   O.3       1 RES1   0.0000
   136 C55       2.6445    1.4712    0.5147   C.3       1 RES1   0.0000
   137 C56       2.9493    0.3419   -0.4771   C.2       1 RES1   0.0000
   138 O6        2.0642   -0.5474   -0.5727   O.2       1 RES1   0.0000
   139 N4        4.1016    0.2894   -1.1138   N.am      1 RES1   0.0000
   140 C57       4.4707   -0.9548   -1.7933   C.3       1 RES1   0.0000
   141 C58       4.4567   -0.8693   -3.3253   C.3       1 RES1   0.0000
   142 C59       5.8383   -0.9716   -3.9765   C.3       1 RES1   0.0000
   143 C60       5.7384   -0.7897   -5.4921   C.3       1 RES1   0.0000
   144 C61       7.0996   -0.7938   -6.1869   C.3       1 RES1   0.0000
   145 C62       6.9516   -0.5595   -7.6861   C.3       1 RES1   0.0000
   146 C63       5.1328    1.3267   -1.0786   C.3       1 RES1   0.0000
   147 C64       4.7581    2.7473   -1.5232   C.3       1 RES1   0.0000
   148 C65       4.2411    2.9068   -2.9609   C.3       1 RES1   0.0000
   149 C66       5.3607    2.6804   -3.9750   C.3       1 RES1   0.0000
   150 C67       3.6820    4.3169   -3.1998   C.3       1 RES1   0.0000
   151 C68       2.4491    4.6944   -2.3819   C.3       1 RES1   0.0000
   152 C69       1.8839    6.0225   -2.8851   C.3       1 RES1   0.0000
   153 C70       0.6993    6.5883   -2.0933   C.3       1 RES1   0.0000
   154 C71      -0.4895    5.6277   -2.0779   C.3       1 RES1   0.0000
   155 C72       1.0892    6.9842   -0.6717   C.3       1 RES1   0.0000
   156 H73       5.8630    1.0088    7.1654   H         1 RES1   0.0000
   157 H74       5.2833    2.3490    6.1753   H         1 RES1   0.0000
   158 H75       5.1240    2.4116    7.9302   H         1 RES1   0.0000
   159 H76       3.7144    0.4101    6.1124   H         1 RES1   0.0000
   160 H77       3.5383    0.4917    7.8687   H         1 RES1   0.0000
   161 H78       2.7188    2.8339    7.6656   H         1 RES1   0.0000
   162 H79       2.7392    2.6992    5.9177   H         1 RES1   0.0000
   163 H80       1.1073    0.8075    7.6668   H         1 RES1   0.0000
   164 H81       0.5165    2.3935    7.2125   H         1 RES1   0.0000
   165 H82      -0.4704    1.0536    5.6229   H         1 RES1   0.0000
   166 H83       0.9055    1.7311    4.7692   H         1 RES1   0.0000
   167 H84       2.1693   -0.4173    5.1545   H         1 RES1   0.0000
   168 H85       0.8248   -1.0177    6.0985   H         1 RES1   0.0000
   169 H86      -0.8562   -2.3658    3.3232   H         1 RES1   0.0000
   170 H87      -0.2625   -2.6975    4.9610   H         1 RES1   0.0000
   171 H88      -1.5711   -0.7882    5.8566   H         1 RES1   0.0000
   172 H89      -2.2330   -0.4568    4.2682   H         1 RES1   0.0000
   173 H90      -2.6079   -2.9949    5.9032   H         1 RES1   0.0000
   174 H91      -4.3913   -0.5413    5.5414   H         1 RES1   0.0000
   175 H92      -4.9014   -2.0463    6.3096   H         1 RES1   0.0000
   176 H93      -3.6131   -1.0900    7.0241   H         1 RES1   0.0000
   177 H94      -2.9431   -3.4971    3.5345   H         1 RES1   0.0000
   178 H95      -4.3828   -3.6525    4.5137   H         1 RES1   0.0000
   179 H96      -5.2217   -1.4669    3.7016   H         1 RES1   0.0000
   180 H97      -3.8247   -1.3070    2.6530   H         1 RES1   0.0000
   181 H98      -6.0604   -3.3513    2.5079   H         1 RES1   0.0000
   182 H99      -5.7253   -2.0464    1.3916   H         1 RES1   0.0000
   183 H100     -4.1835   -4.6293    1.7806   H         1 RES1   0.0000
   184 H101     -5.6069   -3.4054   -0.6309   H         1 RES1   0.0000
   185 H102     -4.8458   -4.9974   -0.5707   H         1 RES1   0.0000
   186 H103     -6.2576   -4.6630    0.4127   H         1 RES1   0.0000
   187 H104     -3.3537   -2.1827    0.1504   H         1 RES1   0.0000
   188 H105     -2.3998   -3.0344    1.3906   H         1 RES1   0.0000
   189 H106     -2.7616   -3.8247   -0.1412   H         1 RES1   0.0000
   190 H107      2.2458    0.9468    3.3526   H         1 RES1   0.0000
   191 H108      2.9147   -0.3110    2.2702   H         1 RES1   0.0000
   192 H109      2.2555    2.3517   -0.0099   H         1 RES1   0.0000
   193 H110      3.5351    1.7465    1.0874   H         1 RES1   0.0000
   194 H111      5.4732   -1.2240   -1.4534   H         1 RES1   0.0000
   195 H112      3.7725   -1.7150   -1.4412   H         1 RES1   0.0000
   196 H113      3.8554   -1.6906   -3.7090   H         1 RES1   0.0000
   197 H114      3.9731    0.0575   -3.6353   H         1 RES1   0.0000
   198 H115      6.5256   -0.2261   -3.5702   H         1 RES1   0.0000
   199 H116      6.2692   -1.9504   -3.7651   H         1 RES1   0.0000
   200 H117      5.1261   -1.5918   -5.9113   H         1 RES1   0.0000
   201 H118      5.2372    0.1556   -5.7125   H         1 RES1   0.0000
   202 H119      7.7274   -0.0074   -5.7630   H         1 RES1   0.0000
   203 H120      7.5970   -1.7499   -6.0116   H         1 RES1   0.0000
   204 H121      6.4899    0.4068   -7.8808   H         1 RES1   0.0000
   205 H122      7.9233   -0.5738   -8.1707   H         1 RES1   0.0000
   206 H123      6.3339   -1.3338   -8.1359   H         1 RES1   0.0000
   207 H124      5.5454    1.3908   -0.0652   H         1 RES1   0.0000
   208 H125      5.9261    0.9709   -1.7317   H         1 RES1   0.0000
   209 H126      4.0338    3.1801   -0.8387   H         1 RES1   0.0000
   210 H127      5.6804    3.3275   -1.4296   H         1 RES1   0.0000
   211 H128      3.4278    2.1889   -3.1367   H         1 RES1   0.0000
   212 H129      6.1172    3.4538   -3.8631   H         1 RES1   0.0000
   213 H130      5.8402    1.7165   -3.8516   H         1 RES1   0.0000
   214 H131      4.9658    2.7418   -4.9866   H         1 RES1   0.0000
   215 H132      4.4703    5.0471   -3.0143   H         1 RES1   0.0000
   216 H133      3.4186    4.3869   -4.2573   H         1 RES1   0.0000
   217 H134      1.6979    3.9021   -2.4680   H         1 RES1   0.0000
   218 H135      2.7166    4.8015   -1.3297   H         1 RES1   0.0000
   219 H136      2.6841    6.7623   -2.8715   H         1 RES1   0.0000
   220 H137      1.5772    5.8981   -3.9237   H         1 RES1   0.0000
   221 H138      0.3863    7.4974   -2.6166   H         1 RES1   0.0000
   222 H139     -0.2566    4.7225   -1.5167   H         1 RES1   0.0000
   223 H140     -1.3486    6.1073   -1.6146   H         1 RES1   0.0000
   224 H141     -0.7593    5.3476   -3.0930   H         1 RES1   0.0000
   225 H142      1.3385    6.1090   -0.0783   H         1 RES1   0.0000
   226 H143      1.9468    7.6503   -0.6844   H         1 RES1   0.0000
   227 H144      0.2666    7.5027   -0.1855   H         1 RES1   0.0000
   228 O7       -1.8951   -0.0489    1.7333   O.3       1 RES1   0.0000
   229 H145     -1.9718    0.4794    2.5391   H         1 RES1   0.0000
   230 H146     -2.3741   -0.8823    1.9102   H         1 RES1   0.0000
   231 O8       -0.2155   -2.4685   -0.7083   O.3       1 RES1   0.0000
   232 H147     -0.6792   -3.2929   -0.4644   H         1 RES1   0.0000
   233 H148      0.6802   -2.7411   -0.9710   H         1 RES1   0.0000
@<TRIPOS>BOND
     1     1    20    1
     2     1    22    1
     3     1    25    1
     4     1   133    1
     5     1   135    1
     6     1   138    1
     7     1   228    1
     8     1   231    1
     9     2     3    1
    10     2    43    1
    11     2    44    1
    12     2    45    1
    13     3     4    1
    14     3    46    1
    15     3    47    1
    16     4     5    1
    17     4    48    1
    18     4    49    1
    19     5     6    1
    20     5    50    1
    21     5    51    1
    22     6     7    1
    23     6    52    1
    24     6    53    1
    25     7     8    1
    26     7    54    1
    27     7    55    1
    28     8     9    1
    29     8    19    1
    30     9    10    1
    31     9    56    1
    32     9    57    1
    33    10    11    1
    34    10    58    1
    35    10    59    1
    36    11    12    1
    37    11    13    1
    38    11    60    1
    39    12    61    1
    40    12    62    1
    41    12    63    1
    42    13    14    1
    43    13    64    1
    44    13    65    1
    45    14    15    1
    46    14    66    1
    47    14    67    1
    48    15    16    1
    49    15    68    1
    50    15    69    1
    51    16    17    1
    52    16    18    1
    53    16    70    1
    54    17    71    1
    55    17    72    1
    56    17    73    1
    57    18    74    1
    58    18    75    1
    59    18    76    1
    60    19    20    2
    61    19    21    1
    62    21    22    1
    63    21    77    1
    64    21    78    1
    65    22    23    1
    66    23    24    1
    67    23    79    1
    68    23    80    1
    69    24    25    2
    70    24    26    1
    71    26    27    1
    72    26    33    1
    73    27    28    1
    74    27    81    1
    75    27    82    1
    76    28    29    1
    77    28    83    1
    78    28    84    1
    79    29    30    1
    80    29    85    1
    81    29    86    1
    82    30    31    1
    83    30    87    1
    84    30    88    1
    85    31    32    1
    86    31    89    1
    87    31    90    1
    88    32    91    1
    89    32    92    1
    90    32    93    1
    91    33    34    1
    92    33    94    1
    93    33    95    1
    94    34    35    1
    95    34    96    1
    96    34    97    1
    97    35    36    1
    98    35    37    1
    99    35    98    1
   100    36    99    1
   101    36   100    1
   102    36   101    1
   103    37    38    1
   104    37   102    1
   105    37   103    1
   106    38    39    1
   107    38   104    1
   108    38   105    1
   109    39    40    1
   110    39   106    1
   111    39   107    1
   112    40    41    1
   113    40    42    1
   114    40   108    1
   115    41   109    1
   116    41   110    1
   117    41   111    1
   118    42   112    1
   119    42   113    1
   120    42   114    1
   121   115   116    1
   122   115   156    1
   123   115   157    1
   124   115   158    1
   125   116   117    1
   126   116   159    1
   127   116   160    1
   128   117   118    1
   129   117   161    1
   130   117   162    1
   131   118   119    1
   132   118   163    1
   133   118   164    1
   134   119   120    1
   135   119   165    1
   136   119   166    1
   137   120   121    1
   138   120   167    1
   139   120   168    1
   140   121   122    1
   141   121   132    1
   142   122   123    1
   143   122   169    1
   144   122   170    1
   145   123   124    1
   146   123   171    1
   147   123   172    1
   148   124   125    1
   149   124   126    1
   150   124   173    1
   151   125   174    1
   152   125   175    1
   153   125   176    1
   154   126   127    1
   155   126   177    1
   156   126   178    1
   157   127   128    1
   158   127   179    1
   159   127   180    1
   160   128   129    1
   161   128   181    1
   162   128   182    1
   163   129   130    1
   164   129   131    1
   165   129   183    1
   166   130   184    1
   167   130   185    1
   168   130   186    1
   169   131   187    1
   170   131   188    1
   171   131   189    1
   172   132   133    2
   173   132   134    1
   174   134   135    1
   175   134   190    1
   176   134   191    1
   177   135   136    1
   178   136   137    1
   179   136   192    1
   180   136   193    1
   181   137   138    2
   182   137   139    1
   183   139   140    1
   184   139   146    1
   185   140   141    1
   186   140   194    1
   187   140   195    1
   188   141   142    1
   189   141   196    1
   190   141   197    1
   191   142   143    1
   192   142   198    1
   193   142   199    1
   194   143   144    1
   195   143   200    1
   196   143   201    1
   197   144   145    1
   198   144   202    1
   199   144   203    1
   200   145   204    1
   201   145   205    1
   202   145   206    1
   203   146   147    1
   204   146   207    1
   205   146   208    1
   206   147   148    1
   207   147   209    1
   208   147   210    1
   209   148   149    1
   210   148   150    1
   211   148   211    1
   212   149   212    1
   213   149   213    1
   214   149   214    1
   215   150   151    1
   216   150   215    1
   217   150   216    1
   218   151   152    1
   219   151   217    1
   220   151   218    1
   221   152   153    1
   222   152   219    1
   223   152   220    1
   224   153   154    1
   225   153   155    1
   226   153   221    1
   227   154   222    1
   228   154   223    1
   229   154   224    1
   230   155   225    1
   231   155   226    1
   232   155   227    1
   233   228   229    1
   234   228   230    1
   235   231   232    1
   236   231   233    1
@<TRIPOS>SUBSTRUCTURE
     1 RES1      233 GROUP             0 ****  ****    0  
