@<TRIPOS>MOLECULE
ICIGOT_geomtry_0_nunpairedes_0_charge_3 Charge: 3 Unpaired_Electrons: 4 XTB_Unpaired_Electrons: 0 XTB_Charge: 3
   225   228     1     0     0
SMALL
NoCharges
****
Generated from Architector

@<TRIPOS>ATOM
     1 Ho1       0.1979   -0.0096   -0.1322   Ho        1 RES1   0.0000
     2 C1       -1.0490   -0.3765    4.5348   C.3       1 RES1   0.0000
     3 C2       -1.7615   -1.3421    3.5967   C.3       1 RES1   0.0000
     4 C3       -3.2764   -1.1690    3.6083   C.3       1 RES1   0.0000
     5 C4       -3.9756   -2.3590    2.9610   C.3       1 RES1   0.0000
     6 C5       -3.6562   -2.5528    1.4767   C.3       1 RES1   0.0000
     7 C6       -4.4547   -1.6805    0.4950   C.3       1 RES1   0.0000
     8 N1       -4.1529   -0.2370    0.4233   N.am      1 RES1   0.0000
     9 C7       -5.1952    0.6874    0.8767   C.3       1 RES1   0.0000
    10 C8       -5.9521    1.4829   -0.2002   C.3       1 RES1   0.0000
    11 C9       -6.5138    2.7907    0.3957   C.3       1 RES1   0.0000
    12 C10      -7.0580    3.6962   -0.7065   C.3       1 RES1   0.0000
    13 C11      -7.5848    2.4808    1.4486   C.3       1 RES1   0.0000
    14 C12      -7.9207    3.6425    2.3960   C.3       1 RES1   0.0000
    15 C13      -6.8500    3.9783    3.3938   C.2       1 RES1   0.0000
    16 C14      -6.5686    3.3059    4.5060   C.2       1 RES1   0.0000
    17 C15      -7.2021    2.0066    4.8974   C.3       1 RES1   0.0000
    18 C16      -5.5968    3.8297    5.5233   C.3       1 RES1   0.0000
    19 C17      -2.9804    0.1549   -0.0578   C.2       1 RES1   0.0000
    20 O1       -2.0075   -0.6270   -0.1888   O.2       1 RES1   0.0000
    21 C18      -2.7581    1.5882   -0.5676   C.3       1 RES1   0.0000
    22 O2       -1.3506    1.8377   -0.5644   O.3       1 RES1   0.0000
    23 C19      -0.8557    2.7967   -1.4994   C.3       1 RES1   0.0000
    24 C20       0.2206    2.0866   -2.3395   C.2       1 RES1   0.0000
    25 O3        0.3845    0.8602   -2.1066   O.2       1 RES1   0.0000
    26 N2        0.8481    2.6918   -3.3260   N.am      1 RES1   0.0000
    27 C21       1.5026    1.8205   -4.3082   C.3       1 RES1   0.0000
    28 C22       0.4076    1.1001   -5.1012   C.3       1 RES1   0.0000
    29 C23       0.8907    0.3820   -6.3609   C.3       1 RES1   0.0000
    30 C24       1.6597   -0.9224   -6.1434   C.3       1 RES1   0.0000
    31 C25       0.8365   -2.0409   -5.5039   C.3       1 RES1   0.0000
    32 C26       1.5370   -3.3915   -5.6072   C.3       1 RES1   0.0000
    33 C27       0.8582    4.1344   -3.5204   C.3       1 RES1   0.0000
    34 C28       1.6520    4.8800   -2.4359   C.3       1 RES1   0.0000
    35 C29       3.0598    4.3318   -2.1533   C.3       1 RES1   0.0000
    36 C30       3.9891    4.5199   -3.3461   C.3       1 RES1   0.0000
    37 C31       3.6160    5.0478   -0.9127   C.3       1 RES1   0.0000
    38 C32       4.9663    4.5098   -0.4242   C.3       1 RES1   0.0000
    39 C33       4.9046    3.0695   -0.0257   C.2       1 RES1   0.0000
    40 C34       5.7449    2.0838   -0.3042   C.2       1 RES1   0.0000
    41 C35       5.5435    0.7235    0.3040   C.3       1 RES1   0.0000
    42 C36       6.9349    2.1917   -1.1993   C.3       1 RES1   0.0000
    43 H1        0.0106   -0.3821    4.3066   H         1 RES1   0.0000
    44 H2       -1.4221    0.6437    4.4483   H         1 RES1   0.0000
    45 H3       -1.1744   -0.6700    5.5719   H         1 RES1   0.0000
    46 H4       -1.3780   -1.2313    2.5737   H         1 RES1   0.0000
    47 H5       -1.5237   -2.3566    3.9161   H         1 RES1   0.0000
    48 H6       -3.6148   -1.1088    4.6406   H         1 RES1   0.0000
    49 H7       -3.5674   -0.2384    3.1116   H         1 RES1   0.0000
    50 H8       -3.6700   -3.2620    3.4953   H         1 RES1   0.0000
    51 H9       -5.0540   -2.2657    3.0866   H         1 RES1   0.0000
    52 H10      -2.5885   -2.4295    1.2830   H         1 RES1   0.0000
    53 H11      -3.9192   -3.5819    1.2186   H         1 RES1   0.0000
    54 H12      -4.2966   -2.0968   -0.5054   H         1 RES1   0.0000
    55 H13      -5.5146   -1.7839    0.7310   H         1 RES1   0.0000
    56 H14      -5.9048    0.0997    1.4590   H         1 RES1   0.0000
    57 H15      -4.7395    1.4011    1.5679   H         1 RES1   0.0000
    58 H16      -5.2833    1.7281   -1.0246   H         1 RES1   0.0000
    59 H17      -6.7763    0.9030   -0.6176   H         1 RES1   0.0000
    60 H18      -5.6973    3.3318    0.8885   H         1 RES1   0.0000
    61 H19      -7.8930    3.2293   -1.2217   H         1 RES1   0.0000
    62 H20      -7.4044    4.6328   -0.2789   H         1 RES1   0.0000
    63 H21      -6.2884    3.9333   -1.4396   H         1 RES1   0.0000
    64 H22      -8.4993    2.1721    0.9388   H         1 RES1   0.0000
    65 H23      -7.2460    1.6459    2.0611   H         1 RES1   0.0000
    66 H24      -8.1507    4.5393    1.8234   H         1 RES1   0.0000
    67 H25      -8.8306    3.3556    2.9261   H         1 RES1   0.0000
    68 H26      -6.3196    4.9017    3.2085   H         1 RES1   0.0000
    69 H27      -8.0019    1.7204    4.2240   H         1 RES1   0.0000
    70 H28      -6.4513    1.2140    4.9115   H         1 RES1   0.0000
    71 H29      -7.6063    2.0824    5.9048   H         1 RES1   0.0000
    72 H30      -5.1661    4.7823    5.2196   H         1 RES1   0.0000
    73 H31      -6.1233    3.9885    6.4641   H         1 RES1   0.0000
    74 H32      -4.8017    3.1082    5.7201   H         1 RES1   0.0000
    75 H33      -3.1395    1.5921   -1.5971   H         1 RES1   0.0000
    76 H34      -3.2700    2.3488    0.0272   H         1 RES1   0.0000
    77 H35      -1.6453    3.1409   -2.1751   H         1 RES1   0.0000
    78 H36      -0.4609    3.6602   -0.9499   H         1 RES1   0.0000
    79 H37       2.1102    2.4329   -4.9701   H         1 RES1   0.0000
    80 H38       2.1530    1.1201   -3.7823   H         1 RES1   0.0000
    81 H39      -0.1086    0.3975   -4.4457   H         1 RES1   0.0000
    82 H40      -0.3188    1.8527   -5.4117   H         1 RES1   0.0000
    83 H41       0.0102    0.1618   -6.9664   H         1 RES1   0.0000
    84 H42       1.5208    1.0571   -6.9407   H         1 RES1   0.0000
    85 H43       2.0003   -1.2695   -7.1207   H         1 RES1   0.0000
    86 H44       2.5475   -0.7434   -5.5357   H         1 RES1   0.0000
    87 H45       0.6670   -1.8072   -4.4444   H         1 RES1   0.0000
    88 H46      -0.1363   -2.0998   -5.9963   H         1 RES1   0.0000
    89 H47       2.5274   -3.3475   -5.1630   H         1 RES1   0.0000
    90 H48       0.9698   -4.1713   -5.1035   H         1 RES1   0.0000
    91 H49       1.6516   -3.6745   -6.6489   H         1 RES1   0.0000
    92 H50       1.3073    4.3280   -4.4929   H         1 RES1   0.0000
    93 H51      -0.1633    4.5285   -3.5431   H         1 RES1   0.0000
    94 H52       1.7313    5.9227   -2.7500   H         1 RES1   0.0000
    95 H53       1.0864    4.8706   -1.5019   H         1 RES1   0.0000
    96 H54       2.9854    3.2605   -1.9234   H         1 RES1   0.0000
    97 H55       4.1238    5.5768   -3.5617   H         1 RES1   0.0000
    98 H56       4.9599    4.0867   -3.1295   H         1 RES1   0.0000
    99 H57       3.6062    4.0306   -4.2365   H         1 RES1   0.0000
   100 H58       3.7226    6.1142   -1.1292   H         1 RES1   0.0000
   101 H59       2.8865    4.9396   -0.1038   H         1 RES1   0.0000
   102 H60       5.7301    4.6876   -1.1763   H         1 RES1   0.0000
   103 H61       5.2479    5.0965    0.4570   H         1 RES1   0.0000
   104 H62       4.0669    2.8347    0.6211   H         1 RES1   0.0000
   105 H63       4.6828    0.7144    0.9764   H         1 RES1   0.0000
   106 H64       5.3898   -0.0227   -0.4741   H         1 RES1   0.0000
   107 H65       6.4311    0.4338    0.8664   H         1 RES1   0.0000
   108 H66       7.0735    3.1976   -1.5750   H         1 RES1   0.0000
   109 H67       7.8371    1.8987   -0.6691   H         1 RES1   0.0000
   110 H68       6.8206    1.5181   -2.0453   H         1 RES1   0.0000
   111 C37      -3.2894    3.3844    2.8919   C.3       1 RES1   0.0000
   112 C38      -2.0480    4.1911    2.5326   C.3       1 RES1   0.0000
   113 C39      -1.0222    4.1821    3.6689   C.3       1 RES1   0.0000
   114 C40       0.2161    5.0089    3.3279   C.3       1 RES1   0.0000
   115 C41       1.1408    4.4122    2.2543   C.3       1 RES1   0.0000
   116 C42       2.3048    3.5380    2.7440   C.3       1 RES1   0.0000
   117 N3        2.0081    2.1535    3.1390   N.am      1 RES1   0.0000
   118 C43       1.8465    1.8998    4.5753   C.3       1 RES1   0.0000
   119 C44       2.9702    1.1455    5.3150   C.3       1 RES1   0.0000
   120 C45       2.3900    0.2947    6.4663   C.3       1 RES1   0.0000
   121 C46       3.4460   -0.6680    7.0033   C.3       1 RES1   0.0000
   122 C47       1.8519    1.2126    7.5715   C.3       1 RES1   0.0000
   123 C48       0.9448    0.5301    8.6073   C.3       1 RES1   0.0000
   124 C49      -0.3824    0.0839    8.0680   C.2       1 RES1   0.0000
   125 C50      -1.4470    0.8546    7.8595   C.2       1 RES1   0.0000
   126 C51      -1.4727    2.3380    8.0617   C.3       1 RES1   0.0000
   127 C52      -2.7665    0.2822    7.4287   C.3       1 RES1   0.0000
   128 C53       1.8289    1.2219    2.2080   C.2       1 RES1   0.0000
   129 O4        1.5977    1.4828    0.9985   O.2       1 RES1   0.0000
   130 C54       1.9978   -0.2701    2.5252   C.3       1 RES1   0.0000
   131 O5        0.9272   -1.0187    1.9198   O.3       1 RES1   0.0000
   132 C55       1.2841   -2.3696    1.6148   C.3       1 RES1   0.0000
   133 C56       1.8857   -2.3876    0.2051   C.2       1 RES1   0.0000
   134 O6        1.9632   -1.2689   -0.3688   O.2       1 RES1   0.0000
   135 N4        2.2774   -3.5136   -0.3483   N.am      1 RES1   0.0000
   136 C57       2.9367   -3.4429   -1.6502   C.3       1 RES1   0.0000
   137 C58       4.3787   -2.9611   -1.4813   C.3       1 RES1   0.0000
   138 C59       5.1880   -3.0219   -2.7770   C.3       1 RES1   0.0000
   139 C60       4.8252   -1.9488   -3.8050   C.3       1 RES1   0.0000
   140 C61       5.2203   -0.5341   -3.3783   C.3       1 RES1   0.0000
   141 C62       5.1768    0.4469   -4.5456   C.3       1 RES1   0.0000
   142 C63       2.1992   -4.8070    0.3144   C.3       1 RES1   0.0000
   143 C64       0.7921   -5.4241    0.3905   C.3       1 RES1   0.0000
   144 C65      -0.0086   -5.4527   -0.9207   C.3       1 RES1   0.0000
   145 C66       0.5854   -6.4392   -1.9197   C.3       1 RES1   0.0000
   146 C67      -1.4679   -5.8255   -0.6075   C.3       1 RES1   0.0000
   147 C68      -2.4204   -5.6614   -1.7968   C.3       1 RES1   0.0000
   148 C69      -2.5542   -4.2372   -2.2356   C.2       1 RES1   0.0000
   149 C70      -2.5322   -3.7577   -3.4777   C.2       1 RES1   0.0000
   150 C71      -2.8218   -2.3074   -3.7682   C.3       1 RES1   0.0000
   151 C72      -2.2850   -4.5752   -4.7043   C.3       1 RES1   0.0000
   152 H69      -3.9777    3.3132    2.0525   H         1 RES1   0.0000
   153 H70      -3.0434    2.3766    3.2301   H         1 RES1   0.0000
   154 H71      -3.8190    3.8757    3.6986   H         1 RES1   0.0000
   155 H72      -1.6110    3.8195    1.5983   H         1 RES1   0.0000
   156 H73      -2.3431    5.2249    2.3459   H         1 RES1   0.0000
   157 H74      -1.4932    4.6240    4.5493   H         1 RES1   0.0000
   158 H75      -0.7384    3.1586    3.9330   H         1 RES1   0.0000
   159 H76      -0.1372    5.9819    2.9798   H         1 RES1   0.0000
   160 H77       0.7871    5.2007    4.2371   H         1 RES1   0.0000
   161 H78       0.5801    3.8567    1.4965   H         1 RES1   0.0000
   162 H79       1.6207    5.2555    1.7533   H         1 RES1   0.0000
   163 H80       3.0460    3.5052    1.9409   H         1 RES1   0.0000
   164 H81       2.7905    4.0238    3.5902   H         1 RES1   0.0000
   165 H82       1.6955    2.8739    5.0398   H         1 RES1   0.0000
   166 H83       0.9173    1.3427    4.7074   H         1 RES1   0.0000
   167 H84       3.5189    0.5054    4.6227   H         1 RES1   0.0000
   168 H85       3.7065    1.8322    5.7354   H         1 RES1   0.0000
   169 H86       1.5540   -0.3045    6.0860   H         1 RES1   0.0000
   170 H87       4.2914   -0.1290    7.4212   H         1 RES1   0.0000
   171 H88       3.0185   -1.2875    7.7853   H         1 RES1   0.0000
   172 H89       3.8132   -1.3316    6.2222   H         1 RES1   0.0000
   173 H90       2.6980    1.6593    8.0966   H         1 RES1   0.0000
   174 H91       1.2766    2.0155    7.1078   H         1 RES1   0.0000
   175 H92       1.4470   -0.3305    9.0467   H         1 RES1   0.0000
   176 H93       0.7912    1.2544    9.4086   H         1 RES1   0.0000
   177 H94      -0.4758   -0.9785    7.8863   H         1 RES1   0.0000
   178 H95      -0.5493    2.7112    8.4898   H         1 RES1   0.0000
   179 H96      -1.6470    2.8448    7.1106   H         1 RES1   0.0000
   180 H97      -2.2950    2.6022    8.7240   H         1 RES1   0.0000
   181 H98      -2.7141   -0.7956    7.2875   H         1 RES1   0.0000
   182 H99      -3.5110    0.4844    8.1972   H         1 RES1   0.0000
   183 H100     -3.1136    0.7547    6.5080   H         1 RES1   0.0000
   184 H101      2.9522   -0.5252    2.0405   H         1 RES1   0.0000
   185 H102      2.0460   -0.5305    3.5820   H         1 RES1   0.0000
   186 H103      1.9847   -2.7674    2.3570   H         1 RES1   0.0000
   187 H104      0.3627   -2.9636    1.6536   H         1 RES1   0.0000
   188 H105      2.9236   -4.4371   -2.0916   H         1 RES1   0.0000
   189 H106      2.3687   -2.7642   -2.2889   H         1 RES1   0.0000
   190 H107      4.3734   -1.9408   -1.0975   H         1 RES1   0.0000
   191 H108      4.8723   -3.5943   -0.7435   H         1 RES1   0.0000
   192 H109      6.2433   -2.9140   -2.5207   H         1 RES1   0.0000
   193 H110      5.0689   -4.0044   -3.2374   H         1 RES1   0.0000
   194 H111      5.3477   -2.1814   -4.7354   H         1 RES1   0.0000
   195 H112      3.7527   -1.9730   -4.0109   H         1 RES1   0.0000
   196 H113      4.5506   -0.1794   -2.5883   H         1 RES1   0.0000
   197 H114      6.2369   -0.5601   -2.9811   H         1 RES1   0.0000
   198 H115      4.1837    0.4796   -4.9887   H         1 RES1   0.0000
   199 H116      5.4391    1.4516   -4.2215   H         1 RES1   0.0000
   200 H117      5.8805    0.1461   -5.3167   H         1 RES1   0.0000
   201 H118      2.8519   -5.4796   -0.2387   H         1 RES1   0.0000
   202 H119      2.5941   -4.7318    1.3322   H         1 RES1   0.0000
   203 H120      0.9253   -6.4468    0.7484   H         1 RES1   0.0000
   204 H121      0.1991   -4.9010    1.1424   H         1 RES1   0.0000
   205 H122      0.0044   -4.4487   -1.3614   H         1 RES1   0.0000
   206 H123      0.5133   -7.4558   -1.5429   H         1 RES1   0.0000
   207 H124      0.0501   -6.3890   -2.8621   H         1 RES1   0.0000
   208 H125      1.6296   -6.2264   -2.1257   H         1 RES1   0.0000
   209 H126     -1.5075   -6.8651   -0.2732   H         1 RES1   0.0000
   210 H127     -1.8297   -5.1931    0.2093   H         1 RES1   0.0000
   211 H128     -2.1110   -6.3110   -2.6105   H         1 RES1   0.0000
   212 H129     -3.4087   -6.0080   -1.4785   H         1 RES1   0.0000
   213 H130     -2.7716   -3.5594   -1.4144   H         1 RES1   0.0000
   214 H131     -3.0058   -1.7264   -2.8610   H         1 RES1   0.0000
   215 H132     -2.0115   -1.8508   -4.3381   H         1 RES1   0.0000
   216 H133     -3.7127   -2.2469   -4.3940   H         1 RES1   0.0000
   217 H134     -2.0999   -5.6169   -4.4731   H         1 RES1   0.0000
   218 H135     -3.1474   -4.5242   -5.3657   H         1 RES1   0.0000
   219 H136     -1.4336   -4.1845   -5.2588   H         1 RES1   0.0000
   220 O7       -0.9240    1.1606    1.8929   O.3       1 RES1   0.0000
   221 H137     -0.8081    2.0814    2.1886   H         1 RES1   0.0000
   222 H138     -1.6791    0.8157    2.3948   H         1 RES1   0.0000
   223 O8       -0.2793   -1.9566   -1.8414   O.3       1 RES1   0.0000
   224 H139     -1.1055   -2.4367   -2.0622   H         1 RES1   0.0000
   225 H140      0.0467   -1.6344   -2.6978   H         1 RES1   0.0000
@<TRIPOS>BOND
     1     1    20    1
     2     1    22    1
     3     1    25    1
     4     1   129    1
     5     1   131    1
     6     1   134    1
     7     1   220    1
     8     1   223    1
     9     2     3    1
    10     2    43    1
    11     2    44    1
    12     2    45    1
    13     3     4    1
    14     3    46    1
    15     3    47    1
    16     4     5    1
    17     4    48    1
    18     4    49    1
    19     5     6    1
    20     5    50    1
    21     5    51    1
    22     6     7    1
    23     6    52    1
    24     6    53    1
    25     7     8    1
    26     7    54    1
    27     7    55    1
    28     8     9    1
    29     8    19    1
    30     9    10    1
    31     9    56    1
    32     9    57    1
    33    10    11    1
    34    10    58    1
    35    10    59    1
    36    11    12    1
    37    11    13    1
    38    11    60    1
    39    12    61    1
    40    12    62    1
    41    12    63    1
    42    13    14    1
    43    13    64    1
    44    13    65    1
    45    14    15    1
    46    14    66    1
    47    14    67    1
    48    15    16    2
    49    15    68    1
    50    16    17    1
    51    16    18    1
    52    17    69    1
    53    17    70    1
    54    17    71    1
    55    18    72    1
    56    18    73    1
    57    18    74    1
    58    19    20    2
    59    19    21    1
    60    21    22    1
    61    21    75    1
    62    21    76    1
    63    22    23    1
    64    23    24    1
    65    23    77    1
    66    23    78    1
    67    24    25    2
    68    24    26    1
    69    26    27    1
    70    26    33    1
    71    27    28    1
    72    27    79    1
    73    27    80    1
    74    28    29    1
    75    28    81    1
    76    28    82    1
    77    29    30    1
    78    29    83    1
    79    29    84    1
    80    30    31    1
    81    30    85    1
    82    30    86    1
    83    31    32    1
    84    31    87    1
    85    31    88    1
    86    32    89    1
    87    32    90    1
    88    32    91    1
    89    33    34    1
    90    33    92    1
    91    33    93    1
    92    34    35    1
    93    34    94    1
    94    34    95    1
    95    35    36    1
    96    35    37    1
    97    35    96    1
    98    36    97    1
    99    36    98    1
   100    36    99    1
   101    37    38    1
   102    37   100    1
   103    37   101    1
   104    38    39    1
   105    38   102    1
   106    38   103    1
   107    39    40    2
   108    39   104    1
   109    40    41    1
   110    40    42    1
   111    41   105    1
   112    41   106    1
   113    41   107    1
   114    42   108    1
   115    42   109    1
   116    42   110    1
   117   111   112    1
   118   111   152    1
   119   111   153    1
   120   111   154    1
   121   112   113    1
   122   112   155    1
   123   112   156    1
   124   113   114    1
   125   113   157    1
   126   113   158    1
   127   114   115    1
   128   114   159    1
   129   114   160    1
   130   115   116    1
   131   115   161    1
   132   115   162    1
   133   116   117    1
   134   116   163    1
   135   116   164    1
   136   117   118    1
   137   117   128    1
   138   118   119    1
   139   118   165    1
   140   118   166    1
   141   119   120    1
   142   119   167    1
   143   119   168    1
   144   120   121    1
   145   120   122    1
   146   120   169    1
   147   121   170    1
   148   121   171    1
   149   121   172    1
   150   122   123    1
   151   122   173    1
   152   122   174    1
   153   123   124    1
   154   123   175    1
   155   123   176    1
   156   124   125    2
   157   124   177    1
   158   125   126    1
   159   125   127    1
   160   126   178    1
   161   126   179    1
   162   126   180    1
   163   127   181    1
   164   127   182    1
   165   127   183    1
   166   128   129    2
   167   128   130    1
   168   130   131    1
   169   130   184    1
   170   130   185    1
   171   131   132    1
   172   132   133    1
   173   132   186    1
   174   132   187    1
   175   133   134    2
   176   133   135    1
   177   135   136    1
   178   135   142    1
   179   136   137    1
   180   136   188    1
   181   136   189    1
   182   137   138    1
   183   137   190    1
   184   137   191    1
   185   138   139    1
   186   138   192    1
   187   138   193    1
   188   139   140    1
   189   139   194    1
   190   139   195    1
   191   140   141    1
   192   140   196    1
   193   140   197    1
   194   141   198    1
   195   141   199    1
   196   141   200    1
   197   142   143    1
   198   142   201    1
   199   142   202    1
   200   143   144    1
   201   143   203    1
   202   143   204    1
   203   144   145    1
   204   144   146    1
   205   144   205    1
   206   145   206    1
   207   145   207    1
   208   145   208    1
   209   146   147    1
   210   146   209    1
   211   146   210    1
   212   147   148    1
   213   147   211    1
   214   147   212    1
   215   148   149    2
   216   148   213    1
   217   149   150    1
   218   149   151    1
   219   150   214    1
   220   150   215    1
   221   150   216    1
   222   151   217    1
   223   151   218    1
   224   151   219    1
   225   220   221    1
   226   220   222    1
   227   223   224    1
   228   223   225    1
@<TRIPOS>SUBSTRUCTURE
     1 RES1      225 GROUP             0 ****  ****    0  
