@<TRIPOS>MOLECULE
ICIGOT_geomtry_0_nunpairedes_0_charge_3 Charge: 3 Unpaired_Electrons: 4 XTB_Unpaired_Electrons: 0 XTB_Charge: 3
   245   248     1     0     0
SMALL
NoCharges
****
Generated from Architector

@<TRIPOS>ATOM
     1 Ho1      -0.0132   -0.5925    0.1082   Ho        1 RES1   0.0000
     2 C1        2.9726    7.3419    3.3838   C.3       1 RES1   0.0000
     3 C2        1.4548    7.4740    3.3526   C.3       1 RES1   0.0000
     4 C3        0.8100    6.8506    2.1110   C.3       1 RES1   0.0000
     5 C4        1.1471    7.5941    0.8181   C.3       1 RES1   0.0000
     6 C5        0.3938    7.0680   -0.4086   C.3       1 RES1   0.0000
     7 C6        0.8641    5.6742   -0.8358   C.3       1 RES1   0.0000
     8 C7        0.2283    5.1644   -2.1341   C.3       1 RES1   0.0000
     9 C8       -1.2110    4.6457   -2.0096   C.3       1 RES1   0.0000
    10 N1       -1.3710    3.6547   -0.9501   N.am      1 RES1   0.0000
    11 C9       -1.9616    4.1651    0.2852   C.3       1 RES1   0.0000
    12 C10      -3.4890    4.2705    0.2055   C.3       1 RES1   0.0000
    13 C11      -4.1327    4.4373    1.5898   C.3       1 RES1   0.0000
    14 C12      -5.6451    4.5923    1.4767   C.3       1 RES1   0.0000
    15 C13      -3.7814    3.2513    2.4945   C.3       1 RES1   0.0000
    16 C14      -3.1328    3.6138    3.8472   C.3       1 RES1   0.0000
    17 C15      -2.5676    2.3058    4.4121   C.3       1 RES1   0.0000
    18 C16      -1.9716    4.6071    3.7422   C.3       1 RES1   0.0000
    19 C17      -4.1977    4.1812    4.7945   C.3       1 RES1   0.0000
    20 C18      -1.0219    2.3789   -1.0275   C.2       1 RES1   0.0000
    21 O1       -1.0620    1.5833   -0.0531   O.2       1 RES1   0.0000
    22 C19      -0.5258    1.8167   -2.3738   C.3       1 RES1   0.0000
    23 O2       -0.3845    0.3937   -2.3246   O.3       1 RES1   0.0000
    24 C20      -1.4058   -0.3544   -3.0027   C.3       1 RES1   0.0000
    25 C21      -2.2157   -1.1844   -1.9939   C.2       1 RES1   0.0000
    26 O3       -1.9901   -0.9784   -0.7788   O.2       1 RES1   0.0000
    27 N2       -3.1392   -2.0261   -2.4120   N.am      1 RES1   0.0000
    28 C22      -3.2861   -2.3605   -3.8154   C.3       1 RES1   0.0000
    29 C23      -4.2371   -1.4221   -4.5681   C.3       1 RES1   0.0000
    30 C24      -3.9184   -1.3498   -6.0642   C.3       1 RES1   0.0000
    31 C25      -3.9473   -2.7174   -6.7593   C.3       1 RES1   0.0000
    32 C26      -2.5729   -3.3941   -6.8770   C.3       1 RES1   0.0000
    33 C27      -2.6718   -4.9158   -6.7661   C.3       1 RES1   0.0000
    34 C28      -1.3122   -5.6180   -6.7790   C.3       1 RES1   0.0000
    35 C29      -0.5067   -5.4085   -5.4981   C.3       1 RES1   0.0000
    36 C30      -4.1620   -2.5241   -1.4864   C.3       1 RES1   0.0000
    37 C31      -3.6841   -3.3649   -0.3012   C.3       1 RES1   0.0000
    38 C32      -3.0453   -4.7214   -0.6195   C.3       1 RES1   0.0000
    39 C33      -3.9884   -5.6320   -1.4037   C.3       1 RES1   0.0000
    40 C34      -2.6816   -5.3972    0.7182   C.3       1 RES1   0.0000
    41 C35      -1.2100   -5.7938    0.9153   C.3       1 RES1   0.0000
    42 C36      -0.7600   -6.7336   -0.2060   C.3       1 RES1   0.0000
    43 C37      -0.3051   -4.5486    0.9722   C.3       1 RES1   0.0000
    44 C38      -1.1455   -6.5628    2.2380   C.3       1 RES1   0.0000
    45 H1        3.3598    7.7185    4.3262   H         1 RES1   0.0000
    46 H2        3.2715    6.2991    3.2868   H         1 RES1   0.0000
    47 H3        3.4365    7.9119    2.5843   H         1 RES1   0.0000
    48 H4        1.0414    6.9845    4.2390   H         1 RES1   0.0000
    49 H5        1.1845    8.5292    3.4060   H         1 RES1   0.0000
    50 H6        1.1256    5.8039    2.0417   H         1 RES1   0.0000
    51 H7       -0.2748    6.8652    2.2479   H         1 RES1   0.0000
    52 H8        0.8907    8.6458    0.9554   H         1 RES1   0.0000
    53 H9        2.2198    7.5418    0.6276   H         1 RES1   0.0000
    54 H10      -0.6790    7.0847   -0.2025   H         1 RES1   0.0000
    55 H11       0.5721    7.7569   -1.2354   H         1 RES1   0.0000
    56 H12       1.9427    5.7379   -0.9981   H         1 RES1   0.0000
    57 H13       0.7010    4.9490   -0.0349   H         1 RES1   0.0000
    58 H14       0.2190    5.9794   -2.8576   H         1 RES1   0.0000
    59 H15       0.8537    4.3695   -2.5429   H         1 RES1   0.0000
    60 H16      -1.8726    5.4758   -1.7673   H         1 RES1   0.0000
    61 H17      -1.5381    4.2498   -2.9747   H         1 RES1   0.0000
    62 H18      -1.6599    3.4795    1.0733   H         1 RES1   0.0000
    63 H19      -1.5367    5.1460    0.4956   H         1 RES1   0.0000
    64 H20      -3.7596    5.1248   -0.4132   H         1 RES1   0.0000
    65 H21      -3.8962    3.3745   -0.2657   H         1 RES1   0.0000
    66 H22      -3.7440    5.3517    2.0323   H         1 RES1   0.0000
    67 H23      -6.0941    3.7363    0.9807   H         1 RES1   0.0000
    68 H24      -6.0781    4.6733    2.4681   H         1 RES1   0.0000
    69 H25      -5.9149    5.4885    0.9276   H         1 RES1   0.0000
    70 H26      -4.6891    2.6814    2.7121   H         1 RES1   0.0000
    71 H27      -3.1181    2.5663    1.9563   H         1 RES1   0.0000
    72 H28      -1.8914    1.8413    3.6892   H         1 RES1   0.0000
    73 H29      -2.0218    2.4727    5.3376   H         1 RES1   0.0000
    74 H30      -3.3871    1.6289    4.6260   H         1 RES1   0.0000
    75 H31      -1.1597    4.2348    3.1162   H         1 RES1   0.0000
    76 H32      -2.2892    5.5726    3.3589   H         1 RES1   0.0000
    77 H33      -1.5761    4.7731    4.7393   H         1 RES1   0.0000
    78 H34      -5.1617    3.7118    4.6185   H         1 RES1   0.0000
    79 H35      -3.9198    3.9935    5.8261   H         1 RES1   0.0000
    80 H36      -4.3083    5.2526    4.6591   H         1 RES1   0.0000
    81 H37      -1.2056    2.1205   -3.1770   H         1 RES1   0.0000
    82 H38       0.4672    2.2309   -2.5889   H         1 RES1   0.0000
    83 H39      -2.1043    0.3133   -3.5213   H         1 RES1   0.0000
    84 H40      -0.9201   -0.9941   -3.7504   H         1 RES1   0.0000
    85 H41      -2.3021   -2.3338   -4.2777   H         1 RES1   0.0000
    86 H42      -3.6370   -3.3895   -3.8757   H         1 RES1   0.0000
    87 H43      -5.2658   -1.7561   -4.4398   H         1 RES1   0.0000
    88 H44      -4.1683   -0.4207   -4.1363   H         1 RES1   0.0000
    89 H45      -4.6640   -0.7028   -6.5247   H         1 RES1   0.0000
    90 H46      -2.9405   -0.8853   -6.2120   H         1 RES1   0.0000
    91 H47      -4.6339   -3.3706   -6.2188   H         1 RES1   0.0000
    92 H48      -4.3563   -2.6014   -7.7619   H         1 RES1   0.0000
    93 H49      -2.1196   -3.1335   -7.8349   H         1 RES1   0.0000
    94 H50      -1.8959   -3.0314   -6.1013   H         1 RES1   0.0000
    95 H51      -3.1967   -5.1812   -5.8428   H         1 RES1   0.0000
    96 H52      -3.2702   -5.2918   -7.5967   H         1 RES1   0.0000
    97 H53      -1.4810   -6.6888   -6.9069   H         1 RES1   0.0000
    98 H54      -0.7330   -5.2706   -7.6366   H         1 RES1   0.0000
    99 H55      -1.0942   -5.6971   -4.6265   H         1 RES1   0.0000
   100 H56       0.3863   -6.0278   -5.5276   H         1 RES1   0.0000
   101 H57      -0.1942   -4.3699   -5.3859   H         1 RES1   0.0000
   102 H58      -4.6905   -1.6549   -1.0824   H         1 RES1   0.0000
   103 H59      -4.8740   -3.0988   -2.0762   H         1 RES1   0.0000
   104 H60      -2.9796   -2.7821    0.3030   H         1 RES1   0.0000
   105 H61      -4.5782   -3.5536    0.2973   H         1 RES1   0.0000
   106 H62      -2.1423   -4.5414   -1.2111   H         1 RES1   0.0000
   107 H63      -4.9299   -5.7358   -0.8693   H         1 RES1   0.0000
   108 H64      -4.2010   -5.2544   -2.4007   H         1 RES1   0.0000
   109 H65      -3.5505   -6.6204   -1.5143   H         1 RES1   0.0000
   110 H66      -2.9672   -4.7554    1.5558   H         1 RES1   0.0000
   111 H67      -3.2774   -6.3035    0.8271   H         1 RES1   0.0000
   112 H68      -0.6586   -6.2077   -1.1536   H         1 RES1   0.0000
   113 H69       0.1930   -7.1960    0.0429   H         1 RES1   0.0000
   114 H70      -1.4837   -7.5354   -0.3276   H         1 RES1   0.0000
   115 H71      -0.5087   -3.8669    0.1347   H         1 RES1   0.0000
   116 H72      -0.4565   -4.0066    1.9046   H         1 RES1   0.0000
   117 H73       0.7384   -4.8422    0.9139   H         1 RES1   0.0000
   118 H74      -1.7355   -7.4732    2.1452   H         1 RES1   0.0000
   119 H75      -0.1310   -6.8428    2.5002   H         1 RES1   0.0000
   120 H76      -1.5679   -5.9728    3.0491   H         1 RES1   0.0000
   121 C39       3.3557   -1.2347   -7.8505   C.3       1 RES1   0.0000
   122 C40       4.2420   -1.9935   -6.8700   C.3       1 RES1   0.0000
   123 C41       4.4561   -1.2546   -5.5447   C.3       1 RES1   0.0000
   124 C42       5.2877    0.0190   -5.7084   C.3       1 RES1   0.0000
   125 C43       5.6743    0.6929   -4.3881   C.3       1 RES1   0.0000
   126 C44       4.4695    1.2836   -3.6512   C.3       1 RES1   0.0000
   127 C45       4.8179    2.0510   -2.3707   C.3       1 RES1   0.0000
   128 C46       5.2267    1.1670   -1.1821   C.3       1 RES1   0.0000
   129 N3        4.2699    0.0851   -0.9874   N.am      1 RES1   0.0000
   130 C47       4.6373   -1.2406   -1.4803   C.3       1 RES1   0.0000
   131 C48       5.1285   -2.1049   -0.3168   C.3       1 RES1   0.0000
   132 C49       5.1702   -3.5976   -0.6819   C.3       1 RES1   0.0000
   133 C50       6.0208   -4.3468    0.3423   C.3       1 RES1   0.0000
   134 C51       3.7509   -4.1956   -0.7957   C.3       1 RES1   0.0000
   135 C52       3.5014   -5.2000   -1.9463   C.3       1 RES1   0.0000
   136 C53       2.0215   -5.5935   -1.9276   C.3       1 RES1   0.0000
   137 C54       3.8156   -4.5793   -3.3072   C.3       1 RES1   0.0000
   138 C55       4.2923   -6.4919   -1.7519   C.3       1 RES1   0.0000
   139 C56       3.0886    0.2135   -0.4202   C.2       1 RES1   0.0000
   140 O4        2.1943   -0.6674   -0.5134   O.2       1 RES1   0.0000
   141 C57       2.7601    1.4594    0.4107   C.3       1 RES1   0.0000
   142 O5        1.4342    1.3370    0.9318   O.3       1 RES1   0.0000
   143 C58       1.2649    1.4482    2.3492   C.3       1 RES1   0.0000
   144 C59       0.8489    0.0835    2.9581   C.2       1 RES1   0.0000
   145 O6        0.8553   -0.9067    2.1868   O.2       1 RES1   0.0000
   146 N4        0.5160    0.0407    4.2395   N.am      1 RES1   0.0000
   147 C60       0.6944    1.2132    5.0917   C.3       1 RES1   0.0000
   148 C61       2.1566    1.4181    5.5233   C.3       1 RES1   0.0000
   149 C62       2.4564    2.8889    5.8325   C.3       1 RES1   0.0000
   150 C63       1.8090    3.3727    7.1408   C.3       1 RES1   0.0000
   151 C64       0.7024    4.4216    6.9764   C.3       1 RES1   0.0000
   152 C65      -0.1499    4.4888    8.2470   C.3       1 RES1   0.0000
   153 C66      -1.0289    5.7336    8.3768   C.3       1 RES1   0.0000
   154 C67      -2.0783    5.8597    7.2784   C.3       1 RES1   0.0000
   155 C68       0.2412   -1.2265    4.9368   C.3       1 RES1   0.0000
   156 C69      -1.0476   -1.9830    4.5690   C.3       1 RES1   0.0000
   157 C70      -2.4106   -1.2864    4.7926   C.3       1 RES1   0.0000
   158 C71      -2.6184   -1.0577    6.2944   C.3       1 RES1   0.0000
   159 C72      -3.5448   -2.1597    4.1957   C.3       1 RES1   0.0000
   160 C73      -4.8068   -1.4679    3.6236   C.3       1 RES1   0.0000
   161 C74      -5.4991   -0.6033    4.6838   C.3       1 RES1   0.0000
   162 C75      -4.5430   -0.5923    2.3896   C.3       1 RES1   0.0000
   163 C76      -5.7819   -2.5652    3.1797   C.3       1 RES1   0.0000
   164 H77       3.1812   -1.8373   -8.7370   H         1 RES1   0.0000
   165 H78       2.3909   -1.0044   -7.4007   H         1 RES1   0.0000
   166 H79       3.8209   -0.3060   -8.1670   H         1 RES1   0.0000
   167 H80       3.7850   -2.9647   -6.6603   H         1 RES1   0.0000
   168 H81       5.2110   -2.1835   -7.3331   H         1 RES1   0.0000
   169 H82       3.4769   -1.0191   -5.1130   H         1 RES1   0.0000
   170 H83       4.9721   -1.9300   -4.8560   H         1 RES1   0.0000
   171 H84       6.2054   -0.2460   -6.2353   H         1 RES1   0.0000
   172 H85       4.7477    0.7336   -6.3305   H         1 RES1   0.0000
   173 H86       6.2132   -0.0293   -3.7713   H         1 RES1   0.0000
   174 H87       6.3692    1.5032   -4.6123   H         1 RES1   0.0000
   175 H88       3.9881    1.9868   -4.3349   H         1 RES1   0.0000
   176 H89       3.7401    0.5020   -3.4230   H         1 RES1   0.0000
   177 H90       5.6416    2.7317   -2.5829   H         1 RES1   0.0000
   178 H91       3.9537    2.6561   -2.0846   H         1 RES1   0.0000
   179 H92       6.2028    0.7250   -1.3748   H         1 RES1   0.0000
   180 H93       5.3237    1.7800   -0.2832   H         1 RES1   0.0000
   181 H94       3.7611   -1.6932   -1.9471   H         1 RES1   0.0000
   182 H95       5.4135   -1.1457   -2.2351   H         1 RES1   0.0000
   183 H96       6.1294   -1.7724   -0.0359   H         1 RES1   0.0000
   184 H97       4.4786   -1.9477    0.5470   H         1 RES1   0.0000
   185 H98       5.6811   -3.6706   -1.6421   H         1 RES1   0.0000
   186 H99       5.6423   -4.2095    1.3518   H         1 RES1   0.0000
   187 H100      6.0160   -5.4080    0.1237   H         1 RES1   0.0000
   188 H101      7.0544   -4.0082    0.3163   H         1 RES1   0.0000
   189 H102      3.5160   -4.7013    0.1427   H         1 RES1   0.0000
   190 H103      3.0269   -3.3761   -0.8995   H         1 RES1   0.0000
   191 H104      1.3788   -4.7050   -1.9219   H         1 RES1   0.0000
   192 H105      1.7782   -6.1932   -2.8003   H         1 RES1   0.0000
   193 H106      1.8146   -6.2002   -1.0567   H         1 RES1   0.0000
   194 H107      3.2271   -3.6764   -3.4743   H         1 RES1   0.0000
   195 H108      4.8687   -4.3251   -3.3840   H         1 RES1   0.0000
   196 H109      3.5916   -5.2817   -4.1056   H         1 RES1   0.0000
   197 H110      4.1436   -6.8755   -0.7449   H         1 RES1   0.0000
   198 H111      3.9681   -7.2507   -2.4610   H         1 RES1   0.0000
   199 H112      5.3523   -6.3387   -1.8985   H         1 RES1   0.0000
   200 H113      3.5021    1.5596    1.2117   H         1 RES1   0.0000
   201 H114      2.8042    2.3512   -0.2287   H         1 RES1   0.0000
   202 H115      2.1809    1.8041    2.8352   H         1 RES1   0.0000
   203 H116      0.4699    2.1904    2.5091   H         1 RES1   0.0000
   204 H117      0.3516    2.1015    4.5616   H         1 RES1   0.0000
   205 H118      0.0555    1.0959    5.9642   H         1 RES1   0.0000
   206 H119      2.3921    0.8099    6.3988   H         1 RES1   0.0000
   207 H120      2.8097    1.0811    4.7151   H         1 RES1   0.0000
   208 H121      3.5384    3.0084    5.8979   H         1 RES1   0.0000
   209 H122      2.1130    3.5082    5.0002   H         1 RES1   0.0000
   210 H123      1.3975    2.5145    7.6731   H         1 RES1   0.0000
   211 H124      2.5793    3.7950    7.7842   H         1 RES1   0.0000
   212 H125      1.1522    5.3969    6.7856   H         1 RES1   0.0000
   213 H126      0.0689    4.1738    6.1208   H         1 RES1   0.0000
   214 H127     -0.7852    3.5987    8.2887   H         1 RES1   0.0000
   215 H128      0.5116    4.4548    9.1133   H         1 RES1   0.0000
   216 H129     -1.5439    5.6593    9.3355   H         1 RES1   0.0000
   217 H130     -0.4036    6.6240    8.3977   H         1 RES1   0.0000
   218 H131     -2.4505    4.8717    7.0290   H         1 RES1   0.0000
   219 H132     -2.9193    6.4534    7.6247   H         1 RES1   0.0000
   220 H133     -1.6876    6.3435    6.3833   H         1 RES1   0.0000
   221 H134      1.0684   -1.9094    4.7258   H         1 RES1   0.0000
   222 H135      0.2618   -1.0039    6.0036   H         1 RES1   0.0000
   223 H136     -0.9367   -2.3120    3.5334   H         1 RES1   0.0000
   224 H137     -1.0266   -2.8726    5.2037   H         1 RES1   0.0000
   225 H138     -2.4046   -0.3244    4.2765   H         1 RES1   0.0000
   226 H139     -2.6304   -2.0081    6.8256   H         1 RES1   0.0000
   227 H140     -1.8291   -0.4368    6.7123   H         1 RES1   0.0000
   228 H141     -3.5575   -0.5551    6.5001   H         1 RES1   0.0000
   229 H142     -3.1353   -2.8149    3.4157   H         1 RES1   0.0000
   230 H143     -3.8838   -2.8452    4.9748   H         1 RES1   0.0000
   231 H144     -4.7940    0.0540    5.1785   H         1 RES1   0.0000
   232 H145     -6.2576    0.0284    4.2231   H         1 RES1   0.0000
   233 H146     -5.9887   -1.2226    5.4316   H         1 RES1   0.0000
   234 H147     -3.8733    0.2385    2.6136   H         1 RES1   0.0000
   235 H148     -4.1836   -1.1949    1.5519   H         1 RES1   0.0000
   236 H149     -5.4930   -0.1561    2.0876   H         1 RES1   0.0000
   237 H150     -6.1087   -3.1527    4.0322   H         1 RES1   0.0000
   238 H151     -6.6574   -2.1147    2.7195   H         1 RES1   0.0000
   239 H152     -5.3238   -3.2417    2.4588   H         1 RES1   0.0000
   240 O7       -1.6692   -0.8746    1.7763   O.3       1 RES1   0.0000
   241 H153     -2.2108   -1.5903    2.1602   H         1 RES1   0.0000
   242 H154     -2.2925   -0.1303    1.6918   H         1 RES1   0.0000
   243 O8        0.4604   -2.2227   -1.8699   O.3       1 RES1   0.0000
   244 H155      1.0604   -1.7988   -2.5044   H         1 RES1   0.0000
   245 H156      0.7603   -3.1557   -1.8319   H         1 RES1   0.0000
@<TRIPOS>BOND
     1     1    21    1
     2     1    23    1
     3     1    26    1
     4     1   140    1
     5     1   142    1
     6     1   145    1
     7     1   240    1
     8     1   243    1
     9     2     3    1
    10     2    45    1
    11     2    46    1
    12     2    47    1
    13     3     4    1
    14     3    48    1
    15     3    49    1
    16     4     5    1
    17     4    50    1
    18     4    51    1
    19     5     6    1
    20     5    52    1
    21     5    53    1
    22     6     7    1
    23     6    54    1
    24     6    55    1
    25     7     8    1
    26     7    56    1
    27     7    57    1
    28     8     9    1
    29     8    58    1
    30     8    59    1
    31     9    10    1
    32     9    60    1
    33     9    61    1
    34    10    11    1
    35    10    20    1
    36    11    12    1
    37    11    62    1
    38    11    63    1
    39    12    13    1
    40    12    64    1
    41    12    65    1
    42    13    14    1
    43    13    15    1
    44    13    66    1
    45    14    67    1
    46    14    68    1
    47    14    69    1
    48    15    16    1
    49    15    70    1
    50    15    71    1
    51    16    17    1
    52    16    18    1
    53    16    19    1
    54    17    72    1
    55    17    73    1
    56    17    74    1
    57    18    75    1
    58    18    76    1
    59    18    77    1
    60    19    78    1
    61    19    79    1
    62    19    80    1
    63    20    21    2
    64    20    22    1
    65    22    23    1
    66    22    81    1
    67    22    82    1
    68    23    24    1
    69    24    25    1
    70    24    83    1
    71    24    84    1
    72    25    26    2
    73    25    27    1
    74    27    28    1
    75    27    36    1
    76    28    29    1
    77    28    85    1
    78    28    86    1
    79    29    30    1
    80    29    87    1
    81    29    88    1
    82    30    31    1
    83    30    89    1
    84    30    90    1
    85    31    32    1
    86    31    91    1
    87    31    92    1
    88    32    33    1
    89    32    93    1
    90    32    94    1
    91    33    34    1
    92    33    95    1
    93    33    96    1
    94    34    35    1
    95    34    97    1
    96    34    98    1
    97    35    99    1
    98    35   100    1
    99    35   101    1
   100    36    37    1
   101    36   102    1
   102    36   103    1
   103    37    38    1
   104    37   104    1
   105    37   105    1
   106    38    39    1
   107    38    40    1
   108    38   106    1
   109    39   107    1
   110    39   108    1
   111    39   109    1
   112    40    41    1
   113    40   110    1
   114    40   111    1
   115    41    42    1
   116    41    43    1
   117    41    44    1
   118    42   112    1
   119    42   113    1
   120    42   114    1
   121    43   115    1
   122    43   116    1
   123    43   117    1
   124    44   118    1
   125    44   119    1
   126    44   120    1
   127   121   122    1
   128   121   164    1
   129   121   165    1
   130   121   166    1
   131   122   123    1
   132   122   167    1
   133   122   168    1
   134   123   124    1
   135   123   169    1
   136   123   170    1
   137   124   125    1
   138   124   171    1
   139   124   172    1
   140   125   126    1
   141   125   173    1
   142   125   174    1
   143   126   127    1
   144   126   175    1
   145   126   176    1
   146   127   128    1
   147   127   177    1
   148   127   178    1
   149   128   129    1
   150   128   179    1
   151   128   180    1
   152   129   130    1
   153   129   139    1
   154   130   131    1
   155   130   181    1
   156   130   182    1
   157   131   132    1
   158   131   183    1
   159   131   184    1
   160   132   133    1
   161   132   134    1
   162   132   185    1
   163   133   186    1
   164   133   187    1
   165   133   188    1
   166   134   135    1
   167   134   189    1
   168   134   190    1
   169   135   136    1
   170   135   137    1
   171   135   138    1
   172   136   191    1
   173   136   192    1
   174   136   193    1
   175   137   194    1
   176   137   195    1
   177   137   196    1
   178   138   197    1
   179   138   198    1
   180   138   199    1
   181   139   140    2
   182   139   141    1
   183   141   142    1
   184   141   200    1
   185   141   201    1
   186   142   143    1
   187   143   144    1
   188   143   202    1
   189   143   203    1
   190   144   145    2
   191   144   146    1
   192   146   147    1
   193   146   155    1
   194   147   148    1
   195   147   204    1
   196   147   205    1
   197   148   149    1
   198   148   206    1
   199   148   207    1
   200   149   150    1
   201   149   208    1
   202   149   209    1
   203   150   151    1
   204   150   210    1
   205   150   211    1
   206   151   152    1
   207   151   212    1
   208   151   213    1
   209   152   153    1
   210   152   214    1
   211   152   215    1
   212   153   154    1
   213   153   216    1
   214   153   217    1
   215   154   218    1
   216   154   219    1
   217   154   220    1
   218   155   156    1
   219   155   221    1
   220   155   222    1
   221   156   157    1
   222   156   223    1
   223   156   224    1
   224   157   158    1
   225   157   159    1
   226   157   225    1
   227   158   226    1
   228   158   227    1
   229   158   228    1
   230   159   160    1
   231   159   229    1
   232   159   230    1
   233   160   161    1
   234   160   162    1
   235   160   163    1
   236   161   231    1
   237   161   232    1
   238   161   233    1
   239   162   234    1
   240   162   235    1
   241   162   236    1
   242   163   237    1
   243   163   238    1
   244   163   239    1
   245   240   241    1
   246   240   242    1
   247   243   244    1
   248   243   245    1
@<TRIPOS>SUBSTRUCTURE
     1 RES1      245 GROUP             0 ****  ****    0  
