@<TRIPOS>MOLECULE
YEMSEP_geometry_0_nunpairedes_0_charge_3 Charge: 3 Unpaired_Electrons: 4 XTB_Unpaired_Electrons: 0 XTB_Charge: 3
   161   164     1     0     0
SMALL
NoCharges
****
Generated from Architector

@<TRIPOS>ATOM
     1 Ho1      -0.1849    0.0148    0.0101   Ho        1 RES1   0.0000
     2 C1       -1.7259   -1.1952    5.9778   C.3       1 RES1   0.0000
     3 C2       -2.4109   -2.2288    5.0926   C.3       1 RES1   0.0000
     4 C3       -3.9376   -2.1362    5.1413   C.3       1 RES1   0.0000
     5 C4       -4.5119   -0.8083    4.6494   C.3       1 RES1   0.0000
     6 C5       -4.1758   -0.5098    3.1896   C.3       1 RES1   0.0000
     7 C6       -4.8927    0.7326    2.6697   C.3       1 RES1   0.0000
     8 C7       -4.4146    2.0477    3.2805   C.3       1 RES1   0.0000
     9 C8       -3.0834    2.5662    2.7256   C.3       1 RES1   0.0000
    10 N1       -1.8427    2.0998    3.3625   N.am      1 RES1   0.0000
    11 C9       -1.5420    2.6503    4.6754   C.3       1 RES1   0.0000
    12 C10      -0.9157    4.0381    4.5924   C.3       1 RES1   0.0000
    13 C11      -1.0038    1.3662    2.6562   C.2       1 RES1   0.0000
    14 O1       -1.3520    0.8608    1.5626   O.2       1 RES1   0.0000
    15 C12       0.4495    1.0907    3.0938   C.3       1 RES1   0.0000
    16 O2        1.1457    0.6386    1.9222   O.3       1 RES1   0.0000
    17 C13       2.4197    1.2382    1.6656   C.3       1 RES1   0.0000
    18 C14       2.6628    1.2168    0.1415   C.2       1 RES1   0.0000
    19 O3        1.8253    0.6166   -0.5775   O.2       1 RES1   0.0000
    20 N2        3.6962    1.8531   -0.3809   N.am      1 RES1   0.0000
    21 C15       4.7718    2.4652    0.3924   C.3       1 RES1   0.0000
    22 C16       5.7675    1.4216    0.8890   C.3       1 RES1   0.0000
    23 C17       3.7976    1.9759   -1.8385   C.3       1 RES1   0.0000
    24 C18       3.3955    3.3830   -2.2952   C.3       1 RES1   0.0000
    25 C19       3.2817    3.5040   -3.8168   C.3       1 RES1   0.0000
    26 C20       1.9912    2.9344   -4.4216   C.3       1 RES1   0.0000
    27 C21       0.9458    4.0029   -4.7551   C.3       1 RES1   0.0000
    28 C22       0.2605    4.6514   -3.5523   C.3       1 RES1   0.0000
    29 C23      -0.7660    3.7435   -2.8728   C.3       1 RES1   0.0000
    30 C24      -1.4081    4.4353   -1.6698   C.3       1 RES1   0.0000
    31 H1       -0.6468   -1.3349    5.9730   H         1 RES1   0.0000
    32 H2       -2.0717   -1.2957    7.0014   H         1 RES1   0.0000
    33 H3       -1.9473   -0.1827    5.6472   H         1 RES1   0.0000
    34 H4       -2.1234   -3.2256    5.4294   H         1 RES1   0.0000
    35 H5       -2.0545   -2.1202    4.0616   H         1 RES1   0.0000
    36 H6       -4.2617   -2.2868    6.1723   H         1 RES1   0.0000
    37 H7       -4.3602   -2.9487    4.5460   H         1 RES1   0.0000
    38 H8       -4.1634   -0.0044    5.2960   H         1 RES1   0.0000
    39 H9       -5.5965   -0.8496    4.7485   H         1 RES1   0.0000
    40 H10      -4.4959   -1.3662    2.5885   H         1 RES1   0.0000
    41 H11      -3.0956   -0.3817    3.0744   H         1 RES1   0.0000
    42 H12      -5.9559    0.6251    2.8836   H         1 RES1   0.0000
    43 H13      -4.7813    0.7900    1.5862   H         1 RES1   0.0000
    44 H14      -4.3931    1.9706    4.3657   H         1 RES1   0.0000
    45 H15      -5.1526    2.8111    3.0344   H         1 RES1   0.0000
    46 H16      -3.0698    3.6541    2.8285   H         1 RES1   0.0000
    47 H17      -3.0108    2.3046    1.6664   H         1 RES1   0.0000
    48 H18      -0.8927    1.9600    5.2174   H         1 RES1   0.0000
    49 H19      -2.4849    2.7155    5.2201   H         1 RES1   0.0000
    50 H20      -0.0222    4.0347    3.9734   H         1 RES1   0.0000
    51 H21      -0.6435    4.3603    5.5917   H         1 RES1   0.0000
    52 H22      -1.6132    4.7685    4.1917   H         1 RES1   0.0000
    53 H23       0.4569    0.2935    3.8527   H         1 RES1   0.0000
    54 H24       0.9265    1.9854    3.5045   H         1 RES1   0.0000
    55 H25       3.2097    0.6777    2.1848   H         1 RES1   0.0000
    56 H26       2.4284    2.2802    2.0116   H         1 RES1   0.0000
    57 H27       4.3577    3.0354    1.2274   H         1 RES1   0.0000
    58 H28       5.2833    3.1641   -0.2712   H         1 RES1   0.0000
    59 H29       5.2924    0.6883    1.5347   H         1 RES1   0.0000
    60 H30       6.5620    1.9040    1.4497   H         1 RES1   0.0000
    61 H31       6.2227    0.9010    0.0516   H         1 RES1   0.0000
    62 H32       3.1374    1.2290   -2.2809   H         1 RES1   0.0000
    63 H33       4.8211    1.7576   -2.1436   H         1 RES1   0.0000
    64 H34       4.1347    4.1080   -1.9549   H         1 RES1   0.0000
    65 H35       2.4466    3.6366   -1.8216   H         1 RES1   0.0000
    66 H36       4.1442    3.0124   -4.2669   H         1 RES1   0.0000
    67 H37       3.3514    4.5611   -4.0714   H         1 RES1   0.0000
    68 H38       1.5585    2.1767   -3.7620   H         1 RES1   0.0000
    69 H39       2.2411    2.4406   -5.3595   H         1 RES1   0.0000
    70 H40       0.1769    3.5588   -5.3910   H         1 RES1   0.0000
    71 H41       1.4300    4.7884   -5.3360   H         1 RES1   0.0000
    72 H42      -0.2589    5.5475   -3.8958   H         1 RES1   0.0000
    73 H43       1.0054    4.9818   -2.8256   H         1 RES1   0.0000
    74 H44      -0.3059    2.7863   -2.5787   H         1 RES1   0.0000
    75 H45      -1.5472    3.4960   -3.5927   H         1 RES1   0.0000
    76 H46      -0.6561    4.9155   -1.0432   H         1 RES1   0.0000
    77 H47      -1.9985    3.7332   -1.0803   H         1 RES1   0.0000
    78 H48      -2.0691    5.2257   -2.0094   H         1 RES1   0.0000
    79 C25      -6.0605   -4.7474   -2.7239   C.3       1 RES1   0.0000
    80 C26      -6.6501   -3.8168   -3.7768   C.3       1 RES1   0.0000
    81 C27      -7.4151   -2.6509   -3.1503   C.3       1 RES1   0.0000
    82 C28      -8.0563   -1.7123   -4.1759   C.3       1 RES1   0.0000
    83 C29      -7.0689   -0.9167   -5.0339   C.3       1 RES1   0.0000
    84 C30      -6.4010    0.2529   -4.2908   C.3       1 RES1   0.0000
    85 C31      -4.8814    0.2894   -4.4951   C.3       1 RES1   0.0000
    86 C32      -4.1322   -0.8433   -3.7591   C.3       1 RES1   0.0000
    87 N3       -3.5919   -0.3945   -2.4807   N.am      1 RES1   0.0000
    88 C33      -4.5487    0.0083   -1.4430   C.3       1 RES1   0.0000
    89 C34      -4.7148    1.5116   -1.2738   C.3       1 RES1   0.0000
    90 C35      -2.3122   -0.2502   -2.2036   C.2       1 RES1   0.0000
    91 O4       -1.9162    0.4311   -1.2214   O.2       1 RES1   0.0000
    92 C36      -1.2197   -0.9912   -2.9917   C.3       1 RES1   0.0000
    93 O5       -0.0879   -1.0457   -2.1143   O.3       1 RES1   0.0000
    94 C37       0.7666   -2.1862   -2.2426   C.3       1 RES1   0.0000
    95 C38       1.0607   -2.7233   -0.8301   C.2       1 RES1   0.0000
    96 O6        0.7772   -1.9689    0.1364   O.2       1 RES1   0.0000
    97 N4        1.5881   -3.9195   -0.6506   N.am      1 RES1   0.0000
    98 C39       1.7624   -4.3955    0.7267   C.3       1 RES1   0.0000
    99 C40       0.4300   -4.6214    1.4328   C.3       1 RES1   0.0000
   100 C41       1.9824   -4.8348   -1.7143   C.3       1 RES1   0.0000
   101 C42       1.0508   -6.0423   -1.8562   C.3       1 RES1   0.0000
   102 C43      -0.4221   -5.7172   -2.1561   C.3       1 RES1   0.0000
   103 C44      -0.8947   -6.0746   -3.5748   C.3       1 RES1   0.0000
   104 C45      -0.8398   -4.9679   -4.6304   C.3       1 RES1   0.0000
   105 C46       0.5355   -4.4970   -5.1119   C.3       1 RES1   0.0000
   106 C47       1.4501   -5.5879   -5.6626   C.3       1 RES1   0.0000
   107 C48       2.8024   -5.0098   -6.0650   C.3       1 RES1   0.0000
   108 H49      -5.5080   -5.5560   -3.1955   H         1 RES1   0.0000
   109 H50      -5.3836   -4.2093   -2.0591   H         1 RES1   0.0000
   110 H51      -6.8518   -5.1838   -2.1221   H         1 RES1   0.0000
   111 H52      -5.8442   -3.4501   -4.4176   H         1 RES1   0.0000
   112 H53      -7.3301   -4.3819   -4.4133   H         1 RES1   0.0000
   113 H54      -8.2096   -3.0605   -2.5242   H         1 RES1   0.0000
   114 H55      -6.7501   -2.0928   -2.4810   H         1 RES1   0.0000
   115 H56      -8.6815   -2.3084   -4.8411   H         1 RES1   0.0000
   116 H57      -8.7120   -1.0162   -3.6501   H         1 RES1   0.0000
   117 H58      -6.3069   -1.5925   -5.4199   H         1 RES1   0.0000
   118 H59      -7.6079   -0.5344   -5.8996   H         1 RES1   0.0000
   119 H60      -6.8146    1.1989   -4.6420   H         1 RES1   0.0000
   120 H61      -6.6476    0.1953   -3.2320   H         1 RES1   0.0000
   121 H62      -4.6807    0.1927   -5.5626   H         1 RES1   0.0000
   122 H63      -4.4822    1.2556   -4.1808   H         1 RES1   0.0000
   123 H64      -4.8325   -1.6616   -3.5782   H         1 RES1   0.0000
   124 H65      -3.3122   -1.2120   -4.3753   H         1 RES1   0.0000
   125 H66      -5.5045   -0.4569   -1.6846   H         1 RES1   0.0000
   126 H67      -4.1767   -0.4147   -0.5032   H         1 RES1   0.0000
   127 H68      -5.0392    1.9892   -2.1902   H         1 RES1   0.0000
   128 H69      -5.4668    1.6996   -0.5140   H         1 RES1   0.0000
   129 H70      -3.7763    1.9591   -0.9620   H         1 RES1   0.0000
   130 H71      -1.5548   -2.0027   -3.2500   H         1 RES1   0.0000
   131 H72      -0.9612   -0.4352   -3.9032   H         1 RES1   0.0000
   132 H73       0.2797   -2.9423   -2.8620   H         1 RES1   0.0000
   133 H74       1.7165   -1.8769   -2.7021   H         1 RES1   0.0000
   134 H75       2.3316   -5.3229    0.6880   H         1 RES1   0.0000
   135 H76       2.3429   -3.6554    1.2840   H         1 RES1   0.0000
   136 H77      -0.2131   -5.2766    0.8525   H         1 RES1   0.0000
   137 H78       0.6149   -5.0917    2.3932   H         1 RES1   0.0000
   138 H79      -0.0736   -3.6715    1.6031   H         1 RES1   0.0000
   139 H80       2.0634   -4.2873   -2.6504   H         1 RES1   0.0000
   140 H81       2.9766   -5.2160   -1.4696   H         1 RES1   0.0000
   141 H82       1.4673   -6.6619   -2.6492   H         1 RES1   0.0000
   142 H83       1.1144   -6.6373   -0.9453   H         1 RES1   0.0000
   143 H84      -1.0337   -6.2979   -1.4630   H         1 RES1   0.0000
   144 H85      -0.6313   -4.6641   -1.9400   H         1 RES1   0.0000
   145 H86      -0.3467   -6.9420   -3.9390   H         1 RES1   0.0000
   146 H87      -1.9417   -6.3742   -3.5007   H         1 RES1   0.0000
   147 H88      -1.3827   -5.3403   -5.4992   H         1 RES1   0.0000
   148 H89      -1.3979   -4.0979   -4.2595   H         1 RES1   0.0000
   149 H90       0.3754   -3.7526   -5.8975   H         1 RES1   0.0000
   150 H91       1.0790   -3.9920   -4.3119   H         1 RES1   0.0000
   151 H92       1.6094   -6.3604   -4.9100   H         1 RES1   0.0000
   152 H93       0.9790   -6.0586   -6.5242   H         1 RES1   0.0000
   153 H94       3.2993   -4.5510   -5.2100   H         1 RES1   0.0000
   154 H95       3.4493   -5.7928   -6.4481   H         1 RES1   0.0000
   155 H96       2.6830   -4.2557   -6.8387   H         1 RES1   0.0000
   156 O7        0.2318    2.6176    0.0097   O.3       1 RES1   0.0000
   157 H97      -0.3096    3.3157    0.4069   H         1 RES1   0.0000
   158 H98       0.4735    2.9729   -0.8633   H         1 RES1   0.0000
   159 O8       -1.9742   -1.7557    0.7275   O.3       1 RES1   0.0000
   160 H99      -2.1033   -2.7148    0.6551   H         1 RES1   0.0000
   161 H100     -2.4924   -1.4924    1.5081   H         1 RES1   0.0000
@<TRIPOS>BOND
     1     1    14    1
     2     1    16    1
     3     1    19    1
     4     1    91    1
     5     1    93    1
     6     1    96    1
     7     1   156    1
     8     1   159    1
     9     2     3    1
    10     2    31    1
    11     2    32    1
    12     2    33    1
    13     3     4    1
    14     3    34    1
    15     3    35    1
    16     4     5    1
    17     4    36    1
    18     4    37    1
    19     5     6    1
    20     5    38    1
    21     5    39    1
    22     6     7    1
    23     6    40    1
    24     6    41    1
    25     7     8    1
    26     7    42    1
    27     7    43    1
    28     8     9    1
    29     8    44    1
    30     8    45    1
    31     9    10    1
    32     9    46    1
    33     9    47    1
    34    10    11    1
    35    10    13    1
    36    11    12    1
    37    11    48    1
    38    11    49    1
    39    12    50    1
    40    12    51    1
    41    12    52    1
    42    13    14    2
    43    13    15    1
    44    15    16    1
    45    15    53    1
    46    15    54    1
    47    16    17    1
    48    17    18    1
    49    17    55    1
    50    17    56    1
    51    18    19    2
    52    18    20    1
    53    20    21    1
    54    20    23    1
    55    21    22    1
    56    21    57    1
    57    21    58    1
    58    22    59    1
    59    22    60    1
    60    22    61    1
    61    23    24    1
    62    23    62    1
    63    23    63    1
    64    24    25    1
    65    24    64    1
    66    24    65    1
    67    25    26    1
    68    25    66    1
    69    25    67    1
    70    26    27    1
    71    26    68    1
    72    26    69    1
    73    27    28    1
    74    27    70    1
    75    27    71    1
    76    28    29    1
    77    28    72    1
    78    28    73    1
    79    29    30    1
    80    29    74    1
    81    29    75    1
    82    30    76    1
    83    30    77    1
    84    30    78    1
    85    79    80    1
    86    79   108    1
    87    79   109    1
    88    79   110    1
    89    80    81    1
    90    80   111    1
    91    80   112    1
    92    81    82    1
    93    81   113    1
    94    81   114    1
    95    82    83    1
    96    82   115    1
    97    82   116    1
    98    83    84    1
    99    83   117    1
   100    83   118    1
   101    84    85    1
   102    84   119    1
   103    84   120    1
   104    85    86    1
   105    85   121    1
   106    85   122    1
   107    86    87    1
   108    86   123    1
   109    86   124    1
   110    87    88    1
   111    87    90    1
   112    88    89    1
   113    88   125    1
   114    88   126    1
   115    89   127    1
   116    89   128    1
   117    89   129    1
   118    90    91    2
   119    90    92    1
   120    92    93    1
   121    92   130    1
   122    92   131    1
   123    93    94    1
   124    94    95    1
   125    94   132    1
   126    94   133    1
   127    95    96    2
   128    95    97    1
   129    97    98    1
   130    97   100    1
   131    98    99    1
   132    98   134    1
   133    98   135    1
   134    99   136    1
   135    99   137    1
   136    99   138    1
   137   100   101    1
   138   100   139    1
   139   100   140    1
   140   101   102    1
   141   101   141    1
   142   101   142    1
   143   102   103    1
   144   102   143    1
   145   102   144    1
   146   103   104    1
   147   103   145    1
   148   103   146    1
   149   104   105    1
   150   104   147    1
   151   104   148    1
   152   105   106    1
   153   105   149    1
   154   105   150    1
   155   106   107    1
   156   106   151    1
   157   106   152    1
   158   107   153    1
   159   107   154    1
   160   107   155    1
   161   156   157    1
   162   156   158    1
   163   159   160    1
   164   159   161    1
@<TRIPOS>SUBSTRUCTURE
     1 RES1      161 GROUP             0 ****  ****    0  
