@<TRIPOS>MOLECULE
ICIGOT_geomtry_0_nunpairedes_0_charge_3 Charge: 3 Unpaired_Electrons: 4 XTB_Unpaired_Electrons: 0 XTB_Charge: 3
   193   206     1     0     0
SMALL
NoCharges
****
Generated from Architector

@<TRIPOS>ATOM
     1 Ho1      -0.1187    0.0373   -0.0074   Ho        1 RES1   0.0000
     2 C1        6.1472    0.8418   -0.0810   C.3       1 RES1   0.0000
     3 C2        6.6655    1.9374    0.8441   C.3       1 RES1   0.0000
     4 C3        6.2222    3.3243    0.3817   C.3       1 RES1   0.0000
     5 C4        6.7515    4.4357    1.2843   C.3       1 RES1   0.0000
     6 C5        6.4580    5.8373    0.7552   C.3       1 RES1   0.0000
     7 C6        4.9912    6.2705    0.8928   C.3       1 RES1   0.0000
     8 C7        3.9963    5.5311    0.0509   C.ar      1 RES1   0.0000
     9 C8        4.0595    5.5226   -1.3405   C.ar      1 RES1   0.0000
    10 C9        3.1176    4.8589   -2.1048   C.ar      1 RES1   0.0000
    11 C10       2.0410    4.1920   -1.5093   C.ar      1 RES1   0.0000
    12 N1        0.9962    3.5781   -2.2761   N.am      1 RES1   0.0000
    13 C11       0.9216    3.9392   -3.6935   C.3       1 RES1   0.0000
    14 C12       0.4882    5.3725   -3.9703   C.3       1 RES1   0.0000
    15 C13       0.2984    2.5536   -1.7423   C.2       1 RES1   0.0000
    16 O1        0.7837    1.8815   -0.7988   O.2       1 RES1   0.0000
    17 C14      -1.0861    2.1459   -2.2049   C.ar      1 RES1   0.0000
    18 C15      -1.8979    2.8036   -3.1295   C.ar      1 RES1   0.0000
    19 C16      -3.0625    2.1818   -3.5578   C.ar      1 RES1   0.0000
    20 C17      -3.4007    0.9294   -3.0673   C.ar      1 RES1   0.0000
    21 C18      -2.6172    0.3906   -2.0474   C.ar      1 RES1   0.0000
    22 C19      -2.8327   -0.9698   -1.4768   C.ar      1 RES1   0.0000
    23 C20      -3.5208   -1.9623   -2.1830   C.ar      1 RES1   0.0000
    24 C21      -3.4866   -3.2589   -1.6980   C.ar      1 RES1   0.0000
    25 C22      -2.8004   -3.5355   -0.5237   C.ar      1 RES1   0.0000
    26 C23      -2.2085   -2.4879    0.1787   C.ar      1 RES1   0.0000
    27 C24      -1.4026   -2.5651    1.4649   C.2       1 RES1   0.0000
    28 O2       -0.4826   -1.7095    1.5280   O.2       1 RES1   0.0000
    29 N2       -1.6430   -3.4163    2.4623   N.am      1 RES1   0.0000
    30 C25      -2.6733   -4.4559    2.4136   C.3       1 RES1   0.0000
    31 C26      -4.0846   -3.8869    2.3726   C.3       1 RES1   0.0000
    32 C27      -0.9527   -3.2821    3.7149   C.ar      1 RES1   0.0000
    33 C28       0.3971   -2.9464    3.7784   C.ar      1 RES1   0.0000
    34 C29       1.0086   -2.7652    5.0063   C.ar      1 RES1   0.0000
    35 C30       0.3207   -2.9581    6.1992   C.ar      1 RES1   0.0000
    36 C31       0.9788   -2.7426    7.5251   C.3       1 RES1   0.0000
    37 C32       0.2881   -1.6546    8.3603   C.3       1 RES1   0.0000
    38 C33       0.3141   -0.2802    7.6966   C.3       1 RES1   0.0000
    39 C34      -0.3631    0.7684    8.5800   C.3       1 RES1   0.0000
    40 C35      -0.4509    2.1547    7.9402   C.3       1 RES1   0.0000
    41 C36       0.9088    2.8235    7.7756   C.3       1 RES1   0.0000
    42 C37      -1.0112   -3.3590    6.1235   C.ar      1 RES1   0.0000
    43 C38      -1.6473   -3.4970    4.9073   C.ar      1 RES1   0.0000
    44 N3       -2.2092   -1.2378   -0.3199   N.ar      1 RES1   0.0000
    45 N4       -1.5228    1.0227   -1.6130   N.ar      1 RES1   0.0000
    46 C39       1.9536    4.2310   -0.1150   C.ar      1 RES1   0.0000
    47 C40       2.9182    4.8714    0.6367   C.ar      1 RES1   0.0000
    48 H1        6.4801   -0.1352    0.2615   H         1 RES1   0.0000
    49 H2        6.5239    0.9954   -1.0891   H         1 RES1   0.0000
    50 H3        5.0571    0.8503   -0.1175   H         1 RES1   0.0000
    51 H4        7.7549    1.8972    0.8709   H         1 RES1   0.0000
    52 H5        6.3066    1.7625    1.8618   H         1 RES1   0.0000
    53 H6        5.1307    3.3505    0.3484   H         1 RES1   0.0000
    54 H7        6.5848    3.4918   -0.6346   H         1 RES1   0.0000
    55 H8        7.8336    4.3196    1.3654   H         1 RES1   0.0000
    56 H9        6.3393    4.3190    2.2884   H         1 RES1   0.0000
    57 H10       6.7757    5.8974   -0.2843   H         1 RES1   0.0000
    58 H11       7.0592    6.5484    1.3228   H         1 RES1   0.0000
    59 H12       4.9342    7.3261    0.6131   H         1 RES1   0.0000
    60 H13       4.7123    6.1904    1.9454   H         1 RES1   0.0000
    61 H14       4.8547    6.0524   -1.8412   H         1 RES1   0.0000
    62 H15       3.2493    4.8999   -3.1739   H         1 RES1   0.0000
    63 H16       0.2657    3.2381   -4.2092   H         1 RES1   0.0000
    64 H17       1.9268    3.7956   -4.1010   H         1 RES1   0.0000
    65 H18      -0.5088    5.5834   -3.5963   H         1 RES1   0.0000
    66 H19       0.4827    5.5304   -5.0453   H         1 RES1   0.0000
    67 H20       1.1699    6.0875   -3.5208   H         1 RES1   0.0000
    68 H21      -1.6486    3.7779   -3.5096   H         1 RES1   0.0000
    69 H22      -3.6898    2.6650   -4.2919   H         1 RES1   0.0000
    70 H23      -4.2539    0.3891   -3.4442   H         1 RES1   0.0000
    71 H24      -4.0234   -1.7520   -3.1127   H         1 RES1   0.0000
    72 H25      -3.9943   -4.0474   -2.2337   H         1 RES1   0.0000
    73 H26      -2.7190   -4.5550   -0.1994   H         1 RES1   0.0000
    74 H27      -2.5497   -5.0600    3.3101   H         1 RES1   0.0000
    75 H28      -2.4616   -5.1092    1.5671   H         1 RES1   0.0000
    76 H29      -4.2708   -3.2847    3.2567   H         1 RES1   0.0000
    77 H30      -4.8122   -4.6918    2.3522   H         1 RES1   0.0000
    78 H31      -4.2359   -3.2666    1.4954   H         1 RES1   0.0000
    79 H32       0.9785   -2.8421    2.8763   H         1 RES1   0.0000
    80 H33       2.0511   -2.4868    5.0399   H         1 RES1   0.0000
    81 H34       2.0268   -2.4735    7.3800   H         1 RES1   0.0000
    82 H35       0.9499   -3.6754    8.0933   H         1 RES1   0.0000
    83 H36       0.7946   -1.5896    9.3236   H         1 RES1   0.0000
    84 H37      -0.7477   -1.9314    8.5548   H         1 RES1   0.0000
    85 H38      -0.1965   -0.3224    6.7287   H         1 RES1   0.0000
    86 H39       1.3510    0.0056    7.5165   H         1 RES1   0.0000
    87 H40       0.1755    0.8481    9.5249   H         1 RES1   0.0000
    88 H41      -1.3743    0.4286    8.8114   H         1 RES1   0.0000
    89 H42      -1.0706    2.7907    8.5749   H         1 RES1   0.0000
    90 H43      -0.9539    2.0720    6.9710   H         1 RES1   0.0000
    91 H44       1.4053    2.8980    8.7384   H         1 RES1   0.0000
    92 H45       0.7938    3.8298    7.3803   H         1 RES1   0.0000
    93 H46       1.5558    2.2574    7.1083   H         1 RES1   0.0000
    94 H47      -1.5487   -3.5825    7.0328   H         1 RES1   0.0000
    95 H48      -2.6893   -3.7778    4.9069   H         1 RES1   0.0000
    96 H49       1.1145    3.7771    0.3938   H         1 RES1   0.0000
    97 H50       2.8351    4.8809    1.7124   H         1 RES1   0.0000
    98 C41       0.5904    7.3182   -0.2946   C.3       1 RES1   0.0000
    99 C42      -0.7645    7.9930   -0.4474   C.3       1 RES1   0.0000
   100 C43      -1.7723    7.0793   -1.1409   C.3       1 RES1   0.0000
   101 C44      -3.1611    7.7023   -1.2758   C.3       1 RES1   0.0000
   102 C45      -3.8605    7.9883    0.0513   C.3       1 RES1   0.0000
   103 C46      -4.3554    6.7412    0.7997   C.3       1 RES1   0.0000
   104 C47      -3.3173    5.8050    1.3324   C.ar      1 RES1   0.0000
   105 C48      -2.3272    6.2215    2.2204   C.ar      1 RES1   0.0000
   106 C49      -1.3900    5.3391    2.7142   C.ar      1 RES1   0.0000
   107 C50      -1.4293    3.9760    2.3878   C.ar      1 RES1   0.0000
   108 N5       -0.4304    3.1042    2.9441   N.am      1 RES1   0.0000
   109 C51       0.1365    3.5471    4.2189   C.3       1 RES1   0.0000
   110 C52       1.4800    4.2569    4.0982   C.3       1 RES1   0.0000
   111 C53      -0.0832    1.9476    2.3646   C.2       1 RES1   0.0000
   112 O3       -0.7720    1.4637    1.4315   O.2       1 RES1   0.0000
   113 C54       1.1528    1.1160    2.7055   C.ar      1 RES1   0.0000
   114 C55       1.8877    1.0620    3.8897   C.ar      1 RES1   0.0000
   115 C56       2.9081    0.1315    4.0087   C.ar      1 RES1   0.0000
   116 C57       3.1805   -0.7386    2.9710   C.ar      1 RES1   0.0000
   117 C58       2.4319   -0.6236    1.8010   C.ar      1 RES1   0.0000
   118 C59       2.6080   -1.5692    0.6624   C.ar      1 RES1   0.0000
   119 C60       3.4325   -2.6970    0.7321   C.ar      1 RES1   0.0000
   120 C61       3.4509   -3.5746   -0.3390   C.ar      1 RES1   0.0000
   121 C62       2.6774   -3.3177   -1.4620   C.ar      1 RES1   0.0000
   122 C63       1.9014   -2.1633   -1.4780   C.ar      1 RES1   0.0000
   123 C64       0.8840   -1.7374   -2.4996   C.2       1 RES1   0.0000
   124 O4        0.0650   -0.8829   -2.0660   O.2       1 RES1   0.0000
   125 N6        0.7164   -2.2299   -3.7278   N.am      1 RES1   0.0000
   126 C65      -0.4712   -1.7700   -4.4723   C.3       1 RES1   0.0000
   127 C66      -0.1148   -0.8165   -5.6056   C.3       1 RES1   0.0000
   128 C67       1.6722   -2.9380   -4.5058   C.ar      1 RES1   0.0000
   129 C68       3.0277   -2.6365   -4.3948   C.ar      1 RES1   0.0000
   130 C69       3.9477   -3.2255   -5.2377   C.ar      1 RES1   0.0000
   131 C70       3.5428   -4.0661   -6.2742   C.ar      1 RES1   0.0000
   132 C71       4.4919   -4.6308   -7.2856   C.3       1 RES1   0.0000
   133 C72       5.9043   -4.0497   -7.2292   C.3       1 RES1   0.0000
   134 C73       5.9459   -2.5659   -7.6038   C.3       1 RES1   0.0000
   135 C74       7.2775   -1.8735   -7.2990   C.3       1 RES1   0.0000
   136 C75       7.4782   -1.4106   -5.8504   C.3       1 RES1   0.0000
   137 C76       7.8847   -2.5022   -4.8645   C.3       1 RES1   0.0000
   138 C77       2.1828   -4.3614   -6.3748   C.ar      1 RES1   0.0000
   139 C78       1.2619   -3.8347   -5.4944   C.ar      1 RES1   0.0000
   140 N7        1.8665   -1.3289   -0.4229   N.ar      1 RES1   0.0000
   141 N8        1.4658    0.2951    1.6872   N.ar      1 RES1   0.0000
   142 C79      -2.4519    3.5458    1.5437   C.ar      1 RES1   0.0000
   143 C80      -3.3567    4.4503    1.0195   C.ar      1 RES1   0.0000
   144 H51       1.2942    7.9768    0.2054   H         1 RES1   0.0000
   145 H52       1.0080    7.0517   -1.2619   H         1 RES1   0.0000
   146 H53       0.4905    6.4087    0.2939   H         1 RES1   0.0000
   147 H54      -0.6569    8.9140   -1.0205   H         1 RES1   0.0000
   148 H55      -1.1262    8.2623    0.5435   H         1 RES1   0.0000
   149 H56      -1.8388    6.1340   -0.5959   H         1 RES1   0.0000
   150 H57      -1.3903    6.8560   -2.1405   H         1 RES1   0.0000
   151 H58      -3.7894    7.0418   -1.8776   H         1 RES1   0.0000
   152 H59      -3.0597    8.6398   -1.8260   H         1 RES1   0.0000
   153 H60      -4.7405    8.5959   -0.1620   H         1 RES1   0.0000
   154 H61      -3.2069    8.5812    0.6865   H         1 RES1   0.0000
   155 H62      -5.0261    6.1895    0.1379   H         1 RES1   0.0000
   156 H63      -4.9394    7.0902    1.6568   H         1 RES1   0.0000
   157 H64      -2.2954    7.2459    2.5536   H         1 RES1   0.0000
   158 H65      -0.6318    5.7469    3.3606   H         1 RES1   0.0000
   159 H66       0.1887    2.6827    4.8776   H         1 RES1   0.0000
   160 H67      -0.5895    4.2232    4.6676   H         1 RES1   0.0000
   161 H68       2.2146    3.6456    3.5816   H         1 RES1   0.0000
   162 H69       1.8523    4.4805    5.0945   H         1 RES1   0.0000
   163 H70       1.3717    5.1923    3.5561   H         1 RES1   0.0000
   164 H71       1.6913    1.6848    4.7395   H         1 RES1   0.0000
   165 H72       3.4760    0.0818    4.9226   H         1 RES1   0.0000
   166 H73       3.9395   -1.4960    3.0631   H         1 RES1   0.0000
   167 H74       4.0308   -2.9089    1.6036   H         1 RES1   0.0000
   168 H75       4.0662   -4.4581   -0.2865   H         1 RES1   0.0000
   169 H76       2.6674   -4.0044   -2.2903   H         1 RES1   0.0000
   170 H77      -1.1257   -1.2601   -3.7645   H         1 RES1   0.0000
   171 H78      -0.9915   -2.6464   -4.8635   H         1 RES1   0.0000
   172 H79       0.4171    0.0499   -5.2231   H         1 RES1   0.0000
   173 H80      -1.0238   -0.4766   -6.0921   H         1 RES1   0.0000
   174 H81       0.5015   -1.3075   -6.3511   H         1 RES1   0.0000
   175 H82       3.3586   -1.8974   -3.6803   H         1 RES1   0.0000
   176 H83       4.9856   -2.9758   -5.1058   H         1 RES1   0.0000
   177 H84       4.0744   -4.4731   -8.2856   H         1 RES1   0.0000
   178 H85       4.5411   -5.7171   -7.1449   H         1 RES1   0.0000
   179 H86       6.5308   -4.5958   -7.9349   H         1 RES1   0.0000
   180 H87       6.3226   -4.2188   -6.2404   H         1 RES1   0.0000
   181 H88       5.1421   -2.0115   -7.1150   H         1 RES1   0.0000
   182 H89       5.7642   -2.4978   -8.6764   H         1 RES1   0.0000
   183 H90       7.3419   -0.9850   -7.9321   H         1 RES1   0.0000
   184 H91       8.1010   -2.5292   -7.5821   H         1 RES1   0.0000
   185 H92       6.5735   -0.9040   -5.4983   H         1 RES1   0.0000
   186 H93       8.2801   -0.6699   -5.8551   H         1 RES1   0.0000
   187 H94       7.0723   -3.1863   -4.6335   H         1 RES1   0.0000
   188 H95       8.2114   -2.0605   -3.9257   H         1 RES1   0.0000
   189 H96       8.7112   -3.0813   -5.2655   H         1 RES1   0.0000
   190 H97       1.8467   -5.0097   -7.1706   H         1 RES1   0.0000
   191 H98       0.2250   -4.1199   -5.5936   H         1 RES1   0.0000
   192 H99      -2.5785    2.5025    1.3018   H         1 RES1   0.0000
   193 H100     -4.1422    4.0841    0.3745   H         1 RES1   0.0000
@<TRIPOS>BOND
     1     1    16    1
     2     1    28    1
     3     1    44    1
     4     1    45    1
     5     1   112    1
     6     1   124    1
     7     1   140    1
     8     1   141    1
     9     2     3    1
    10     2    48    1
    11     2    49    1
    12     2    50    1
    13     3     4    1
    14     3    51    1
    15     3    52    1
    16     4     5    1
    17     4    53    1
    18     4    54    1
    19     5     6    1
    20     5    55    1
    21     5    56    1
    22     6     7    1
    23     6    57    1
    24     6    58    1
    25     7     8    1
    26     7    59    1
    27     7    60    1
    28     8     9    1
    29     8    47    2
    30     9    10    2
    31     9    61    1
    32    10    11    1
    33    10    62    1
    34    11    12    1
    35    11    46    2
    36    12    13    1
    37    12    15    1
    38    13    14    1
    39    13    63    1
    40    13    64    1
    41    14    65    1
    42    14    66    1
    43    14    67    1
    44    15    16    2
    45    15    17    1
    46    17    18    1
    47    17    45    2
    48    18    19    2
    49    18    68    1
    50    19    20    1
    51    19    69    1
    52    20    21    2
    53    20    70    1
    54    21    22    1
    55    21    45    1
    56    22    23    1
    57    22    44    2
    58    23    24    2
    59    23    71    1
    60    24    25    1
    61    24    72    1
    62    25    26    2
    63    25    73    1
    64    26    27    1
    65    26    44    1
    66    27    28    2
    67    27    29    1
    68    29    30    1
    69    29    32    1
    70    30    31    1
    71    30    74    1
    72    30    75    1
    73    31    76    1
    74    31    77    1
    75    31    78    1
    76    32    33    1
    77    32    43    2
    78    33    34    2
    79    33    79    1
    80    34    35    1
    81    34    80    1
    82    35    36    1
    83    35    42    2
    84    36    37    1
    85    36    81    1
    86    36    82    1
    87    37    38    1
    88    37    83    1
    89    37    84    1
    90    38    39    1
    91    38    85    1
    92    38    86    1
    93    39    40    1
    94    39    87    1
    95    39    88    1
    96    40    41    1
    97    40    89    1
    98    40    90    1
    99    41    91    1
   100    41    92    1
   101    41    93    1
   102    42    43    1
   103    42    94    1
   104    43    95    1
   105    46    47    1
   106    46    96    1
   107    47    97    1
   108    98    99    1
   109    98   144    1
   110    98   145    1
   111    98   146    1
   112    99   100    1
   113    99   147    1
   114    99   148    1
   115   100   101    1
   116   100   149    1
   117   100   150    1
   118   101   102    1
   119   101   151    1
   120   101   152    1
   121   102   103    1
   122   102   153    1
   123   102   154    1
   124   103   104    1
   125   103   155    1
   126   103   156    1
   127   104   105    1
   128   104   143    2
   129   105   106    2
   130   105   157    1
   131   106   107    1
   132   106   158    1
   133   107   108    1
   134   107   142    2
   135   108   109    1
   136   108   111    1
   137   109   110    1
   138   109   159    1
   139   109   160    1
   140   110   161    1
   141   110   162    1
   142   110   163    1
   143   111   112    2
   144   111   113    1
   145   113   114    1
   146   113   141    2
   147   114   115    2
   148   114   164    1
   149   115   116    1
   150   115   165    1
   151   116   117    2
   152   116   166    1
   153   117   118    1
   154   117   141    1
   155   118   119    1
   156   118   140    2
   157   119   120    2
   158   119   167    1
   159   120   121    1
   160   120   168    1
   161   121   122    2
   162   121   169    1
   163   122   123    1
   164   122   140    1
   165   123   124    2
   166   123   125    1
   167   125   126    1
   168   125   128    1
   169   126   127    1
   170   126   170    1
   171   126   171    1
   172   127   172    1
   173   127   173    1
   174   127   174    1
   175   128   129    1
   176   128   139    2
   177   129   130    2
   178   129   175    1
   179   130   131    1
   180   130   176    1
   181   131   132    1
   182   131   138    2
   183   132   133    1
   184   132   177    1
   185   132   178    1
   186   133   134    1
   187   133   179    1
   188   133   180    1
   189   134   135    1
   190   134   181    1
   191   134   182    1
   192   135   136    1
   193   135   183    1
   194   135   184    1
   195   136   137    1
   196   136   185    1
   197   136   186    1
   198   137   187    1
   199   137   188    1
   200   137   189    1
   201   138   139    1
   202   138   190    1
   203   139   191    1
   204   142   143    1
   205   142   192    1
   206   143   193    1
@<TRIPOS>SUBSTRUCTURE
     1 RES1      193 GROUP             0 ****  ****    0  
