@<TRIPOS>MOLECULE
YEMSEP_geometry_0_nunpairedes_0_charge_3 Charge: 3 Unpaired_Electrons: 4 XTB_Unpaired_Electrons: 0 XTB_Charge: 3
   191   194     1     0     0
SMALL
NoCharges
****
Generated from Architector

@<TRIPOS>ATOM
     1 Ho1      -0.5592    0.1784    0.0534   Ho        1 RES1   0.0000
     2 C1        2.2984   -8.8096   -1.1021   C.3       1 RES1   0.0000
     3 C2        2.7426   -7.5141   -0.4340   C.3       1 RES1   0.0000
     4 C3        4.2457   -7.4331   -0.1677   C.3       1 RES1   0.0000
     5 C4        4.5873   -6.1229    0.5678   C.3       1 RES1   0.0000
     6 C5        5.7252   -5.2864   -0.0454   C.3       1 RES1   0.0000
     7 C6        5.3224   -3.8469   -0.3911   C.3       1 RES1   0.0000
     8 C7        5.0330   -2.9827    0.8415   C.3       1 RES1   0.0000
     9 C8        4.4587   -1.6225    0.4181   C.3       1 RES1   0.0000
    10 N1        3.8728   -0.8697    1.5272   N.am      1 RES1   0.0000
    11 C9        4.7937   -0.6178    2.6188   C.3       1 RES1   0.0000
    12 C10       2.6258   -0.4277    1.4639   C.2       1 RES1   0.0000
    13 O1        1.8638   -0.6041    0.4875   O.2       1 RES1   0.0000
    14 C11       2.0912    0.3344    2.6772   C.3       1 RES1   0.0000
    15 O2        0.8000    0.8530    2.3761   O.3       1 RES1   0.0000
    16 C12      -0.0396    1.0114    3.5243   C.3       1 RES1   0.0000
    17 C13      -1.2996    0.1568    3.2882   C.2       1 RES1   0.0000
    18 O3       -1.3486   -0.4407    2.1784   O.2       1 RES1   0.0000
    19 N2       -2.2599    0.1243    4.1893   N.am      1 RES1   0.0000
    20 C14      -2.1843    0.7791    5.4932   C.3       1 RES1   0.0000
    21 C15      -2.9946    2.0821    5.5426   C.3       1 RES1   0.0000
    22 C16      -2.5352    3.0788    6.6062   C.3       1 RES1   0.0000
    23 C17      -2.7438    2.5965    8.0471   C.3       1 RES1   0.0000
    24 C18      -1.5481    1.8669    8.6682   C.3       1 RES1   0.0000
    25 C19      -0.2832    2.7361    8.7468   C.3       1 RES1   0.0000
    26 C20       0.7752    2.4076    7.6929   C.3       1 RES1   0.0000
    27 C21       1.9654    3.3509    7.8103   C.3       1 RES1   0.0000
    28 C22      -3.4819   -0.6380    3.9247   C.3       1 RES1   0.0000
    29 C23      -4.6294    0.2267    3.3965   C.3       1 RES1   0.0000
    30 C24      -4.3096    0.8499    2.0284   C.3       1 RES1   0.0000
    31 C25      -4.4352    2.3770    1.9613   C.3       1 RES1   0.0000
    32 C26      -3.4367    3.0356    1.0050   C.3       1 RES1   0.0000
    33 C27      -1.9923    3.0049    1.5280   C.3       1 RES1   0.0000
    34 C28      -1.0969    4.0935    0.9341   C.3       1 RES1   0.0000
    35 C29      -0.7761    3.8436   -0.5343   C.3       1 RES1   0.0000
    36 H1        1.2252   -8.7887   -1.2937   H         1 RES1   0.0000
    37 H2        2.5115   -9.6568   -0.4534   H         1 RES1   0.0000
    38 H3        2.7853   -8.9761   -2.0594   H         1 RES1   0.0000
    39 H4        2.1990   -7.4118    0.5100   H         1 RES1   0.0000
    40 H5        2.4475   -6.6610   -1.0564   H         1 RES1   0.0000
    41 H6        4.7714   -7.4859   -1.1216   H         1 RES1   0.0000
    42 H7        4.5531   -8.3047    0.4100   H         1 RES1   0.0000
    43 H8        4.8104   -6.3381    1.6105   H         1 RES1   0.0000
    44 H9        3.6847   -5.5105    0.5719   H         1 RES1   0.0000
    45 H10       6.0663   -5.7540   -0.9658   H         1 RES1   0.0000
    46 H11       6.5757   -5.2448    0.6300   H         1 RES1   0.0000
    47 H12       4.4432   -3.8690   -1.0374   H         1 RES1   0.0000
    48 H13       6.1225   -3.3712   -0.9632   H         1 RES1   0.0000
    49 H14       5.9772   -2.8458    1.3727   H         1 RES1   0.0000
    50 H15       4.3188   -3.4972    1.4916   H         1 RES1   0.0000
    51 H16       3.6687   -1.7672   -0.3231   H         1 RES1   0.0000
    52 H17       5.2603   -1.0226   -0.0261   H         1 RES1   0.0000
    53 H18       5.2265   -1.5552    2.9595   H         1 RES1   0.0000
    54 H19       4.3224   -0.1474    3.4696   H         1 RES1   0.0000
    55 H20       5.6065    0.0195    2.2709   H         1 RES1   0.0000
    56 H21       2.7483    1.1688    2.9423   H         1 RES1   0.0000
    57 H22       2.0361   -0.3625    3.5194   H         1 RES1   0.0000
    58 H23      -0.2957    2.0750    3.6218   H         1 RES1   0.0000
    59 H24       0.4878    0.7097    4.4330   H         1 RES1   0.0000
    60 H25      -1.1437    0.9811    5.7427   H         1 RES1   0.0000
    61 H26      -2.5765    0.0709    6.2251   H         1 RES1   0.0000
    62 H27      -4.0411    1.8557    5.7409   H         1 RES1   0.0000
    63 H28      -2.9260    2.5672    4.5677   H         1 RES1   0.0000
    64 H29      -3.1246    3.9861    6.4578   H         1 RES1   0.0000
    65 H30      -1.4911    3.3448    6.4453   H         1 RES1   0.0000
    66 H31      -3.6261    1.9515    8.0871   H         1 RES1   0.0000
    67 H32      -2.9586    3.4682    8.6686   H         1 RES1   0.0000
    68 H33      -1.3321    0.9413    8.1292   H         1 RES1   0.0000
    69 H34      -1.8418    1.5846    9.6793   H         1 RES1   0.0000
    70 H35       0.1805    2.6094    9.7247   H         1 RES1   0.0000
    71 H36      -0.5627    3.7875    8.6617   H         1 RES1   0.0000
    72 H37       0.3531    2.4799    6.6837   H         1 RES1   0.0000
    73 H38       1.1128    1.3767    7.8301   H         1 RES1   0.0000
    74 H39       1.6591    4.3822    7.6515   H         1 RES1   0.0000
    75 H40       2.7392    3.1021    7.0872   H         1 RES1   0.0000
    76 H41       2.3902    3.2772    8.8061   H         1 RES1   0.0000
    77 H42      -3.7888   -1.1025    4.8611   H         1 RES1   0.0000
    78 H43      -3.2451   -1.4201    3.1991   H         1 RES1   0.0000
    79 H44      -4.8674    1.0082    4.1126   H         1 RES1   0.0000
    80 H45      -5.5069   -0.4140    3.3256   H         1 RES1   0.0000
    81 H46      -4.9667    0.4180    1.2744   H         1 RES1   0.0000
    82 H47      -3.2938    0.5714    1.7545   H         1 RES1   0.0000
    83 H48      -4.3078    2.8224    2.9469   H         1 RES1   0.0000
    84 H49      -5.4353    2.6420    1.6255   H         1 RES1   0.0000
    85 H50      -3.7455    4.0768    0.8767   H         1 RES1   0.0000
    86 H51      -3.4759    2.5407    0.0346   H         1 RES1   0.0000
    87 H52      -1.5174    2.0103    1.3003   H         1 RES1   0.0000
    88 H53      -2.0158    3.1411    2.6129   H         1 RES1   0.0000
    89 H54      -0.1681    4.1491    1.5113   H         1 RES1   0.0000
    90 H55      -1.5978    5.0575    1.0373   H         1 RES1   0.0000
    91 H56      -0.4995    2.7907   -0.7020   H         1 RES1   0.0000
    92 H57       0.0314    4.4877   -0.8732   H         1 RES1   0.0000
    93 H58      -1.6393    4.0608   -1.1541   H         1 RES1   0.0000
    94 C30      -0.0992    8.6870   -0.6876   C.3       1 RES1   0.0000
    95 C31      -1.0843    7.5470   -0.8999   C.3       1 RES1   0.0000
    96 C32      -2.3198    7.9977   -1.6774   C.3       1 RES1   0.0000
    97 C33      -3.2910    6.8560   -2.0125   C.3       1 RES1   0.0000
    98 C34      -2.7778    5.9960   -3.1730   C.3       1 RES1   0.0000
    99 C35      -3.7091    4.8703   -3.6576   C.3       1 RES1   0.0000
   100 C36      -4.0626    3.8607   -2.5572   C.3       1 RES1   0.0000
   101 C37      -4.2300    2.3985   -2.9804   C.3       1 RES1   0.0000
   102 N3       -3.0346    1.7909   -3.5724   N.am      1 RES1   0.0000
   103 C38      -3.0731    1.5880   -5.0099   C.3       1 RES1   0.0000
   104 C39      -2.0710    1.2872   -2.8184   C.2       1 RES1   0.0000
   105 O4       -2.0674    1.3109   -1.5651   O.2       1 RES1   0.0000
   106 C40      -0.8725    0.6301   -3.5191   C.3       1 RES1   0.0000
   107 O5       -0.1169   -0.0817   -2.5351   O.3       1 RES1   0.0000
   108 C41       0.3830   -1.3645   -2.9312   C.3       1 RES1   0.0000
   109 C42       0.4033   -2.1877   -1.6299   C.2       1 RES1   0.0000
   110 O6       -0.4279   -1.8031   -0.7736   O.2       1 RES1   0.0000
   111 N4        1.2343   -3.1893   -1.4432   N.am      1 RES1   0.0000
   112 C43       2.1108   -3.6843   -2.5104   C.3       1 RES1   0.0000
   113 C44       1.3874   -4.2872   -3.7119   C.3       1 RES1   0.0000
   114 C45       0.5203   -5.4908   -3.3413   C.3       1 RES1   0.0000
   115 C46      -0.5763   -5.7154   -4.3787   C.3       1 RES1   0.0000
   116 C47      -1.6153   -4.5910   -4.3758   C.3       1 RES1   0.0000
   117 C48      -2.9332   -5.0250   -5.0240   C.3       1 RES1   0.0000
   118 C49      -4.1183   -4.1108   -4.6894   C.3       1 RES1   0.0000
   119 C50      -4.0014   -2.7021   -5.2658   C.3       1 RES1   0.0000
   120 C51       1.4305   -3.9060   -0.1679   C.3       1 RES1   0.0000
   121 C52       0.8187   -3.4080    1.1549   C.3       1 RES1   0.0000
   122 C53       0.1583   -4.5198    1.9954   C.3       1 RES1   0.0000
   123 C54       1.0893   -4.9645    3.1257   C.3       1 RES1   0.0000
   124 C55       0.5033   -6.0609    4.0262   C.3       1 RES1   0.0000
   125 C56       1.5838   -6.9415    4.6705   C.3       1 RES1   0.0000
   126 C57       1.9765   -8.1289    3.7863   C.3       1 RES1   0.0000
   127 C58       0.9601   -9.2648    3.7799   C.3       1 RES1   0.0000
   128 H59       0.7250    8.3624   -0.0595   H         1 RES1   0.0000
   129 H60      -0.5855    9.5296   -0.2084   H         1 RES1   0.0000
   130 H61       0.3007    9.0303   -1.6365   H         1 RES1   0.0000
   131 H62      -1.4021    7.1548    0.0706   H         1 RES1   0.0000
   132 H63      -0.5841    6.7426   -1.4433   H         1 RES1   0.0000
   133 H64      -2.0110    8.4785   -2.6072   H         1 RES1   0.0000
   134 H65      -2.8535    8.7404   -1.0835   H         1 RES1   0.0000
   135 H66      -4.2537    7.2877   -2.2951   H         1 RES1   0.0000
   136 H67      -3.4469    6.2408   -1.1201   H         1 RES1   0.0000
   137 H68      -1.8090    5.5686   -2.8968   H         1 RES1   0.0000
   138 H69      -2.6003    6.6563   -4.0241   H         1 RES1   0.0000
   139 H70      -3.1900    4.3718   -4.4785   H         1 RES1   0.0000
   140 H71      -4.6236    5.3103   -4.0592   H         1 RES1   0.0000
   141 H72      -5.0045    4.1578   -2.0984   H         1 RES1   0.0000
   142 H73      -3.2953    3.8962   -1.7900   H         1 RES1   0.0000
   143 H74      -5.0340    2.3198   -3.7104   H         1 RES1   0.0000
   144 H75      -4.4882    1.8174   -2.0913   H         1 RES1   0.0000
   145 H76      -3.8312    2.2411   -5.4322   H         1 RES1   0.0000
   146 H77      -3.3450    0.5547   -5.2454   H         1 RES1   0.0000
   147 H78      -2.1278    1.8311   -5.4880   H         1 RES1   0.0000
   148 H79      -0.2537    1.4229   -3.9656   H         1 RES1   0.0000
   149 H80      -1.2187   -0.0337   -4.3159   H         1 RES1   0.0000
   150 H81       1.3597   -1.2556   -3.4185   H         1 RES1   0.0000
   151 H82      -0.3119   -1.8457   -3.6297   H         1 RES1   0.0000
   152 H83       2.7442   -4.4601   -2.0826   H         1 RES1   0.0000
   153 H84       2.7702   -2.8795   -2.8447   H         1 RES1   0.0000
   154 H85       2.1547   -4.5859   -4.4269   H         1 RES1   0.0000
   155 H86       0.7772   -3.5336   -4.2013   H         1 RES1   0.0000
   156 H87       0.0521   -5.3165   -2.3681   H         1 RES1   0.0000
   157 H88       1.1437   -6.3826   -3.2722   H         1 RES1   0.0000
   158 H89      -1.0762   -6.6565   -4.1547   H         1 RES1   0.0000
   159 H90      -0.1342   -5.8004   -5.3707   H         1 RES1   0.0000
   160 H91      -1.2365   -3.7229   -4.9223   H         1 RES1   0.0000
   161 H92      -1.8082   -4.2843   -3.3411   H         1 RES1   0.0000
   162 H93      -3.1792   -6.0310   -4.6744   H         1 RES1   0.0000
   163 H94      -2.8059   -5.0658   -6.1086   H         1 RES1   0.0000
   164 H95      -4.2325   -4.0500   -3.6019   H         1 RES1   0.0000
   165 H96      -5.0232   -4.5726   -5.0899   H         1 RES1   0.0000
   166 H97      -3.1108   -2.1976   -4.8884   H         1 RES1   0.0000
   167 H98      -4.8769   -2.1144   -4.9949   H         1 RES1   0.0000
   168 H99      -3.9430   -2.7488   -6.3496   H         1 RES1   0.0000
   169 H100      2.5134   -3.9000   -0.0393   H         1 RES1   0.0000
   170 H101      1.1294   -4.9425   -0.3385   H         1 RES1   0.0000
   171 H102      0.0833   -2.6235    0.9965   H         1 RES1   0.0000
   172 H103      1.6253   -2.9716    1.7492   H         1 RES1   0.0000
   173 H104     -0.0782   -5.3832    1.3735   H         1 RES1   0.0000
   174 H105     -0.7808   -4.1570    2.4190   H         1 RES1   0.0000
   175 H106      1.3322   -4.0983    3.7500   H         1 RES1   0.0000
   176 H107      2.0219   -5.3141    2.6786   H         1 RES1   0.0000
   177 H108     -0.1577   -6.7049    3.4440   H         1 RES1   0.0000
   178 H109     -0.0974   -5.5917    4.8089   H         1 RES1   0.0000
   179 H110      1.2064   -7.3102    5.6245   H         1 RES1   0.0000
   180 H111      2.4772   -6.3429    4.8740   H         1 RES1   0.0000
   181 H112      2.9255   -8.5336    4.1377   H         1 RES1   0.0000
   182 H113      2.1280   -7.7716    2.7641   H         1 RES1   0.0000
   183 H114      0.8234   -9.6640    4.7811   H         1 RES1   0.0000
   184 H115      1.3150  -10.0679    3.1402   H         1 RES1   0.0000
   185 H116     -0.0070   -8.9412    3.4048   H         1 RES1   0.0000
   186 O7        1.4689    1.8500   -0.3259   O.3       1 RES1   0.0000
   187 H117      2.3564    1.6159   -0.6280   H         1 RES1   0.0000
   188 H118      1.5681    2.6796    0.1614   H         1 RES1   0.0000
   189 O8       -2.8821   -0.8282   -0.1905   O.3       1 RES1   0.0000
   190 H119     -3.0808   -1.7112    0.1466   H         1 RES1   0.0000
   191 H120     -3.7158   -0.4521   -0.5009   H         1 RES1   0.0000
@<TRIPOS>BOND
     1     1    13    1
     2     1    15    1
     3     1    18    1
     4     1   105    1
     5     1   107    1
     6     1   110    1
     7     1   186    1
     8     1   189    1
     9     2     3    1
    10     2    36    1
    11     2    37    1
    12     2    38    1
    13     3     4    1
    14     3    39    1
    15     3    40    1
    16     4     5    1
    17     4    41    1
    18     4    42    1
    19     5     6    1
    20     5    43    1
    21     5    44    1
    22     6     7    1
    23     6    45    1
    24     6    46    1
    25     7     8    1
    26     7    47    1
    27     7    48    1
    28     8     9    1
    29     8    49    1
    30     8    50    1
    31     9    10    1
    32     9    51    1
    33     9    52    1
    34    10    11    1
    35    10    12    1
    36    11    53    1
    37    11    54    1
    38    11    55    1
    39    12    13    2
    40    12    14    1
    41    14    15    1
    42    14    56    1
    43    14    57    1
    44    15    16    1
    45    16    17    1
    46    16    58    1
    47    16    59    1
    48    17    18    2
    49    17    19    1
    50    19    20    1
    51    19    28    1
    52    20    21    1
    53    20    60    1
    54    20    61    1
    55    21    22    1
    56    21    62    1
    57    21    63    1
    58    22    23    1
    59    22    64    1
    60    22    65    1
    61    23    24    1
    62    23    66    1
    63    23    67    1
    64    24    25    1
    65    24    68    1
    66    24    69    1
    67    25    26    1
    68    25    70    1
    69    25    71    1
    70    26    27    1
    71    26    72    1
    72    26    73    1
    73    27    74    1
    74    27    75    1
    75    27    76    1
    76    28    29    1
    77    28    77    1
    78    28    78    1
    79    29    30    1
    80    29    79    1
    81    29    80    1
    82    30    31    1
    83    30    81    1
    84    30    82    1
    85    31    32    1
    86    31    83    1
    87    31    84    1
    88    32    33    1
    89    32    85    1
    90    32    86    1
    91    33    34    1
    92    33    87    1
    93    33    88    1
    94    34    35    1
    95    34    89    1
    96    34    90    1
    97    35    91    1
    98    35    92    1
    99    35    93    1
   100    94    95    1
   101    94   128    1
   102    94   129    1
   103    94   130    1
   104    95    96    1
   105    95   131    1
   106    95   132    1
   107    96    97    1
   108    96   133    1
   109    96   134    1
   110    97    98    1
   111    97   135    1
   112    97   136    1
   113    98    99    1
   114    98   137    1
   115    98   138    1
   116    99   100    1
   117    99   139    1
   118    99   140    1
   119   100   101    1
   120   100   141    1
   121   100   142    1
   122   101   102    1
   123   101   143    1
   124   101   144    1
   125   102   103    1
   126   102   104    1
   127   103   145    1
   128   103   146    1
   129   103   147    1
   130   104   105    2
   131   104   106    1
   132   106   107    1
   133   106   148    1
   134   106   149    1
   135   107   108    1
   136   108   109    1
   137   108   150    1
   138   108   151    1
   139   109   110    2
   140   109   111    1
   141   111   112    1
   142   111   120    1
   143   112   113    1
   144   112   152    1
   145   112   153    1
   146   113   114    1
   147   113   154    1
   148   113   155    1
   149   114   115    1
   150   114   156    1
   151   114   157    1
   152   115   116    1
   153   115   158    1
   154   115   159    1
   155   116   117    1
   156   116   160    1
   157   116   161    1
   158   117   118    1
   159   117   162    1
   160   117   163    1
   161   118   119    1
   162   118   164    1
   163   118   165    1
   164   119   166    1
   165   119   167    1
   166   119   168    1
   167   120   121    1
   168   120   169    1
   169   120   170    1
   170   121   122    1
   171   121   171    1
   172   121   172    1
   173   122   123    1
   174   122   173    1
   175   122   174    1
   176   123   124    1
   177   123   175    1
   178   123   176    1
   179   124   125    1
   180   124   177    1
   181   124   178    1
   182   125   126    1
   183   125   179    1
   184   125   180    1
   185   126   127    1
   186   126   181    1
   187   126   182    1
   188   127   183    1
   189   127   184    1
   190   127   185    1
   191   186   187    1
   192   186   188    1
   193   189   190    1
   194   189   191    1
@<TRIPOS>SUBSTRUCTURE
     1 RES1      191 GROUP             0 ****  ****    0  
