@<TRIPOS>MOLECULE
square_prismatic_0_nunpairedes_0_charge_3 Charge: 3 Unpaired_Electrons: 4 XTB_Unpaired_Electrons: 0 XTB_Charge: 3
   149   164     1     0     0
SMALL
NoCharges
****
Generated from Architector

@<TRIPOS>ATOM
     1 Ho1      -0.0108    0.0025   -0.0132   Ho        1 RES1   0.0000
     2 C1       -0.6889   -9.5105   -1.1521   C.3       1 RES1   0.0000
     3 C2       -1.8384   -8.6514   -1.6876   C.3       1 RES1   0.0000
     4 C3       -1.3711   -7.2690   -2.0081   C.ar      1 RES1   0.0000
     5 C4       -0.6758   -6.9891   -3.1852   C.ar      1 RES1   0.0000
     6 C5       -0.1894   -5.7214   -3.4421   C.ar      1 RES1   0.0000
     7 C6       -0.3831   -4.7078   -2.5033   C.ar      1 RES1   0.0000
     8 N1        0.1995   -3.4272   -2.6538   N.am      1 RES1   0.0000
     9 C7        1.5518   -3.3391   -3.2078   C.3       1 RES1   0.0000
    10 C8        2.6158   -3.9805   -2.3315   C.3       1 RES1   0.0000
    11 C9       -0.2386   -2.3423   -2.0055   C.2       1 RES1   0.0000
    12 O1        0.5595   -1.4274   -1.6836   O.2       1 RES1   0.0000
    13 C10      -1.6891   -2.0547   -1.7151   C.ar      1 RES1   0.0000
    14 C11      -2.8422   -2.5780   -2.3191   C.ar      1 RES1   0.0000
    15 C12      -4.0658   -2.0338   -1.9976   C.ar      1 RES1   0.0000
    16 C13      -4.1635   -0.9641   -1.0796   C.ar      1 RES1   0.0000
    17 C14      -5.3785   -0.3479   -0.6623   C.ar      1 RES1   0.0000
    18 C15      -5.3865    0.6633    0.2504   C.ar      1 RES1   0.0000
    19 C16      -4.1840    1.1580    0.8391   C.ar      1 RES1   0.0000
    20 C17      -4.0940    2.1718    1.8118   C.ar      1 RES1   0.0000
    21 C18      -2.8778    2.5588    2.3418   C.ar      1 RES1   0.0000
    22 C19      -1.6891    1.9442    1.8930   C.ar      1 RES1   0.0000
    23 C20      -0.1875    2.1223    2.2319   C.2       1 RES1   0.0000
    24 O2        0.5688    1.4670    1.4739   O.2       1 RES1   0.0000
    25 N2        0.3479    2.8628    3.2114   N.am      1 RES1   0.0000
    26 C21      -0.4573    3.8246    3.9566   C.3       1 RES1   0.0000
    27 C22      -0.8303    5.0340    3.1052   C.3       1 RES1   0.0000
    28 C23       1.7664    2.8268    3.5087   C.ar      1 RES1   0.0000
    29 C24       2.5356    1.6630    3.3802   C.ar      1 RES1   0.0000
    30 C25       3.8811    1.6528    3.7171   C.ar      1 RES1   0.0000
    31 C26       4.5321    2.7826    4.2148   C.ar      1 RES1   0.0000
    32 C27       5.9998    2.7619    4.5597   C.3       1 RES1   0.0000
    33 C28       6.8924    2.6053    3.3234   C.3       1 RES1   0.0000
    34 C29       3.7566    3.9324    4.3569   C.ar      1 RES1   0.0000
    35 C30       2.4142    3.9595    4.0104   C.ar      1 RES1   0.0000
    36 N3       -1.7924    1.0005    0.9557   N.ar      1 RES1   0.0000
    37 C31      -2.9553    0.5878    0.4430   C.ar      1 RES1   0.0000
    38 C32      -2.9547   -0.4950   -0.5243   C.ar      1 RES1   0.0000
    39 N4       -1.7880   -1.0513   -0.8491   N.ar      1 RES1   0.0000
    40 C33      -1.0621   -4.9809   -1.3161   C.ar      1 RES1   0.0000
    41 C34      -1.5688   -6.2397   -1.0853   C.ar      1 RES1   0.0000
    42 H1       -1.0531  -10.5091   -0.9363   H         1 RES1   0.0000
    43 H2       -0.2805   -9.0861   -0.2394   H         1 RES1   0.0000
    44 H3        0.1108   -9.5918   -1.8822   H         1 RES1   0.0000
    45 H4       -2.6266   -8.5860   -0.9365   H         1 RES1   0.0000
    46 H5       -2.2424   -9.1367   -2.5763   H         1 RES1   0.0000
    47 H6       -0.5159   -7.7765   -3.9078   H         1 RES1   0.0000
    48 H7        0.3344   -5.5203   -4.3653   H         1 RES1   0.0000
    49 H8        1.7459   -2.2726   -3.3286   H         1 RES1   0.0000
    50 H9        1.5394   -3.8178   -4.1850   H         1 RES1   0.0000
    51 H10       2.6769   -3.4846   -1.3670   H         1 RES1   0.0000
    52 H11       3.5803   -3.8978   -2.8202   H         1 RES1   0.0000
    53 H12       2.4058   -5.0341   -2.1806   H         1 RES1   0.0000
    54 H13      -2.7574   -3.3876   -3.0238   H         1 RES1   0.0000
    55 H14      -4.9677   -2.4317   -2.4380   H         1 RES1   0.0000
    56 H15      -6.3032   -0.7112   -1.0818   H         1 RES1   0.0000
    57 H16      -6.3233    1.1073    0.5479   H         1 RES1   0.0000
    58 H17      -5.0039    2.6449    2.1511   H         1 RES1   0.0000
    59 H18      -2.8822    3.3356    3.0845   H         1 RES1   0.0000
    60 H19       0.1226    4.1322    4.8245   H         1 RES1   0.0000
    61 H20      -1.3470    3.3079    4.3184   H         1 RES1   0.0000
    62 H21       0.0493    5.5971    2.8061   H         1 RES1   0.0000
    63 H22      -1.4798    5.6835    3.6824   H         1 RES1   0.0000
    64 H23      -1.3546    4.7290    2.2044   H         1 RES1   0.0000
    65 H24       2.0744    0.7536    3.0197   H         1 RES1   0.0000
    66 H25       4.4529    0.7401    3.6093   H         1 RES1   0.0000
    67 H26       6.2188    1.9349    5.2421   H         1 RES1   0.0000
    68 H27       6.2630    3.6878    5.0736   H         1 RES1   0.0000
    69 H28       6.6683    1.6845    2.7914   H         1 RES1   0.0000
    70 H29       7.9381    2.5769    3.6161   H         1 RES1   0.0000
    71 H30       6.7554    3.4392    2.6421   H         1 RES1   0.0000
    72 H31       4.1981    4.8361    4.7556   H         1 RES1   0.0000
    73 H32       1.9074    4.9037    4.1394   H         1 RES1   0.0000
    74 H33      -1.1557   -4.1964   -0.5722   H         1 RES1   0.0000
    75 H34      -2.1025   -6.4182   -0.1623   H         1 RES1   0.0000
    76 C35      -6.7762   -2.5924    4.8512   C.3       1 RES1   0.0000
    77 C36      -6.1487   -3.6105    3.8918   C.3       1 RES1   0.0000
    78 C37      -4.6678   -3.4266    3.6746   C.ar      1 RES1   0.0000
    79 C38      -4.1259   -3.1435    2.4210   C.ar      1 RES1   0.0000
    80 C39      -2.7592   -3.0050    2.2150   C.ar      1 RES1   0.0000
    81 C40      -1.8481   -3.1264    3.2708   C.ar      1 RES1   0.0000
    82 N5       -0.4057   -3.0461    3.0833   N.am      1 RES1   0.0000
    83 C41       0.4056   -3.8484    3.9935   C.3       1 RES1   0.0000
    84 C42       1.1023   -2.9928    5.0453   C.3       1 RES1   0.0000
    85 C43       0.1475   -2.2118    2.1886   C.2       1 RES1   0.0000
    86 O3       -0.5957   -1.4345    1.5471   O.2       1 RES1   0.0000
    87 C44       1.6416   -2.0690    1.7994   C.ar      1 RES1   0.0000
    88 C45       2.8189   -2.7359    2.1962   C.ar      1 RES1   0.0000
    89 C46       4.0242   -2.4043    1.6080   C.ar      1 RES1   0.0000
    90 C47       4.1099   -1.4069    0.6204   C.ar      1 RES1   0.0000
    91 C48       5.3018   -1.0314   -0.0678   C.ar      1 RES1   0.0000
    92 C49       5.2944   -0.0833   -1.0434   C.ar      1 RES1   0.0000
    93 C50       4.0935    0.5868   -1.4147   C.ar      1 RES1   0.0000
    94 C51       3.9968    1.5417   -2.4481   C.ar      1 RES1   0.0000
    95 C52       2.7862    2.1110   -2.7748   C.ar      1 RES1   0.0000
    96 C53       1.6506    1.7687   -2.0194   C.ar      1 RES1   0.0000
    97 C54       0.1906    2.0851   -2.2587   C.2       1 RES1   0.0000
    98 O4       -0.6244    1.3430   -1.6527   O.2       1 RES1   0.0000
    99 N6       -0.2715    2.9935   -3.1215   N.am      1 RES1   0.0000
   100 C55      -1.7052    2.9221   -3.4395   C.3       1 RES1   0.0000
   101 C56      -2.0580    1.7463   -4.3417   C.3       1 RES1   0.0000
   102 C57       0.4237    4.1617   -3.5238   C.ar      1 RES1   0.0000
   103 C58       1.2661    4.7908   -2.6068   C.ar      1 RES1   0.0000
   104 C59       1.9264    5.9487   -2.9643   C.ar      1 RES1   0.0000
   105 C60       1.7439    6.5183   -4.2244   C.ar      1 RES1   0.0000
   106 C61       2.4392    7.7883   -4.5955   C.3       1 RES1   0.0000
   107 C62       1.4565    8.9390   -4.8243   C.3       1 RES1   0.0000
   108 C63       0.8789    5.8899   -5.1220   C.ar      1 RES1   0.0000
   109 C64       0.2170    4.7279   -4.7819   C.ar      1 RES1   0.0000
   110 N7        1.7620    0.9096   -1.0100   N.ar      1 RES1   0.0000
   111 C65       2.9047    0.2861   -0.7152   C.ar      1 RES1   0.0000
   112 C66       2.9000   -0.7488    0.3041   C.ar      1 RES1   0.0000
   113 N8        1.7463   -1.0988    0.8869   N.ar      1 RES1   0.0000
   114 C67      -2.3897   -3.4062    4.5326   C.ar      1 RES1   0.0000
   115 C68      -3.7540   -3.5570    4.7211   C.ar      1 RES1   0.0000
   116 H35      -7.8403   -2.7924    4.9504   H         1 RES1   0.0000
   117 H36      -6.6548   -1.5752    4.4872   H         1 RES1   0.0000
   118 H37      -6.3340   -2.6588    5.8397   H         1 RES1   0.0000
   119 H38      -6.6793   -3.5642    2.9378   H         1 RES1   0.0000
   120 H39      -6.3222   -4.6067    4.3093   H         1 RES1   0.0000
   121 H40      -4.7971   -3.0485    1.5775   H         1 RES1   0.0000
   122 H41      -2.4030   -2.8082    1.2137   H         1 RES1   0.0000
   123 H42       1.1291   -4.4120    3.4022   H         1 RES1   0.0000
   124 H43      -0.2623   -4.5669    4.4658   H         1 RES1   0.0000
   125 H44       1.7280   -2.2377    4.5788   H         1 RES1   0.0000
   126 H45       1.7274   -3.6289    5.6628   H         1 RES1   0.0000
   127 H46       0.3824   -2.4885    5.6836   H         1 RES1   0.0000
   128 H47       2.8252   -3.5022    2.9480   H         1 RES1   0.0000
   129 H48       4.9315   -2.9103    1.9022   H         1 RES1   0.0000
   130 H49       6.2252   -1.5268    0.1897   H         1 RES1   0.0000
   131 H50       6.2074    0.1800   -1.5559   H         1 RES1   0.0000
   132 H51       4.8931    1.8232   -2.9803   H         1 RES1   0.0000
   133 H52       2.7173    2.8127   -3.5880   H         1 RES1   0.0000
   134 H53      -1.9623    3.8651   -3.9170   H         1 RES1   0.0000
   135 H54      -2.2612    2.8348   -2.4991   H         1 RES1   0.0000
   136 H55      -1.5197    1.7908   -5.2833   H         1 RES1   0.0000
   137 H56      -3.1209    1.7806   -4.5579   H         1 RES1   0.0000
   138 H57      -1.8372    0.8019   -3.8514   H         1 RES1   0.0000
   139 H58       1.3686    4.3583   -1.6185   H         1 RES1   0.0000
   140 H59       2.5880    6.4267   -2.2576   H         1 RES1   0.0000
   141 H60       3.0050    7.6280   -5.5162   H         1 RES1   0.0000
   142 H61       3.1430    8.0656   -3.8094   H         1 RES1   0.0000
   143 H62       0.7808    8.7170   -5.6439   H         1 RES1   0.0000
   144 H63       2.0084    9.8395   -5.0735   H         1 RES1   0.0000
   145 H64       0.8641    9.1307   -3.9336   H         1 RES1   0.0000
   146 H65       0.7246    6.2982   -6.1093   H         1 RES1   0.0000
   147 H66      -0.4354    4.2603   -5.5063   H         1 RES1   0.0000
   148 H67      -1.7758   -3.5073    5.4153   H         1 RES1   0.0000
   149 H68      -4.1080   -3.7965    5.7137   H         1 RES1   0.0000
@<TRIPOS>BOND
     1     1    12    1
     2     1    24    1
     3     1    36    1
     4     1    39    1
     5     1    86    1
     6     1    98    1
     7     1   110    1
     8     1   113    1
     9     2     3    1
    10     2    42    1
    11     2    43    1
    12     2    44    1
    13     3     4    1
    14     3    45    1
    15     3    46    1
    16     4     5    1
    17     4    41    2
    18     5     6    2
    19     5    47    1
    20     6     7    1
    21     6    48    1
    22     7     8    1
    23     7    40    2
    24     8     9    1
    25     8    11    1
    26     9    10    1
    27     9    49    1
    28     9    50    1
    29    10    51    1
    30    10    52    1
    31    10    53    1
    32    11    12    2
    33    11    13    1
    34    13    14    1
    35    13    39    2
    36    14    15    2
    37    14    54    1
    38    15    16    1
    39    15    55    1
    40    16    17    1
    41    16    38    2
    42    17    18    2
    43    17    56    1
    44    18    19    1
    45    18    57    1
    46    19    20    1
    47    19    37    2
    48    20    21    2
    49    20    58    1
    50    21    22    1
    51    21    59    1
    52    22    23    1
    53    22    36    2
    54    23    24    2
    55    23    25    1
    56    25    26    1
    57    25    28    1
    58    26    27    1
    59    26    60    1
    60    26    61    1
    61    27    62    1
    62    27    63    1
    63    27    64    1
    64    28    29    1
    65    28    35    2
    66    29    30    2
    67    29    65    1
    68    30    31    1
    69    30    66    1
    70    31    32    1
    71    31    34    2
    72    32    33    1
    73    32    67    1
    74    32    68    1
    75    33    69    1
    76    33    70    1
    77    33    71    1
    78    34    35    1
    79    34    72    1
    80    35    73    1
    81    36    37    1
    82    37    38    1
    83    38    39    1
    84    40    41    1
    85    40    74    1
    86    41    75    1
    87    76    77    1
    88    76   116    1
    89    76   117    1
    90    76   118    1
    91    77    78    1
    92    77   119    1
    93    77   120    1
    94    78    79    1
    95    78   115    2
    96    79    80    2
    97    79   121    1
    98    80    81    1
    99    80   122    1
   100    81    82    1
   101    81   114    2
   102    82    83    1
   103    82    85    1
   104    83    84    1
   105    83   123    1
   106    83   124    1
   107    84   125    1
   108    84   126    1
   109    84   127    1
   110    85    86    2
   111    85    87    1
   112    87    88    1
   113    87   113    2
   114    88    89    2
   115    88   128    1
   116    89    90    1
   117    89   129    1
   118    90    91    1
   119    90   112    2
   120    91    92    2
   121    91   130    1
   122    92    93    1
   123    92   131    1
   124    93    94    1
   125    93   111    2
   126    94    95    2
   127    94   132    1
   128    95    96    1
   129    95   133    1
   130    96    97    1
   131    96   110    2
   132    97    98    2
   133    97    99    1
   134    99   100    1
   135    99   102    1
   136   100   101    1
   137   100   134    1
   138   100   135    1
   139   101   136    1
   140   101   137    1
   141   101   138    1
   142   102   103    1
   143   102   109    2
   144   103   104    2
   145   103   139    1
   146   104   105    1
   147   104   140    1
   148   105   106    1
   149   105   108    2
   150   106   107    1
   151   106   141    1
   152   106   142    1
   153   107   143    1
   154   107   144    1
   155   107   145    1
   156   108   109    1
   157   108   146    1
   158   109   147    1
   159   110   111    1
   160   111   112    1
   161   112   113    1
   162   114   115    1
   163   114   148    1
   164   115   149    1
@<TRIPOS>SUBSTRUCTURE
     1 RES1      149 GROUP             0 ****  ****    0  
