@<TRIPOS>MOLECULE
ICIGOT_geomtry_0_nunpairedes_0_charge_3 Charge: 3 Unpaired_Electrons: 4 XTB_Unpaired_Electrons: 0 XTB_Charge: 3
   145   158     1     0     0
SMALL
NoCharges
****
Generated from Architector

@<TRIPOS>ATOM
     1 Ho1      -0.0628   -0.1592    0.0455   Ho        1 RES1   0.0000
     2 C1       -4.9013    1.8081    3.3244   C.3       1 RES1   0.0000
     3 C2       -4.4846    2.4065    1.9805   C.3       1 RES1   0.0000
     4 N1       -3.8589    1.4250    1.0935   N.am      1 RES1   0.0000
     5 C3       -2.5597    1.1214    1.1680   C.2       1 RES1   0.0000
     6 O1       -2.0143    0.4641    0.2465   O.2       1 RES1   0.0000
     7 C4       -1.6028    1.4705    2.3091   C.ar      1 RES1   0.0000
     8 C5       -1.7713    2.2899    3.4226   C.ar      1 RES1   0.0000
     9 C6       -0.7331    2.4156    4.3331   C.ar      1 RES1   0.0000
    10 C7        0.4889    1.8184    4.1010   C.ar      1 RES1   0.0000
    11 C8        0.6274    1.0645    2.9413   C.ar      1 RES1   0.0000
    12 C9        1.9467    0.5174    2.5208   C.ar      1 RES1   0.0000
    13 C10       3.1564    0.7371    3.1865   C.ar      1 RES1   0.0000
    14 C11       4.2924    0.0885    2.7282   C.ar      1 RES1   0.0000
    15 C12       4.2572   -0.6892    1.5794   C.ar      1 RES1   0.0000
    16 C13       3.0459   -0.7663    0.9048   C.ar      1 RES1   0.0000
    17 C14       2.6785   -1.5780   -0.2992   C.2       1 RES1   0.0000
    18 O2        1.4399   -1.6645   -0.5061   O.2       1 RES1   0.0000
    19 N2        3.5087   -2.2782   -1.0590   N.am      1 RES1   0.0000
    20 C15       2.9283   -3.3193   -1.9114   C.3       1 RES1   0.0000
    21 C16       3.0851   -3.0473   -3.3985   C.3       1 RES1   0.0000
    22 C17       4.8860   -1.9818   -1.1990   C.ar      1 RES1   0.0000
    23 C18       5.8187   -3.0091   -1.2252   C.ar      1 RES1   0.0000
    24 C19       7.1643   -2.7139   -1.3878   C.ar      1 RES1   0.0000
    25 C20       8.1680   -3.8156   -1.4281   C.3       1 RES1   0.0000
    26 C21       7.5453   -1.3761   -1.5014   C.ar      1 RES1   0.0000
    27 C22       6.6192   -0.3400   -1.4897   C.ar      1 RES1   0.0000
    28 C23       7.0244    1.0959   -1.6101   C.3       1 RES1   0.0000
    29 C24       5.2698   -0.6545   -1.3558   C.ar      1 RES1   0.0000
    30 N3        1.9339   -0.2052    1.4025   N.ar      1 RES1   0.0000
    31 N4       -0.4169    0.8573    2.1299   N.ar      1 RES1   0.0000
    32 C25      -4.7386    0.7333    0.1865   C.ar      1 RES1   0.0000
    33 C26      -6.0931    0.6790    0.5270   C.ar      1 RES1   0.0000
    34 C27      -7.0143   -0.0236   -0.2313   C.ar      1 RES1   0.0000
    35 C28      -8.4472   -0.0846    0.1860   C.3       1 RES1   0.0000
    36 C29      -6.5814   -0.6837   -1.3769   C.ar      1 RES1   0.0000
    37 C30      -5.2506   -0.6331   -1.7557   C.ar      1 RES1   0.0000
    38 C31      -4.8173   -1.3437   -3.0081   C.3       1 RES1   0.0000
    39 C32      -4.3333    0.0769   -0.9795   C.ar      1 RES1   0.0000
    40 H1       -5.2270    2.5948    3.9963   H         1 RES1   0.0000
    41 H2       -4.0889    1.2558    3.7891   H         1 RES1   0.0000
    42 H3       -5.7285    1.1168    3.2134   H         1 RES1   0.0000
    43 H4       -3.7794    3.2307    2.1005   H         1 RES1   0.0000
    44 H5       -5.3428    2.8115    1.4384   H         1 RES1   0.0000
    45 H6       -2.6638    2.8486    3.6135   H         1 RES1   0.0000
    46 H7       -0.8946    3.0120    5.2127   H         1 RES1   0.0000
    47 H8        1.3089    1.9604    4.7794   H         1 RES1   0.0000
    48 H9        3.2450    1.3756    4.0475   H         1 RES1   0.0000
    49 H10       5.2246    0.1941    3.2557   H         1 RES1   0.0000
    50 H11       5.1383   -1.1957    1.2226   H         1 RES1   0.0000
    51 H12       1.8687   -3.3900   -1.6582   H         1 RES1   0.0000
    52 H13       3.4144   -4.2611   -1.6499   H         1 RES1   0.0000
    53 H14       2.5620   -2.1373   -3.6874   H         1 RES1   0.0000
    54 H15       2.6642   -3.8865   -3.9459   H         1 RES1   0.0000
    55 H16       4.1343   -2.9571   -3.6642   H         1 RES1   0.0000
    56 H17       5.5019   -4.0357   -1.1130   H         1 RES1   0.0000
    57 H18       7.6939   -4.7908   -1.3362   H         1 RES1   0.0000
    58 H19       8.8813   -3.6931   -0.6160   H         1 RES1   0.0000
    59 H20       8.7214   -3.7790   -2.3643   H         1 RES1   0.0000
    60 H21       8.5936   -1.1413   -1.6056   H         1 RES1   0.0000
    61 H22       8.0996    1.2040   -1.7125   H         1 RES1   0.0000
    62 H23       6.7054    1.6412   -0.7214   H         1 RES1   0.0000
    63 H24       6.5466    1.5478   -2.4790   H         1 RES1   0.0000
    64 H25       4.5141    0.1239   -1.3871   H         1 RES1   0.0000
    65 H26      -6.4879    1.1670    1.3993   H         1 RES1   0.0000
    66 H27      -8.6267    0.4933    1.0911   H         1 RES1   0.0000
    67 H28      -8.7285   -1.1222    0.3687   H         1 RES1   0.0000
    68 H29      -9.0866    0.2988   -0.6093   H         1 RES1   0.0000
    69 H30      -7.2854   -1.2386   -1.9811   H         1 RES1   0.0000
    70 H31      -5.6703   -1.8480   -3.4589   H         1 RES1   0.0000
    71 H32      -4.0518   -2.0901   -2.7880   H         1 RES1   0.0000
    72 H33      -4.4168   -0.6377   -3.7367   H         1 RES1   0.0000
    73 H34      -3.3128    0.1031   -1.3312   H         1 RES1   0.0000
    74 C33       1.1301    6.4156   -1.6802   C.3       1 RES1   0.0000
    75 C34       0.1030    5.2953   -1.5618   C.3       1 RES1   0.0000
    76 N5        0.3807    4.3730   -0.4537   N.am      1 RES1   0.0000
    77 C35       0.6166    3.0745   -0.6411   C.2       1 RES1   0.0000
    78 O3        0.7919    2.2445    0.2808   O.2       1 RES1   0.0000
    79 C36       0.7054    2.4505   -2.0146   C.ar      1 RES1   0.0000
    80 C37       1.4611    2.9534   -3.0688   C.ar      1 RES1   0.0000
    81 C38       1.5632    2.1950   -4.2240   C.ar      1 RES1   0.0000
    82 C39       0.9282    0.9666   -4.2921   C.ar      1 RES1   0.0000
    83 C40       0.2459    0.4896   -3.1737   C.ar      1 RES1   0.0000
    84 C41      -0.3306   -0.8809   -3.1318   C.ar      1 RES1   0.0000
    85 C42      -0.5344   -1.6578   -4.2697   C.ar      1 RES1   0.0000
    86 C43      -1.0987   -2.9135   -4.1157   C.ar      1 RES1   0.0000
    87 C44      -1.3086   -3.4297   -2.8452   C.ar      1 RES1   0.0000
    88 C45      -0.9549   -2.6504   -1.7446   C.ar      1 RES1   0.0000
    89 C46      -0.9432   -3.0783   -0.2850   C.2       1 RES1   0.0000
    90 O4       -1.0838   -2.1570    0.5525   O.2       1 RES1   0.0000
    91 N6       -0.7406   -4.3606    0.0675   N.am      1 RES1   0.0000
    92 C47      -0.1185   -5.3489   -0.8226   C.3       1 RES1   0.0000
    93 C48      -0.9799   -6.5769   -1.0970   C.3       1 RES1   0.0000
    94 C49      -0.9778   -4.8140    1.4145   C.ar      1 RES1   0.0000
    95 C50      -0.3559   -5.9662    1.9064   C.ar      1 RES1   0.0000
    96 C51      -0.6702   -6.4772    3.1623   C.ar      1 RES1   0.0000
    97 C52      -0.0518   -7.7488    3.6517   C.3       1 RES1   0.0000
    98 C53      -1.5832   -5.7989    3.9579   C.ar      1 RES1   0.0000
    99 C54      -2.1958   -4.6394    3.5060   C.ar      1 RES1   0.0000
   100 C55      -3.1701   -3.9170    4.3845   C.3       1 RES1   0.0000
   101 C56      -1.9053   -4.1641    2.2303   C.ar      1 RES1   0.0000
   102 N7       -0.5851   -1.3739   -1.9175   N.ar      1 RES1   0.0000
   103 N8        0.1557    1.2254   -2.0547   N.ar      1 RES1   0.0000
   104 C57       0.2912    4.9426    0.8693   C.ar      1 RES1   0.0000
   105 C58      -0.6025    5.9871    1.0973   C.ar      1 RES1   0.0000
   106 C59      -0.7099    6.5935    2.3457   C.ar      1 RES1   0.0000
   107 C60      -1.6430    7.7413    2.5619   C.3       1 RES1   0.0000
   108 C61       0.0875    6.1307    3.3780   C.ar      1 RES1   0.0000
   109 C62       0.9994    5.1013    3.1775   C.ar      1 RES1   0.0000
   110 C63       1.8622    4.7282    4.3454   C.3       1 RES1   0.0000
   111 C64       1.0987    4.5038    1.9233   C.ar      1 RES1   0.0000
   112 H35       0.8483    7.0395   -2.5229   H         1 RES1   0.0000
   113 H36       2.1357    6.0394   -1.8461   H         1 RES1   0.0000
   114 H37       1.1495    7.0360   -0.7898   H         1 RES1   0.0000
   115 H38       0.0498    4.7323   -2.4910   H         1 RES1   0.0000
   116 H39      -0.8833    5.7322   -1.3959   H         1 RES1   0.0000
   117 H40       2.0132    3.8735   -2.9686   H         1 RES1   0.0000
   118 H41       2.1556    2.5573   -5.0475   H         1 RES1   0.0000
   119 H42       1.0295    0.3620   -5.1745   H         1 RES1   0.0000
   120 H43      -0.3044   -1.2828   -5.2494   H         1 RES1   0.0000
   121 H44      -1.3571   -3.4927   -4.9855   H         1 RES1   0.0000
   122 H45      -1.7528   -4.4007   -2.7121   H         1 RES1   0.0000
   123 H46       0.8115   -5.6614   -0.3360   H         1 RES1   0.0000
   124 H47       0.1551   -4.8642   -1.7592   H         1 RES1   0.0000
   125 H48      -1.2367   -7.1016   -0.1826   H         1 RES1   0.0000
   126 H49      -0.4168   -7.2566   -1.7296   H         1 RES1   0.0000
   127 H50      -1.9075   -6.3218   -1.5991   H         1 RES1   0.0000
   128 H51       0.3814   -6.5118    1.3396   H         1 RES1   0.0000
   129 H52      -0.2983   -8.5792    2.9911   H         1 RES1   0.0000
   130 H53      -0.4208   -7.9852    4.6459   H         1 RES1   0.0000
   131 H54       1.0334   -7.6721    3.6938   H         1 RES1   0.0000
   132 H55      -1.8266   -6.1855    4.9373   H         1 RES1   0.0000
   133 H56      -3.2979   -4.4359    5.3310   H         1 RES1   0.0000
   134 H57      -4.1415   -3.8509    3.8983   H         1 RES1   0.0000
   135 H58      -2.8159   -2.9074    4.5908   H         1 RES1   0.0000
   136 H59      -2.4153   -3.2782    1.8832   H         1 RES1   0.0000
   137 H60      -1.2358    6.3734    0.3155   H         1 RES1   0.0000
   138 H61      -1.3602    8.5854    1.9335   H         1 RES1   0.0000
   139 H62      -1.6110    8.0628    3.5997   H         1 RES1   0.0000
   140 H63      -2.6672    7.4740    2.3058   H         1 RES1   0.0000
   141 H64       0.0236    6.5944    4.3525   H         1 RES1   0.0000
   142 H65       2.4194    5.6054    4.6716   H         1 RES1   0.0000
   143 H66       2.5664    3.9388    4.1014   H         1 RES1   0.0000
   144 H67       1.2453    4.4334    5.1942   H         1 RES1   0.0000
   145 H68       1.8178    3.7130    1.7656   H         1 RES1   0.0000
@<TRIPOS>BOND
     1     1     6    1
     2     1    18    1
     3     1    30    1
     4     1    31    1
     5     1    78    1
     6     1    90    1
     7     1   102    1
     8     1   103    1
     9     2     3    1
    10     2    40    1
    11     2    41    1
    12     2    42    1
    13     3     4    1
    14     3    43    1
    15     3    44    1
    16     4     5    1
    17     4    32    1
    18     5     6    2
    19     5     7    1
    20     7     8    1
    21     7    31    2
    22     8     9    2
    23     8    45    1
    24     9    10    1
    25     9    46    1
    26    10    11    2
    27    10    47    1
    28    11    12    1
    29    11    31    1
    30    12    13    1
    31    12    30    2
    32    13    14    2
    33    13    48    1
    34    14    15    1
    35    14    49    1
    36    15    16    2
    37    15    50    1
    38    16    17    1
    39    16    30    1
    40    17    18    2
    41    17    19    1
    42    19    20    1
    43    19    22    1
    44    20    21    1
    45    20    51    1
    46    20    52    1
    47    21    53    1
    48    21    54    1
    49    21    55    1
    50    22    23    1
    51    22    29    2
    52    23    24    2
    53    23    56    1
    54    24    25    1
    55    24    26    1
    56    25    57    1
    57    25    58    1
    58    25    59    1
    59    26    27    2
    60    26    60    1
    61    27    28    1
    62    27    29    1
    63    28    61    1
    64    28    62    1
    65    28    63    1
    66    29    64    1
    67    32    33    1
    68    32    39    2
    69    33    34    2
    70    33    65    1
    71    34    35    1
    72    34    36    1
    73    35    66    1
    74    35    67    1
    75    35    68    1
    76    36    37    2
    77    36    69    1
    78    37    38    1
    79    37    39    1
    80    38    70    1
    81    38    71    1
    82    38    72    1
    83    39    73    1
    84    74    75    1
    85    74   112    1
    86    74   113    1
    87    74   114    1
    88    75    76    1
    89    75   115    1
    90    75   116    1
    91    76    77    1
    92    76   104    1
    93    77    78    2
    94    77    79    1
    95    79    80    1
    96    79   103    2
    97    80    81    2
    98    80   117    1
    99    81    82    1
   100    81   118    1
   101    82    83    2
   102    82   119    1
   103    83    84    1
   104    83   103    1
   105    84    85    1
   106    84   102    2
   107    85    86    2
   108    85   120    1
   109    86    87    1
   110    86   121    1
   111    87    88    2
   112    87   122    1
   113    88    89    1
   114    88   102    1
   115    89    90    2
   116    89    91    1
   117    91    92    1
   118    91    94    1
   119    92    93    1
   120    92   123    1
   121    92   124    1
   122    93   125    1
   123    93   126    1
   124    93   127    1
   125    94    95    1
   126    94   101    2
   127    95    96    2
   128    95   128    1
   129    96    97    1
   130    96    98    1
   131    97   129    1
   132    97   130    1
   133    97   131    1
   134    98    99    2
   135    98   132    1
   136    99   100    1
   137    99   101    1
   138   100   133    1
   139   100   134    1
   140   100   135    1
   141   101   136    1
   142   104   105    1
   143   104   111    2
   144   105   106    2
   145   105   137    1
   146   106   107    1
   147   106   108    1
   148   107   138    1
   149   107   139    1
   150   107   140    1
   151   108   109    2
   152   108   141    1
   153   109   110    1
   154   109   111    1
   155   110   142    1
   156   110   143    1
   157   110   144    1
   158   111   145    1
@<TRIPOS>SUBSTRUCTURE
     1 RES1      145 GROUP             0 ****  ****    0  
