@<TRIPOS>MOLECULE
ICIGOT_geomtry_0_nunpairedes_0_charge_2 Charge: 2 Unpaired_Electrons: 4 XTB_Unpaired_Electrons: 0 XTB_Charge: 2
   233   239     1     0     0
SMALL
NoCharges
****
Generated from Architector

@<TRIPOS>ATOM
     1 Ho1       0.0287   -0.1443    0.2360   Ho        1 RES1   0.0000
     2 C1        3.0538    4.3020    7.5502   C.3       1 RES1   0.0000
     3 C2        1.6129    3.8168    7.6416   C.3       1 RES1   0.0000
     4 C3        0.9218    3.8409    6.2814   C.3       1 RES1   0.0000
     5 C4       -0.5454    3.4132    6.3544   C.3       1 RES1   0.0000
     6 C5       -1.3200    3.7771    5.0876   C.3       1 RES1   0.0000
     7 C6       -0.8064    3.0309    3.8590   C.3       1 RES1   0.0000
     8 C7       -1.4421    3.5090    2.5542   C.3       1 RES1   0.0000
     9 C8       -0.9259    4.8675    2.0810   C.3       1 RES1   0.0000
    10 C9        0.5037    4.7886    1.5349   C.3       1 RES1   0.0000
    11 C10       1.6085    5.1024    2.5462   C.3       1 RES1   0.0000
    12 C11       2.9797    4.6666    2.0292   C.3       1 RES1   0.0000
    13 C12       3.1952    3.1425    2.0499   C.3       1 RES1   0.0000
    14 N1        3.4162    2.5512    0.7287   N.am      1 RES1   0.0000
    15 C13       4.4046    3.1595   -0.1528   C.3       1 RES1   0.0000
    16 C14       5.6759    2.3466   -0.4397   C.3       1 RES1   0.0000
    17 C15       6.2923    2.8236   -1.7612   C.3       1 RES1   0.0000
    18 C16       7.1955    1.8084   -2.4628   C.3       1 RES1   0.0000
    19 C17       6.4932    0.5621   -3.0152   C.3       1 RES1   0.0000
    20 C18       5.3027    0.8058   -3.9487   C.3       1 RES1   0.0000
    21 C19       5.6695    1.5061   -5.2576   C.3       1 RES1   0.0000
    22 C20       4.5461    1.4438   -6.2976   C.3       1 RES1   0.0000
    23 C21       3.3250    2.3006   -5.9589   C.3       1 RES1   0.0000
    24 C22       2.2432    2.1777   -7.0322   C.3       1 RES1   0.0000
    25 C23       0.9804    2.9856   -6.7250   C.3       1 RES1   0.0000
    26 C24       1.1780    4.4878   -6.8902   C.3       1 RES1   0.0000
    27 C25       2.6821    1.5100    0.3583   C.2       1 RES1   0.0000
    28 O1        1.7920    1.0061    1.0735   O.2       1 RES1   0.0000
    29 C26       2.9803    0.8662   -1.0000   C.3       1 RES1   0.0000
    30 O2        1.9435   -0.0397   -1.3132   O.3       1 RES1   0.0000
    31 C27       2.3349   -1.2648   -1.9324   C.3       1 RES1   0.0000
    32 C28       1.8249   -1.3565   -3.3813   C.3       1 RES1   0.0000
    33 C29       1.7713   -2.8202   -3.8425   C.3       1 RES1   0.0000
    34 C30       2.4965   -3.7456   -2.8644   C.3       1 RES1   0.0000
    35 N2        1.8940   -3.6041   -1.5536   N.am      1 RES1   0.0000
    36 C31       1.3003   -4.7533   -0.8832   C.3       1 RES1   0.0000
    37 C32       2.0430   -5.1499    0.3919   C.3       1 RES1   0.0000
    38 C33       1.5044   -6.4575    0.9882   C.3       1 RES1   0.0000
    39 C34       0.3147   -6.3175    1.9433   C.3       1 RES1   0.0000
    40 C35      -0.9831   -5.7598    1.3525   C.3       1 RES1   0.0000
    41 C36      -1.5542   -6.6154    0.2288   C.3       1 RES1   0.0000
    42 C37       1.7449   -2.3852   -1.0784   C.2       1 RES1   0.0000
    43 O3        1.1927   -2.0923    0.0055   O.2       1 RES1   0.0000
    44 H1        3.5258    4.2706    8.5273   H         1 RES1   0.0000
    45 H2        3.0921    5.3265    7.1893   H         1 RES1   0.0000
    46 H3        3.6328    3.6798    6.8711   H         1 RES1   0.0000
    47 H4        1.0638    4.4545    8.3360   H         1 RES1   0.0000
    48 H5        1.5969    2.7999    8.0336   H         1 RES1   0.0000
    49 H6        1.4706    3.1779    5.6065   H         1 RES1   0.0000
    50 H7        0.9753    4.8561    5.8788   H         1 RES1   0.0000
    51 H8       -1.0158    3.9138    7.2019   H         1 RES1   0.0000
    52 H9       -0.6072    2.3372    6.5336   H         1 RES1   0.0000
    53 H10      -1.2215    4.8517    4.9256   H         1 RES1   0.0000
    54 H11      -2.3844    3.5631    5.2301   H         1 RES1   0.0000
    55 H12      -0.9930    1.9656    3.9799   H         1 RES1   0.0000
    56 H13       0.2710    3.1400    3.7832   H         1 RES1   0.0000
    57 H14      -2.5271    3.5548    2.6880   H         1 RES1   0.0000
    58 H15      -1.2243    2.7755    1.7668   H         1 RES1   0.0000
    59 H16      -0.9786    5.5906    2.8929   H         1 RES1   0.0000
    60 H17      -1.5885    5.2270    1.2890   H         1 RES1   0.0000
    61 H18       0.6050    5.5038    0.7182   H         1 RES1   0.0000
    62 H19       0.6511    3.7826    1.1250   H         1 RES1   0.0000
    63 H20       1.4185    4.6243    3.5024   H         1 RES1   0.0000
    64 H21       1.6315    6.1794    2.7234   H         1 RES1   0.0000
    65 H22       3.7468    5.1325    2.6449   H         1 RES1   0.0000
    66 H23       3.0785    5.0582    1.0165   H         1 RES1   0.0000
    67 H24       2.3202    2.6387    2.4658   H         1 RES1   0.0000
    68 H25       4.0576    2.8885    2.6716   H         1 RES1   0.0000
    69 H26       4.7101    4.1077    0.2873   H         1 RES1   0.0000
    70 H27       3.9033    3.3842   -1.1008   H         1 RES1   0.0000
    71 H28       5.4635    1.2827   -0.4945   H         1 RES1   0.0000
    72 H29       6.3929    2.4720    0.3708   H         1 RES1   0.0000
    73 H30       6.8786    3.7212   -1.5611   H         1 RES1   0.0000
    74 H31       5.4981    3.1041   -2.4536   H         1 RES1   0.0000
    75 H32       7.9732    1.4784   -1.7729   H         1 RES1   0.0000
    76 H33       7.6903    2.3255   -3.2849   H         1 RES1   0.0000
    77 H34       6.1593   -0.0647   -2.1819   H         1 RES1   0.0000
    78 H35       7.2367   -0.0175   -3.5661   H         1 RES1   0.0000
    79 H36       4.5329    1.3833   -3.4334   H         1 RES1   0.0000
    80 H37       4.8683   -0.1694   -4.1946   H         1 RES1   0.0000
    81 H38       6.5538    1.0217   -5.6760   H         1 RES1   0.0000
    82 H39       5.9251    2.5485   -5.0627   H         1 RES1   0.0000
    83 H40       4.2352    0.4030   -6.4222   H         1 RES1   0.0000
    84 H41       4.9442    1.7796   -7.2564   H         1 RES1   0.0000
    85 H42       3.6354    3.3425   -5.8726   H         1 RES1   0.0000
    86 H43       2.9058    1.9916   -4.9959   H         1 RES1   0.0000
    87 H44       1.9693    1.1247   -7.1386   H         1 RES1   0.0000
    88 H45       2.6513    2.5075   -7.9885   H         1 RES1   0.0000
    89 H46       0.6485    2.7614   -5.7062   H         1 RES1   0.0000
    90 H47       0.1897    2.6648   -7.4053   H         1 RES1   0.0000
    91 H48       1.9106    4.8682   -6.1838   H         1 RES1   0.0000
    92 H49       0.2410    5.0200   -6.7376   H         1 RES1   0.0000
    93 H50       1.5302    4.7103   -7.8935   H         1 RES1   0.0000
    94 H51       3.9315    0.3286   -0.9185   H         1 RES1   0.0000
    95 H52       3.0666    1.6169   -1.7945   H         1 RES1   0.0000
    96 H53       3.4282   -1.3695   -1.9136   H         1 RES1   0.0000
    97 H54       2.4687   -0.7615   -4.0282   H         1 RES1   0.0000
    98 H55       0.8274   -0.9151   -3.4060   H         1 RES1   0.0000
    99 H56       2.2136   -2.9329   -4.8304   H         1 RES1   0.0000
   100 H57       0.7337   -3.1503   -3.8919   H         1 RES1   0.0000
   101 H58       3.5636   -3.5104   -2.8149   H         1 RES1   0.0000
   102 H59       2.3953   -4.7811   -3.1892   H         1 RES1   0.0000
   103 H60       1.3017   -5.5785   -1.5932   H         1 RES1   0.0000
   104 H61       0.2653   -4.5047   -0.6544   H         1 RES1   0.0000
   105 H62       1.9548   -4.3429    1.1211   H         1 RES1   0.0000
   106 H63       3.1042   -5.2761    0.1585   H         1 RES1   0.0000
   107 H64       2.3132   -6.9248    1.5531   H         1 RES1   0.0000
   108 H65       1.2443   -7.1420    0.1803   H         1 RES1   0.0000
   109 H66       0.6152   -5.6941    2.7889   H         1 RES1   0.0000
   110 H67       0.1045   -7.3139    2.3384   H         1 RES1   0.0000
   111 H68      -0.8382   -4.7347    1.0038   H         1 RES1   0.0000
   112 H69      -1.7189   -5.7178    2.1596   H         1 RES1   0.0000
   113 H70      -0.8766   -6.6657   -0.6178   H         1 RES1   0.0000
   114 H71      -2.4930   -6.1945   -0.1202   H         1 RES1   0.0000
   115 H72      -1.7408   -7.6259    0.5819   H         1 RES1   0.0000
   116 C38       1.0892    0.4805    9.8952   C.3       1 RES1   0.0000
   117 C39       2.2346    0.0501    8.9890   C.3       1 RES1   0.0000
   118 C40       1.7324   -0.5107    7.6603   C.3       1 RES1   0.0000
   119 C41       2.8887   -0.9510    6.7636   C.3       1 RES1   0.0000
   120 C42       2.4300   -1.7270    5.5302   C.3       1 RES1   0.0000
   121 C43       1.6896   -0.8515    4.5179   C.3       1 RES1   0.0000
   122 C44       1.3313   -1.6092    3.2330   C.3       1 RES1   0.0000
   123 C45       0.4132   -2.8286    3.3985   C.3       1 RES1   0.0000
   124 C46      -1.0818   -2.5064    3.4279   C.3       1 RES1   0.0000
   125 C47      -1.6237   -2.1065    4.8021   C.3       1 RES1   0.0000
   126 C48      -2.9659   -1.3812    4.6957   C.3       1 RES1   0.0000
   127 C49      -2.7941    0.0262    4.1061   C.3       1 RES1   0.0000
   128 N3       -3.3853    0.1937    2.7858   N.am      1 RES1   0.0000
   129 C50      -4.8339    0.1491    2.6967   C.3       1 RES1   0.0000
   130 C51      -5.4868    1.5368    2.5905   C.3       1 RES1   0.0000
   131 C52      -6.8698    1.4243    1.9414   C.3       1 RES1   0.0000
   132 C53      -7.4437    2.7438    1.4191   C.3       1 RES1   0.0000
   133 C54      -6.6831    3.3914    0.2544   C.3       1 RES1   0.0000
   134 C55      -6.3070    2.4559   -0.8983   C.3       1 RES1   0.0000
   135 C56      -7.4850    1.7783   -1.5981   C.3       1 RES1   0.0000
   136 C57      -7.0274    0.8398   -2.7205   C.3       1 RES1   0.0000
   137 C58      -6.2743   -0.3928   -2.2154   C.3       1 RES1   0.0000
   138 C59      -5.8681   -1.3331   -3.3504   C.3       1 RES1   0.0000
   139 C60      -4.8681   -2.4029   -2.9069   C.3       1 RES1   0.0000
   140 C61      -5.4289   -3.3569   -1.8597   C.3       1 RES1   0.0000
   141 C62      -2.5994    0.4261    1.7502   C.2       1 RES1   0.0000
   142 O4       -1.3529    0.4968    1.8442   O.2       1 RES1   0.0000
   143 C63      -3.2285    0.6497    0.3726   C.3       1 RES1   0.0000
   144 O5       -2.1624    0.8104   -0.5428   O.3       1 RES1   0.0000
   145 C64      -2.2811    1.8074   -1.5498   C.3       1 RES1   0.0000
   146 C65      -2.7979    1.2359   -2.8828   C.3       1 RES1   0.0000
   147 C66      -2.4315    2.1518   -4.0577   C.3       1 RES1   0.0000
   148 C67      -1.9065    3.4986   -3.5632   C.3       1 RES1   0.0000
   149 N4       -0.7575    3.2671   -2.7046   N.am      1 RES1   0.0000
   150 C68       0.5034    3.9456   -2.9738   C.3       1 RES1   0.0000
   151 C69       0.8394    4.9482   -1.8635   C.3       1 RES1   0.0000
   152 C70       1.5686    6.2206   -2.3136   C.3       1 RES1   0.0000
   153 C71       3.0903    6.1163   -2.4195   C.3       1 RES1   0.0000
   154 C72       3.5851    5.3122   -3.6196   C.3       1 RES1   0.0000
   155 C73       5.0582    5.5798   -3.9021   C.3       1 RES1   0.0000
   156 C74      -0.8707    2.3706   -1.7333   C.2       1 RES1   0.0000
   157 O6        0.0552    1.9862   -0.9986   O.2       1 RES1   0.0000
   158 H73       1.4748    0.9071   10.8158   H         1 RES1   0.0000
   159 H74       0.4638   -0.3710   10.1493   H         1 RES1   0.0000
   160 H75       0.4670    1.2273    9.4072   H         1 RES1   0.0000
   161 H76       2.8282   -0.7119    9.4973   H         1 RES1   0.0000
   162 H77       2.8914    0.9009    8.7931   H         1 RES1   0.0000
   163 H78       1.1360    0.2529    7.1544   H         1 RES1   0.0000
   164 H79       1.0801   -1.3655    7.8575   H         1 RES1   0.0000
   165 H80       3.5504   -1.5944    7.3452   H         1 RES1   0.0000
   166 H81       3.4674   -0.0771    6.4574   H         1 RES1   0.0000
   167 H82       1.7808   -2.5359    5.8676   H         1 RES1   0.0000
   168 H83       3.2977   -2.1797    5.0431   H         1 RES1   0.0000
   169 H84       2.3292   -0.0057    4.2484   H         1 RES1   0.0000
   170 H85       0.7942   -0.4367    4.9794   H         1 RES1   0.0000
   171 H86       2.2728   -1.9489    2.7884   H         1 RES1   0.0000
   172 H87       0.8505   -0.8998    2.5136   H         1 RES1   0.0000
   173 H88       0.6890   -3.3860    4.2939   H         1 RES1   0.0000
   174 H89       0.5862   -3.4769    2.5387   H         1 RES1   0.0000
   175 H90      -1.6374   -3.3804    3.0829   H         1 RES1   0.0000
   176 H91      -1.2602   -1.7091    2.6992   H         1 RES1   0.0000
   177 H92      -0.9177   -1.4555    5.3155   H         1 RES1   0.0000
   178 H93      -1.7478   -3.0003    5.4159   H         1 RES1   0.0000
   179 H94      -3.4030   -1.2963    5.6890   H         1 RES1   0.0000
   180 H95      -3.6406   -1.9752    4.0783   H         1 RES1   0.0000
   181 H96      -1.7287    0.2289    3.9982   H         1 RES1   0.0000
   182 H97      -3.2307    0.7867    4.7574   H         1 RES1   0.0000
   183 H98      -5.2029   -0.3641    3.5856   H         1 RES1   0.0000
   184 H99      -5.1169   -0.4535    1.8294   H         1 RES1   0.0000
   185 H100     -4.8494    2.2003    2.0068   H         1 RES1   0.0000
   186 H101     -5.5799    1.9883    3.5785   H         1 RES1   0.0000
   187 H102     -7.5623    1.0178    2.6796   H         1 RES1   0.0000
   188 H103     -6.8248    0.7112    1.1166   H         1 RES1   0.0000
   189 H104     -7.4900    3.4653    2.2361   H         1 RES1   0.0000
   190 H105     -8.4686    2.5513    1.1026   H         1 RES1   0.0000
   191 H106     -5.7641    3.8522    0.6307   H         1 RES1   0.0000
   192 H107     -7.3019    4.1993   -0.1400   H         1 RES1   0.0000
   193 H108     -5.6401    1.6803   -0.5225   H         1 RES1   0.0000
   194 H109     -5.7504    3.0376   -1.6415   H         1 RES1   0.0000
   195 H110     -8.1415    2.5426   -2.0172   H         1 RES1   0.0000
   196 H111     -8.0672    1.2037   -0.8771   H         1 RES1   0.0000
   197 H112     -6.3985    1.3956   -3.4225   H         1 RES1   0.0000
   198 H113     -7.9059    0.5021   -3.2716   H         1 RES1   0.0000
   199 H114     -6.9087   -0.9304   -1.5088   H         1 RES1   0.0000
   200 H115     -5.3686   -0.0872   -1.6823   H         1 RES1   0.0000
   201 H116     -5.4204   -0.7481   -4.1591   H         1 RES1   0.0000
   202 H117     -6.7581   -1.8194   -3.7518   H         1 RES1   0.0000
   203 H118     -3.9652   -1.9237   -2.5132   H         1 RES1   0.0000
   204 H119     -4.5720   -2.9821   -3.7826   H         1 RES1   0.0000
   205 H120     -5.6625   -2.8377   -0.9331   H         1 RES1   0.0000
   206 H121     -4.7040   -4.1361   -1.6391   H         1 RES1   0.0000
   207 H122     -6.3372   -3.8269   -2.2264   H         1 RES1   0.0000
   208 H123     -3.8495    1.5503    0.3931   H         1 RES1   0.0000
   209 H124     -3.8395   -0.2201    0.0883   H         1 RES1   0.0000
   210 H125     -2.9363    2.6182   -1.1994   H         1 RES1   0.0000
   211 H126     -3.8761    1.1061   -2.8237   H         1 RES1   0.0000
   212 H127     -2.3459    0.2510   -3.0122   H         1 RES1   0.0000
   213 H128     -3.2944    2.3172   -4.7004   H         1 RES1   0.0000
   214 H129     -1.6488    1.6947   -4.6624   H         1 RES1   0.0000
   215 H130     -2.6907    4.0417   -3.0277   H         1 RES1   0.0000
   216 H131     -1.5922    4.1051   -4.4124   H         1 RES1   0.0000
   217 H132      0.3979    4.4600   -3.9268   H         1 RES1   0.0000
   218 H133      1.2895    3.1927   -3.0652   H         1 RES1   0.0000
   219 H134      1.4204    4.4335   -1.0979   H         1 RES1   0.0000
   220 H135     -0.1070    5.2526   -1.4107   H         1 RES1   0.0000
   221 H136      1.3428    7.0043   -1.5867   H         1 RES1   0.0000
   222 H137      1.1705    6.5531   -3.2740   H         1 RES1   0.0000
   223 H138      3.4970    5.6971   -1.4953   H         1 RES1   0.0000
   224 H139      3.4803    7.1314   -2.5110   H         1 RES1   0.0000
   225 H140      3.0006    5.5983   -4.4961   H         1 RES1   0.0000
   226 H141      3.4255    4.2428   -3.4525   H         1 RES1   0.0000
   227 H142      5.1973    6.6073   -4.2236   H         1 RES1   0.0000
   228 H143      5.4238    4.9270   -4.6894   H         1 RES1   0.0000
   229 H144      5.6597    5.4188   -3.0124   H         1 RES1   0.0000
   230 N5       -1.0407   -1.9314   -0.9300   N.3       1 RES1   0.0000
   231 O7       -1.1413   -3.0178   -1.4053   O.2       1 RES1   0.0000
   232 O8       -0.6294   -0.9847   -1.6130   O.co2     1 RES1   0.0000
   233 O9       -1.3764   -1.7035    0.2331   O.co2     1 RES1   0.0000
@<TRIPOS>BOND
     1     1    28    1
     2     1    30    1
     3     1    43    1
     4     1   142    1
     5     1   144    1
     6     1   157    1
     7     1   232    1
     8     1   233    1
     9     2     3    1
    10     2    44    1
    11     2    45    1
    12     2    46    1
    13     3     4    1
    14     3    47    1
    15     3    48    1
    16     4     5    1
    17     4    49    1
    18     4    50    1
    19     5     6    1
    20     5    51    1
    21     5    52    1
    22     6     7    1
    23     6    53    1
    24     6    54    1
    25     7     8    1
    26     7    55    1
    27     7    56    1
    28     8     9    1
    29     8    57    1
    30     8    58    1
    31     9    10    1
    32     9    59    1
    33     9    60    1
    34    10    11    1
    35    10    61    1
    36    10    62    1
    37    11    12    1
    38    11    63    1
    39    11    64    1
    40    12    13    1
    41    12    65    1
    42    12    66    1
    43    13    14    1
    44    13    67    1
    45    13    68    1
    46    14    15    1
    47    14    27    1
    48    15    16    1
    49    15    69    1
    50    15    70    1
    51    16    17    1
    52    16    71    1
    53    16    72    1
    54    17    18    1
    55    17    73    1
    56    17    74    1
    57    18    19    1
    58    18    75    1
    59    18    76    1
    60    19    20    1
    61    19    77    1
    62    19    78    1
    63    20    21    1
    64    20    79    1
    65    20    80    1
    66    21    22    1
    67    21    81    1
    68    21    82    1
    69    22    23    1
    70    22    83    1
    71    22    84    1
    72    23    24    1
    73    23    85    1
    74    23    86    1
    75    24    25    1
    76    24    87    1
    77    24    88    1
    78    25    26    1
    79    25    89    1
    80    25    90    1
    81    26    91    1
    82    26    92    1
    83    26    93    1
    84    27    28    2
    85    27    29    1
    86    29    30    1
    87    29    94    1
    88    29    95    1
    89    30    31    1
    90    31    32    1
    91    31    42    1
    92    31    96    1
    93    32    33    1
    94    32    97    1
    95    32    98    1
    96    33    34    1
    97    33    99    1
    98    33   100    1
    99    34    35    1
   100    34   101    1
   101    34   102    1
   102    35    36    1
   103    35    42    1
   104    36    37    1
   105    36   103    1
   106    36   104    1
   107    37    38    1
   108    37   105    1
   109    37   106    1
   110    38    39    1
   111    38   107    1
   112    38   108    1
   113    39    40    1
   114    39   109    1
   115    39   110    1
   116    40    41    1
   117    40   111    1
   118    40   112    1
   119    41   113    1
   120    41   114    1
   121    41   115    1
   122    42    43    2
   123   116   117    1
   124   116   158    1
   125   116   159    1
   126   116   160    1
   127   117   118    1
   128   117   161    1
   129   117   162    1
   130   118   119    1
   131   118   163    1
   132   118   164    1
   133   119   120    1
   134   119   165    1
   135   119   166    1
   136   120   121    1
   137   120   167    1
   138   120   168    1
   139   121   122    1
   140   121   169    1
   141   121   170    1
   142   122   123    1
   143   122   171    1
   144   122   172    1
   145   123   124    1
   146   123   173    1
   147   123   174    1
   148   124   125    1
   149   124   175    1
   150   124   176    1
   151   125   126    1
   152   125   177    1
   153   125   178    1
   154   126   127    1
   155   126   179    1
   156   126   180    1
   157   127   128    1
   158   127   181    1
   159   127   182    1
   160   128   129    1
   161   128   141    1
   162   129   130    1
   163   129   183    1
   164   129   184    1
   165   130   131    1
   166   130   185    1
   167   130   186    1
   168   131   132    1
   169   131   187    1
   170   131   188    1
   171   132   133    1
   172   132   189    1
   173   132   190    1
   174   133   134    1
   175   133   191    1
   176   133   192    1
   177   134   135    1
   178   134   193    1
   179   134   194    1
   180   135   136    1
   181   135   195    1
   182   135   196    1
   183   136   137    1
   184   136   197    1
   185   136   198    1
   186   137   138    1
   187   137   199    1
   188   137   200    1
   189   138   139    1
   190   138   201    1
   191   138   202    1
   192   139   140    1
   193   139   203    1
   194   139   204    1
   195   140   205    1
   196   140   206    1
   197   140   207    1
   198   141   142    2
   199   141   143    1
   200   143   144    1
   201   143   208    1
   202   143   209    1
   203   144   145    1
   204   145   146    1
   205   145   156    1
   206   145   210    1
   207   146   147    1
   208   146   211    1
   209   146   212    1
   210   147   148    1
   211   147   213    1
   212   147   214    1
   213   148   149    1
   214   148   215    1
   215   148   216    1
   216   149   150    1
   217   149   156    1
   218   150   151    1
   219   150   217    1
   220   150   218    1
   221   151   152    1
   222   151   219    1
   223   151   220    1
   224   152   153    1
   225   152   221    1
   226   152   222    1
   227   153   154    1
   228   153   223    1
   229   153   224    1
   230   154   155    1
   231   154   225    1
   232   154   226    1
   233   155   227    1
   234   155   228    1
   235   155   229    1
   236   156   157    2
   237   230   231    2
   238   230   232    1
   239   230   233    1
@<TRIPOS>SUBSTRUCTURE
     1 RES1      233 GROUP             0 ****  ****    0  
