@<TRIPOS>MOLECULE
ICIGOT_geomtry_0_nunpairedes_0_charge_3 Charge: 3 Unpaired_Electrons: 4 XTB_Unpaired_Electrons: 0 XTB_Charge: 3
   145   158     1     0     0
SMALL
NoCharges
****
Generated from Architector

@<TRIPOS>ATOM
     1 Ho1      -0.0353   -0.1050    0.0908   Ho        1 RES1   0.0000
     2 C1       -5.1580    2.8226    3.2311   C.3       1 RES1   0.0000
     3 C2       -4.0619    2.9172    2.1830   C.3       1 RES1   0.0000
     4 N1       -3.7007    1.6358    1.5836   N.am      1 RES1   0.0000
     5 C3       -2.4501    1.1498    1.5528   C.2       1 RES1   0.0000
     6 O1       -2.0746    0.4257    0.5972   O.2       1 RES1   0.0000
     7 C4       -1.4301    1.4143    2.6384   C.ar      1 RES1   0.0000
     8 C5       -1.6465    2.0634    3.8552   C.ar      1 RES1   0.0000
     9 C6       -0.5475    2.3670    4.6446   C.ar      1 RES1   0.0000
    10 C7        0.7180    1.9586    4.2562   C.ar      1 RES1   0.0000
    11 C8        0.8492    1.1877    3.0957   C.ar      1 RES1   0.0000
    12 C9        2.1570    0.6885    2.5783   C.ar      1 RES1   0.0000
    13 C10       3.3884    0.9969    3.1695   C.ar      1 RES1   0.0000
    14 C11       4.5585    0.5820    2.5538   C.ar      1 RES1   0.0000
    15 C12       4.4992   -0.2032    1.4089   C.ar      1 RES1   0.0000
    16 C13       3.2442   -0.4935    0.8832   C.ar      1 RES1   0.0000
    17 C14       2.9219   -1.3709   -0.2991   C.2       1 RES1   0.0000
    18 O2        1.6957   -1.4801   -0.5543   O.2       1 RES1   0.0000
    19 N2        3.8038   -2.0827   -0.9908   N.am      1 RES1   0.0000
    20 C15       3.2819   -3.1039   -1.9017   C.3       1 RES1   0.0000
    21 C16       3.4331   -2.7638   -3.3774   C.3       1 RES1   0.0000
    22 C17       5.2191   -1.8931   -1.0569   C.ar      1 RES1   0.0000
    23 C18       6.0688   -2.9186   -0.6589   C.ar      1 RES1   0.0000
    24 C19       7.4365   -2.7828   -0.7953   C.ar      1 RES1   0.0000
    25 C20       7.9829   -1.6319   -1.3513   C.ar      1 RES1   0.0000
    26 C21       9.4587   -1.4769   -1.4751   C.3       1 RES1   0.0000
    27 C22       7.1163   -0.6301   -1.7805   C.ar      1 RES1   0.0000
    28 C23       5.7392   -0.7355   -1.6506   C.ar      1 RES1   0.0000
    29 C24       4.8462    0.3614   -2.1482   C.3       1 RES1   0.0000
    30 N3        2.1156   -0.0210    1.4444   N.ar      1 RES1   0.0000
    31 N4       -0.2183    0.9307    2.3296   N.ar      1 RES1   0.0000
    32 C25      -4.7140    0.8585    0.9224   C.ar      1 RES1   0.0000
    33 C26      -4.7357   -0.4999    1.2570   C.ar      1 RES1   0.0000
    34 C27      -5.6875   -1.3530    0.7443   C.ar      1 RES1   0.0000
    35 C28      -6.6786   -0.8777   -0.1077   C.ar      1 RES1   0.0000
    36 C29      -7.7220   -1.7649   -0.6946   C.3       1 RES1   0.0000
    37 C30      -6.6603    0.4751   -0.4137   C.ar      1 RES1   0.0000
    38 C31      -5.6947    1.3604    0.0547   C.ar      1 RES1   0.0000
    39 C32      -5.7887    2.7754   -0.4409   C.3       1 RES1   0.0000
    40 H1       -5.3651    3.8186    3.6121   H         1 RES1   0.0000
    41 H2       -4.8718    2.1913    4.0669   H         1 RES1   0.0000
    42 H3       -6.0624    2.4148    2.7883   H         1 RES1   0.0000
    43 H4       -3.1630    3.3733    2.5977   H         1 RES1   0.0000
    44 H5       -4.4136    3.5708    1.3833   H         1 RES1   0.0000
    45 H6       -2.6252    2.3253    4.2184   H         1 RES1   0.0000
    46 H7       -0.6822    2.9583    5.5378   H         1 RES1   0.0000
    47 H8        1.5601    2.2259    4.8702   H         1 RES1   0.0000
    48 H9        3.4506    1.5570    4.0853   H         1 RES1   0.0000
    49 H10       5.5167    0.8747    2.9541   H         1 RES1   0.0000
    50 H11       5.4087   -0.5574    0.9462   H         1 RES1   0.0000
    51 H12       2.2286   -3.2448   -1.6549   H         1 RES1   0.0000
    52 H13       3.8301   -4.0247   -1.7052   H         1 RES1   0.0000
    53 H14       2.8642   -1.8768   -3.6436   H         1 RES1   0.0000
    54 H15       3.0609   -3.5963   -3.9684   H         1 RES1   0.0000
    55 H16       4.4771   -2.6067   -3.6337   H         1 RES1   0.0000
    56 H17       5.6656   -3.8190   -0.2197   H         1 RES1   0.0000
    57 H18       8.0908   -3.5777   -0.4696   H         1 RES1   0.0000
    58 H19       9.9551   -2.3836   -1.1402   H         1 RES1   0.0000
    59 H20       9.7968   -0.6381   -0.8654   H         1 RES1   0.0000
    60 H21       9.7354   -1.2808   -2.5104   H         1 RES1   0.0000
    61 H22       7.5289    0.2550   -2.2398   H         1 RES1   0.0000
    62 H23       5.4486    1.1415   -2.6032   H         1 RES1   0.0000
    63 H24       4.2709    0.8004   -1.3331   H         1 RES1   0.0000
    64 H25       4.1451   -0.0091   -2.8945   H         1 RES1   0.0000
    65 H26      -3.9961   -0.8845    1.9475   H         1 RES1   0.0000
    66 H27      -5.6624   -2.3934    1.0217   H         1 RES1   0.0000
    67 H28      -7.5312   -2.8085   -0.4676   H         1 RES1   0.0000
    68 H29      -7.7552   -1.6361   -1.7751   H         1 RES1   0.0000
    69 H30      -8.7009   -1.4963   -0.3016   H         1 RES1   0.0000
    70 H31      -7.4362    0.8552   -1.0619   H         1 RES1   0.0000
    71 H32      -6.3530    2.7916   -1.3715   H         1 RES1   0.0000
    72 H33      -4.8137    3.2174   -0.6348   H         1 RES1   0.0000
    73 H34      -6.3422    3.3943    0.2687   H         1 RES1   0.0000
    74 C33      -0.9456   -6.5026   -0.8114   C.3       1 RES1   0.0000
    75 C34      -0.0020   -5.3240   -0.6504   C.3       1 RES1   0.0000
    76 N5       -0.5892   -4.2632    0.1641   N.am      1 RES1   0.0000
    77 C35      -0.7424   -3.0037   -0.2523   C.2       1 RES1   0.0000
    78 O3       -0.8697   -2.0551    0.5604   O.2       1 RES1   0.0000
    79 C36      -0.7966   -2.6615   -1.7185   C.ar      1 RES1   0.0000
    80 C37      -1.1533   -3.5282   -2.7530   C.ar      1 RES1   0.0000
    81 C38      -1.0132   -3.0859   -4.0588   C.ar      1 RES1   0.0000
    82 C39      -0.5947   -1.7870   -4.3066   C.ar      1 RES1   0.0000
    83 C40      -0.4077   -0.9266   -3.2220   C.ar      1 RES1   0.0000
    84 C41      -0.0429    0.5095   -3.3276   C.ar      1 RES1   0.0000
    85 C42       0.1470    1.1646   -4.5458   C.ar      1 RES1   0.0000
    86 C43       0.5004    2.5037   -4.5476   C.ar      1 RES1   0.0000
    87 C44       0.6122    3.1842   -3.3442   C.ar      1 RES1   0.0000
    88 C45       0.4078    2.4721   -2.1677   C.ar      1 RES1   0.0000
    89 C46       0.3948    3.0408   -0.7801   C.2       1 RES1   0.0000
    90 O4        0.3336    2.2109    0.1596   O.2       1 RES1   0.0000
    91 N6        0.2955    4.3452   -0.5414   N.am      1 RES1   0.0000
    92 C47      -0.1683    4.7722    0.7786   C.3       1 RES1   0.0000
    93 C48       0.9677    5.1051    1.7366   C.3       1 RES1   0.0000
    94 C49       0.8762    5.4067   -1.3025   C.ar      1 RES1   0.0000
    95 C50       0.0894    6.4833   -1.6957   C.ar      1 RES1   0.0000
    96 C51       0.6659    7.6000   -2.2718   C.ar      1 RES1   0.0000
    97 C52       2.0420    7.6663   -2.4605   C.ar      1 RES1   0.0000
    98 C53       2.6843    8.8640   -3.0693   C.3       1 RES1   0.0000
    99 C54       2.8139    6.5775   -2.0638   C.ar      1 RES1   0.0000
   100 C55       2.2666    5.4470   -1.4791   C.ar      1 RES1   0.0000
   101 C56       3.1569    4.3263   -1.0312   C.3       1 RES1   0.0000
   102 N7        0.1190    1.1588   -2.1657   N.ar      1 RES1   0.0000
   103 N8       -0.5130   -1.3796   -1.9683   N.ar      1 RES1   0.0000
   104 C57      -1.0953   -4.5843    1.4682   C.ar      1 RES1   0.0000
   105 C58      -2.3721   -4.0971    1.7615   C.ar      1 RES1   0.0000
   106 C59      -2.9911   -4.3800    2.9602   C.ar      1 RES1   0.0000
   107 C60      -2.3726   -5.1994    3.8992   C.ar      1 RES1   0.0000
   108 C61      -2.9952   -5.5364    5.2117   C.3       1 RES1   0.0000
   109 C62      -1.1174   -5.7012    3.5803   C.ar      1 RES1   0.0000
   110 C63      -0.4442   -5.3967    2.4027   C.ar      1 RES1   0.0000
   111 C64       0.9354   -5.9589    2.2264   C.3       1 RES1   0.0000
   112 H35      -0.4482   -7.3020   -1.3487   H         1 RES1   0.0000
   113 H36      -1.8425   -6.2239   -1.3557   H         1 RES1   0.0000
   114 H37      -1.2436   -6.8696    0.1658   H         1 RES1   0.0000
   115 H38       0.2857   -4.9139   -1.6180   H         1 RES1   0.0000
   116 H39       0.9097   -5.6663   -0.1628   H         1 RES1   0.0000
   117 H40      -1.5584   -4.5094   -2.5721   H         1 RES1   0.0000
   118 H41      -1.1989   -3.7684   -4.8750   H         1 RES1   0.0000
   119 H42      -0.4508   -1.4683   -5.3236   H         1 RES1   0.0000
   120 H43       0.0145    0.6451   -5.4786   H         1 RES1   0.0000
   121 H44       0.6927    3.0169   -5.4767   H         1 RES1   0.0000
   122 H45       0.8642    4.2318   -3.3224   H         1 RES1   0.0000
   123 H46      -0.7918    3.9723    1.1853   H         1 RES1   0.0000
   124 H47      -0.7708    5.6692    0.6256   H         1 RES1   0.0000
   125 H48       1.5827    4.2282    1.9242   H         1 RES1   0.0000
   126 H49       0.5606    5.4498    2.6824   H         1 RES1   0.0000
   127 H50       1.5845    5.8973    1.3188   H         1 RES1   0.0000
   128 H51      -0.9809    6.4470   -1.5596   H         1 RES1   0.0000
   129 H52       0.0419    8.4279   -2.5716   H         1 RES1   0.0000
   130 H53       1.9438    9.6354   -3.2614   H         1 RES1   0.0000
   131 H54       3.1677    8.5895   -4.0081   H         1 RES1   0.0000
   132 H55       3.4446    9.2622   -2.3972   H         1 RES1   0.0000
   133 H56       3.8827    6.6277   -2.2049   H         1 RES1   0.0000
   134 H57       4.1901    4.5662   -1.2616   H         1 RES1   0.0000
   135 H58       2.9022    3.3947   -1.5351   H         1 RES1   0.0000
   136 H59       3.0765    4.1658    0.0429   H         1 RES1   0.0000
   137 H60      -2.8912   -3.4969    1.0258   H         1 RES1   0.0000
   138 H61      -3.9656   -3.9608    3.1555   H         1 RES1   0.0000
   139 H62      -3.9330   -5.0109    5.3601   H         1 RES1   0.0000
   140 H63      -2.3128   -5.2815    6.0222   H         1 RES1   0.0000
   141 H64      -3.1829   -6.6077    5.2659   H         1 RES1   0.0000
   142 H65      -0.6397   -6.3530    4.2965   H         1 RES1   0.0000
   143 H66       1.3627   -6.1968    3.1964   H         1 RES1   0.0000
   144 H67       1.5977   -5.2524    1.7330   H         1 RES1   0.0000
   145 H68       0.8955   -6.8929    1.6623   H         1 RES1   0.0000
@<TRIPOS>BOND
     1     1     6    1
     2     1    18    1
     3     1    30    1
     4     1    31    1
     5     1    78    1
     6     1    90    1
     7     1   102    1
     8     1   103    1
     9     2     3    1
    10     2    40    1
    11     2    41    1
    12     2    42    1
    13     3     4    1
    14     3    43    1
    15     3    44    1
    16     4     5    1
    17     4    32    1
    18     5     6    2
    19     5     7    1
    20     7     8    1
    21     7    31    2
    22     8     9    2
    23     8    45    1
    24     9    10    1
    25     9    46    1
    26    10    11    2
    27    10    47    1
    28    11    12    1
    29    11    31    1
    30    12    13    1
    31    12    30    2
    32    13    14    2
    33    13    48    1
    34    14    15    1
    35    14    49    1
    36    15    16    2
    37    15    50    1
    38    16    17    1
    39    16    30    1
    40    17    18    2
    41    17    19    1
    42    19    20    1
    43    19    22    1
    44    20    21    1
    45    20    51    1
    46    20    52    1
    47    21    53    1
    48    21    54    1
    49    21    55    1
    50    22    23    1
    51    22    28    2
    52    23    24    2
    53    23    56    1
    54    24    25    1
    55    24    57    1
    56    25    26    1
    57    25    27    2
    58    26    58    1
    59    26    59    1
    60    26    60    1
    61    27    28    1
    62    27    61    1
    63    28    29    1
    64    29    62    1
    65    29    63    1
    66    29    64    1
    67    32    33    1
    68    32    38    2
    69    33    34    2
    70    33    65    1
    71    34    35    1
    72    34    66    1
    73    35    36    1
    74    35    37    2
    75    36    67    1
    76    36    68    1
    77    36    69    1
    78    37    38    1
    79    37    70    1
    80    38    39    1
    81    39    71    1
    82    39    72    1
    83    39    73    1
    84    74    75    1
    85    74   112    1
    86    74   113    1
    87    74   114    1
    88    75    76    1
    89    75   115    1
    90    75   116    1
    91    76    77    1
    92    76   104    1
    93    77    78    2
    94    77    79    1
    95    79    80    1
    96    79   103    2
    97    80    81    2
    98    80   117    1
    99    81    82    1
   100    81   118    1
   101    82    83    2
   102    82   119    1
   103    83    84    1
   104    83   103    1
   105    84    85    1
   106    84   102    2
   107    85    86    2
   108    85   120    1
   109    86    87    1
   110    86   121    1
   111    87    88    2
   112    87   122    1
   113    88    89    1
   114    88   102    1
   115    89    90    2
   116    89    91    1
   117    91    92    1
   118    91    94    1
   119    92    93    1
   120    92   123    1
   121    92   124    1
   122    93   125    1
   123    93   126    1
   124    93   127    1
   125    94    95    1
   126    94   100    2
   127    95    96    2
   128    95   128    1
   129    96    97    1
   130    96   129    1
   131    97    98    1
   132    97    99    2
   133    98   130    1
   134    98   131    1
   135    98   132    1
   136    99   100    1
   137    99   133    1
   138   100   101    1
   139   101   134    1
   140   101   135    1
   141   101   136    1
   142   104   105    1
   143   104   110    2
   144   105   106    2
   145   105   137    1
   146   106   107    1
   147   106   138    1
   148   107   108    1
   149   107   109    2
   150   108   139    1
   151   108   140    1
   152   108   141    1
   153   109   110    1
   154   109   142    1
   155   110   111    1
   156   111   143    1
   157   111   144    1
   158   111   145    1
@<TRIPOS>SUBSTRUCTURE
     1 RES1      145 GROUP             0 ****  ****    0  
