@<TRIPOS>MOLECULE
YEMSEP_geometry_0_nunpairedes_0_charge_2 Charge: 2 Unpaired_Electrons: 4 XTB_Unpaired_Electrons: 0 XTB_Charge: 2
   119   129     1     0     0
SMALL
NoCharges
****
Generated from Architector

@<TRIPOS>ATOM
     1 Ho1       0.0081    0.0565    0.1804   Ho        1 RES1   0.0000
     2 C1        1.4715   -1.0666   -4.9782   C.3       1 RES1   0.0000
     3 C2        2.2980   -0.0584   -4.1968   C.3       1 RES1   0.0000
     4 N1        2.9155   -0.6635   -3.0211   N.am      1 RES1   0.0000
     5 C3        2.4300   -0.3623   -1.8225   C.2       1 RES1   0.0000
     6 O1        1.4624    0.4051   -1.6737   O.2       1 RES1   0.0000
     7 C4        3.0781   -0.8736   -0.5597   C.ar      1 RES1   0.0000
     8 C5        4.4222   -1.1693   -0.3537   C.ar      1 RES1   0.0000
     9 C6        4.8387   -1.4759    0.9332   C.ar      1 RES1   0.0000
    10 C7        3.9376   -1.4290    1.9904   C.ar      1 RES1   0.0000
    11 C8        2.6248   -1.0666    1.7095   C.ar      1 RES1   0.0000
    12 C9        1.5381   -0.6615    2.6715   C.2       1 RES1   0.0000
    13 O2        0.7698    0.2397    2.2571   O.2       1 RES1   0.0000
    14 N2        1.4133   -1.1763    3.8774   N.am      1 RES1   0.0000
    15 C10       0.3206   -0.7327    4.7405   C.3       1 RES1   0.0000
    16 C11      -0.8133   -1.7511    4.7604   C.3       1 RES1   0.0000
    17 C12       2.2384   -2.2052    4.4120   C.ar      1 RES1   0.0000
    18 C13       3.0146   -1.8742    5.5203   C.ar      1 RES1   0.0000
    19 C14       3.7776   -2.8387    6.1470   C.ar      1 RES1   0.0000
    20 C15       3.7673   -4.1405    5.6674   C.ar      1 RES1   0.0000
    21 C16       3.0124   -4.4560    4.5533   C.ar      1 RES1   0.0000
    22 C17       2.2291   -3.5026    3.9023   C.ar      1 RES1   0.0000
    23 C18       1.4361   -3.9281    2.7021   C.3       1 RES1   0.0000
    24 N3        2.2164   -0.8406    0.4573   N.ar      1 RES1   0.0000
    25 C19       3.7979   -1.7628   -3.2157   C.ar      1 RES1   0.0000
    26 C20       3.3830   -3.0089   -2.7522   C.ar      1 RES1   0.0000
    27 C21       4.2073   -4.1079   -2.9005   C.ar      1 RES1   0.0000
    28 C22       5.4452   -3.9654   -3.5105   C.ar      1 RES1   0.0000
    29 C23       5.8480   -2.7212   -3.9644   C.ar      1 RES1   0.0000
    30 C24       5.0367   -1.5954   -3.8352   C.ar      1 RES1   0.0000
    31 C25       5.5206   -0.2582   -4.3063   C.3       1 RES1   0.0000
    32 H1        1.1260   -0.6031   -5.8978   H         1 RES1   0.0000
    33 H2        0.6156   -1.3866   -4.3915   H         1 RES1   0.0000
    34 H3        2.0782   -1.9377   -5.2176   H         1 RES1   0.0000
    35 H4        1.6712    0.7628   -3.8440   H         1 RES1   0.0000
    36 H5        3.0814    0.3367   -4.8409   H         1 RES1   0.0000
    37 H6        5.1326   -1.1314   -1.1619   H         1 RES1   0.0000
    38 H7        5.8743   -1.7147    1.1209   H         1 RES1   0.0000
    39 H8        4.2535   -1.6237    3.0016   H         1 RES1   0.0000
    40 H9       -0.0356    0.2325    4.3765   H         1 RES1   0.0000
    41 H10       0.7217   -0.6173    5.7476   H         1 RES1   0.0000
    42 H11      -1.2076   -1.9203    3.7605   H         1 RES1   0.0000
    43 H12      -1.6130   -1.3804    5.3958   H         1 RES1   0.0000
    44 H13      -0.4675   -2.6990    5.1664   H         1 RES1   0.0000
    45 H14       3.0190   -0.8560    5.8825   H         1 RES1   0.0000
    46 H15       4.3741   -2.5731    7.0045   H         1 RES1   0.0000
    47 H16       4.3429   -4.9084    6.1638   H         1 RES1   0.0000
    48 H17       3.0222   -5.4681    4.1734   H         1 RES1   0.0000
    49 H18       0.8812   -4.8366    2.9355   H         1 RES1   0.0000
    50 H19       2.1220   -4.1615    1.8865   H         1 RES1   0.0000
    51 H20       0.7323   -3.1718    2.3586   H         1 RES1   0.0000
    52 H21       2.4138   -3.1053   -2.2800   H         1 RES1   0.0000
    53 H22       3.8891   -5.0675   -2.5285   H         1 RES1   0.0000
    54 H23       6.0997   -4.8193   -3.6296   H         1 RES1   0.0000
    55 H24       6.8243   -2.6160   -4.4126   H         1 RES1   0.0000
    56 H25       6.5872   -0.1599   -4.1202   H         1 RES1   0.0000
    57 H26       5.0116    0.5540   -3.7947   H         1 RES1   0.0000
    58 H27       5.3728   -0.1469   -5.3822   H         1 RES1   0.0000
    59 C26      -2.5639    5.8084   -0.5011   C.3       1 RES1   0.0000
    60 C27      -2.6834    4.4638    0.2035   C.3       1 RES1   0.0000
    61 N4       -1.3940    3.7969    0.2589   N.am      1 RES1   0.0000
    62 C28      -1.0059    2.7122   -0.3888   C.2       1 RES1   0.0000
    63 O3        0.1081    2.2012   -0.1337   O.2       1 RES1   0.0000
    64 C29      -1.7903    2.0137   -1.4913   C.ar      1 RES1   0.0000
    65 C30      -2.5441    2.5887   -2.5123   C.ar      1 RES1   0.0000
    66 C31      -2.9763    1.7719   -3.5508   C.ar      1 RES1   0.0000
    67 C32      -2.6673    0.4162   -3.5671   C.ar      1 RES1   0.0000
    68 C33      -1.9356   -0.0997   -2.4969   C.ar      1 RES1   0.0000
    69 C34      -1.3014   -1.4713   -2.3189   C.2       1 RES1   0.0000
    70 O4       -0.3599   -1.5198   -1.4927   O.2       1 RES1   0.0000
    71 N5       -1.6298   -2.5456   -3.0283   N.am      1 RES1   0.0000
    72 C35      -2.8991   -2.7557   -3.7123   C.3       1 RES1   0.0000
    73 C36      -2.7694   -2.7319   -5.2320   C.3       1 RES1   0.0000
    74 C37      -0.7353   -3.6818   -3.0025   C.ar      1 RES1   0.0000
    75 C38      -0.0301   -3.9797   -4.1629   C.ar      1 RES1   0.0000
    76 C39       0.8245   -5.0662   -4.1995   C.ar      1 RES1   0.0000
    77 C40       0.9789   -5.8584   -3.0756   C.ar      1 RES1   0.0000
    78 C41       0.2896   -5.5453   -1.9178   C.ar      1 RES1   0.0000
    79 C42      -0.5883   -4.4658   -1.8583   C.ar      1 RES1   0.0000
    80 C43      -1.3403   -4.1597   -0.6025   C.3       1 RES1   0.0000
    81 N6       -1.5310    0.7053   -1.5116   N.ar      1 RES1   0.0000
    82 C44      -0.4005    4.4061    1.1201   C.ar      1 RES1   0.0000
    83 C45       0.4462    5.3580    0.5714   C.ar      1 RES1   0.0000
    84 C46       1.3592    6.0123    1.3801   C.ar      1 RES1   0.0000
    85 C47       1.4508    5.6890    2.7224   C.ar      1 RES1   0.0000
    86 C48       0.6578    4.6803    3.2422   C.ar      1 RES1   0.0000
    87 C49      -0.2887    4.0305    2.4577   C.ar      1 RES1   0.0000
    88 C50      -1.1376    2.9252    3.0034   C.3       1 RES1   0.0000
    89 H28      -3.5377    6.2811   -0.5721   H         1 RES1   0.0000
    90 H29      -2.1546    5.6869   -1.5011   H         1 RES1   0.0000
    91 H30      -1.9057    6.4640    0.0628   H         1 RES1   0.0000
    92 H31      -3.4184    3.8230   -0.2834   H         1 RES1   0.0000
    93 H32      -3.0219    4.6326    1.2290   H         1 RES1   0.0000
    94 H33      -2.7537    3.6444   -2.5349   H         1 RES1   0.0000
    95 H34      -3.5421    2.2009   -4.3668   H         1 RES1   0.0000
    96 H35      -2.9537   -0.1821   -4.4142   H         1 RES1   0.0000
    97 H36      -3.6127   -2.0070   -3.3644   H         1 RES1   0.0000
    98 H37      -3.2735   -3.7371   -3.4036   H         1 RES1   0.0000
    99 H38      -2.1654   -1.8890   -5.5639   H         1 RES1   0.0000
   100 H39      -3.7578   -2.6569   -5.6757   H         1 RES1   0.0000
   101 H40      -2.3097   -3.6485   -5.5904   H         1 RES1   0.0000
   102 H41      -0.1329   -3.3620   -5.0396   H         1 RES1   0.0000
   103 H42       1.3631   -5.2855   -5.1068   H         1 RES1   0.0000
   104 H43       1.6227   -6.7240   -3.1036   H         1 RES1   0.0000
   105 H44       0.4215   -6.1566   -1.0376   H         1 RES1   0.0000
   106 H45      -1.3042   -5.0034    0.0800   H         1 RES1   0.0000
   107 H46      -2.3841   -3.9246   -0.8100   H         1 RES1   0.0000
   108 H47      -0.8866   -3.3018   -0.0986   H         1 RES1   0.0000
   109 H48       0.4009    5.5737   -0.4858   H         1 RES1   0.0000
   110 H49       1.9970    6.7683    0.9542   H         1 RES1   0.0000
   111 H50       2.1435    6.2126    3.3635   H         1 RES1   0.0000
   112 H51       0.7736    4.3897    4.2758   H         1 RES1   0.0000
   113 H52      -0.9012    2.7391    4.0480   H         1 RES1   0.0000
   114 H53      -0.9532    2.0140    2.4280   H         1 RES1   0.0000
   115 H54      -2.1972    3.1673    2.9265   H         1 RES1   0.0000
   116 N7       -2.0334   -0.7522    1.3058   N.3       1 RES1   0.0000
   117 O5       -3.1001   -1.1860    1.5999   O.2       1 RES1   0.0000
   118 O6       -1.8712    0.4489    1.0356   O.co2     1 RES1   0.0000
   119 O7       -1.0188   -1.4764    1.2641   O.co2     1 RES1   0.0000
@<TRIPOS>BOND
     1     1     6    1
     2     1    13    1
     3     1    24    1
     4     1    63    1
     5     1    70    1
     6     1    81    1
     7     1   118    1
     8     1   119    1
     9     2     3    1
    10     2    32    1
    11     2    33    1
    12     2    34    1
    13     3     4    1
    14     3    35    1
    15     3    36    1
    16     4     5    1
    17     4    25    1
    18     5     6    2
    19     5     7    1
    20     7     8    1
    21     7    24    2
    22     8     9    2
    23     8    37    1
    24     9    10    1
    25     9    38    1
    26    10    11    2
    27    10    39    1
    28    11    12    1
    29    11    24    1
    30    12    13    2
    31    12    14    1
    32    14    15    1
    33    14    17    1
    34    15    16    1
    35    15    40    1
    36    15    41    1
    37    16    42    1
    38    16    43    1
    39    16    44    1
    40    17    18    1
    41    17    22    2
    42    18    19    2
    43    18    45    1
    44    19    20    1
    45    19    46    1
    46    20    21    2
    47    20    47    1
    48    21    22    1
    49    21    48    1
    50    22    23    1
    51    23    49    1
    52    23    50    1
    53    23    51    1
    54    25    26    1
    55    25    30    2
    56    26    27    2
    57    26    52    1
    58    27    28    1
    59    27    53    1
    60    28    29    2
    61    28    54    1
    62    29    30    1
    63    29    55    1
    64    30    31    1
    65    31    56    1
    66    31    57    1
    67    31    58    1
    68    59    60    1
    69    59    89    1
    70    59    90    1
    71    59    91    1
    72    60    61    1
    73    60    92    1
    74    60    93    1
    75    61    62    1
    76    61    82    1
    77    62    63    2
    78    62    64    1
    79    64    65    1
    80    64    81    2
    81    65    66    2
    82    65    94    1
    83    66    67    1
    84    66    95    1
    85    67    68    2
    86    67    96    1
    87    68    69    1
    88    68    81    1
    89    69    70    2
    90    69    71    1
    91    71    72    1
    92    71    74    1
    93    72    73    1
    94    72    97    1
    95    72    98    1
    96    73    99    1
    97    73   100    1
    98    73   101    1
    99    74    75    1
   100    74    79    2
   101    75    76    2
   102    75   102    1
   103    76    77    1
   104    76   103    1
   105    77    78    2
   106    77   104    1
   107    78    79    1
   108    78   105    1
   109    79    80    1
   110    80   106    1
   111    80   107    1
   112    80   108    1
   113    82    83    1
   114    82    87    2
   115    83    84    2
   116    83   109    1
   117    84    85    1
   118    84   110    1
   119    85    86    2
   120    85   111    1
   121    86    87    1
   122    86   112    1
   123    87    88    1
   124    88   113    1
   125    88   114    1
   126    88   115    1
   127   116   117    2
   128   116   118    1
   129   116   119    1
@<TRIPOS>SUBSTRUCTURE
     1 RES1      119 GROUP             0 ****  ****    0  
