@<TRIPOS>MOLECULE
ICIGOT_geomtry_0_nunpairedes_0_charge_2 Charge: 2 Unpaired_Electrons: 4 XTB_Unpaired_Electrons: 0 XTB_Charge: 2
   115   129     1     0     0
SMALL
NoCharges
****
Generated from Architector

@<TRIPOS>ATOM
     1 Ho1      -0.9877    0.8841    0.1894   Ho        1 RES1   0.0000
     2 C1        7.2093   -2.6066    0.6239   C.3       1 RES1   0.0000
     3 C2        5.9256   -2.4444   -0.1928   C.3       1 RES1   0.0000
     4 C3        4.7231   -3.2709    0.2808   C.3       1 RES1   0.0000
     5 C4        4.3149   -2.9331    1.7121   C.3       1 RES1   0.0000
     6 C5        3.0603   -3.6589    2.2147   C.3       1 RES1   0.0000
     7 C6        1.7092   -3.0332    1.8335   C.3       1 RES1   0.0000
     8 N1        1.5909   -1.6816    2.3636   N.ar      1 RES1   0.0000
     9 C7        2.1318   -1.3336    3.6390   C.ar      1 RES1   0.0000
    10 C8        1.1703   -1.7744    4.6659   C.ar      1 RES1   0.0000
    11 C9        0.3155   -0.7102    5.0088   C.ar      1 RES1   0.0000
    12 C10      -0.9002   -0.9572    5.6102   C.ar      1 RES1   0.0000
    13 C11      -1.2800   -2.2600    5.8809   C.ar      1 RES1   0.0000
    14 C12      -0.4135   -3.3041    5.6121   C.ar      1 RES1   0.0000
    15 C13       0.8025   -3.0702    4.9907   C.ar      1 RES1   0.0000
    16 C14       2.9888   -0.2562    3.7053   C.ar      1 RES1   0.0000
    17 C15       3.9244   -0.0812    4.8345   C.ar      1 RES1   0.0000
    18 C16       3.5031   -0.2434    6.1530   C.ar      1 RES1   0.0000
    19 C17       4.4020   -0.1231    7.1978   C.ar      1 RES1   0.0000
    20 C18       5.7357    0.1568    6.9483   C.ar      1 RES1   0.0000
    21 C19       6.1690    0.2887    5.6399   C.ar      1 RES1   0.0000
    22 C20       5.2778    0.1654    4.5882   C.ar      1 RES1   0.0000
    23 C21       2.8952    0.6923    2.6084   C.ar      1 RES1   0.0000
    24 C22       3.7603    1.7042    2.1604   C.ar      1 RES1   0.0000
    25 C23       3.4785    2.3153    0.9237   C.ar      1 RES1   0.0000
    26 C24       4.4636    2.8319    0.0062   C.ar      1 RES1   0.0000
    27 C25       4.2701    2.7102   -1.3295   C.ar      1 RES1   0.0000
    28 C26       3.0393    2.1927   -1.8745   C.ar      1 RES1   0.0000
    29 C27       2.8958    1.4319   -3.0278   C.ar      1 RES1   0.0000
    30 C28       1.6574    0.7997   -3.2817   C.ar      1 RES1   0.0000
    31 C29       1.4703   -0.3519   -4.1031   C.ar      1 RES1   0.0000
    32 C30       2.6744   -1.0809   -4.5557   C.ar      1 RES1   0.0000
    33 C31       3.4069   -0.7108   -5.6713   C.ar      1 RES1   0.0000
    34 C32       4.5563   -1.4112   -5.9960   C.ar      1 RES1   0.0000
    35 C33       4.9693   -2.4840   -5.2215   C.ar      1 RES1   0.0000
    36 C34       4.2546   -2.8294   -4.0847   C.ar      1 RES1   0.0000
    37 C35       3.1174   -2.1240   -3.7439   C.ar      1 RES1   0.0000
    38 C36       0.2200   -0.9058   -4.2399   C.ar      1 RES1   0.0000
    39 C37      -0.0830   -2.0204   -5.1551   C.ar      1 RES1   0.0000
    40 C38       0.4062   -3.3106   -4.9733   C.ar      1 RES1   0.0000
    41 C39      -0.0225   -4.3326   -5.8042   C.ar      1 RES1   0.0000
    42 C40      -0.9426   -4.0728   -6.8066   C.ar      1 RES1   0.0000
    43 C41      -1.4106   -2.7808   -7.0094   C.ar      1 RES1   0.0000
    44 C42      -0.9891   -1.7572   -6.1849   C.ar      1 RES1   0.0000
    45 N2       -0.8724   -0.4386   -3.5245   N.ar      1 RES1   0.0000
    46 C43      -2.0239   -1.3168   -3.2961   C.3       1 RES1   0.0000
    47 C44      -1.6242   -2.3297   -2.2173   C.3       1 RES1   0.0000
    48 C45      -2.7624   -3.3191   -1.9587   C.3       1 RES1   0.0000
    49 C46      -3.7089   -2.8495   -0.8502   C.3       1 RES1   0.0000
    50 C47      -5.1468   -3.3461   -1.0239   C.3       1 RES1   0.0000
    51 C48      -5.2789   -4.8668   -0.9941   C.3       1 RES1   0.0000
    52 C49      -0.7530    0.5633   -2.6383   C.ar      1 RES1   0.0000
    53 O1       -1.6701    0.8044   -1.7957   O.2       1 RES1   0.0000
    54 C50       0.5389    1.2145   -2.5185   C.ar      1 RES1   0.0000
    55 N3        0.6772    1.9124   -1.3828   N.ar      1 RES1   0.0000
    56 C51       1.9088    2.2590   -1.0105   C.ar      1 RES1   0.0000
    57 C52       2.1722    2.1912    0.4044   C.ar      1 RES1   0.0000
    58 N4        1.2149    1.4932    1.0374   N.ar      1 RES1   0.0000
    59 C53       1.6350    0.6131    1.9395   C.ar      1 RES1   0.0000
    60 C54       1.0050   -0.6907    1.7186   C.ar      1 RES1   0.0000
    61 O2        0.1817   -0.8504    0.7539   O.2       1 RES1   0.0000
    62 H1        8.0263   -2.0964    0.1122   H         1 RES1   0.0000
    63 H2        7.4802   -3.6549    0.7332   H         1 RES1   0.0000
    64 H3        7.1204   -2.1732    1.6191   H         1 RES1   0.0000
    65 H4        6.1483   -2.7262   -1.2242   H         1 RES1   0.0000
    66 H5        5.6477   -1.3848   -0.1960   H         1 RES1   0.0000
    67 H6        4.9651   -4.3323    0.2248   H         1 RES1   0.0000
    68 H7        3.8944   -3.0808   -0.4081   H         1 RES1   0.0000
    69 H8        4.1908   -1.8527    1.8024   H         1 RES1   0.0000
    70 H9        5.1364   -3.2169    2.3699   H         1 RES1   0.0000
    71 H10       3.1140   -3.7106    3.3035   H         1 RES1   0.0000
    72 H11       3.0726   -4.6811    1.8309   H         1 RES1   0.0000
    73 H12       0.9074   -3.6727    2.2125   H         1 RES1   0.0000
    74 H13       1.5996   -2.9468    0.7477   H         1 RES1   0.0000
    75 H14       0.5784    0.3051    4.7471   H         1 RES1   0.0000
    76 H15      -1.5572   -0.1354    5.8462   H         1 RES1   0.0000
    77 H16      -2.2554   -2.4655    6.2820   H         1 RES1   0.0000
    78 H17      -0.6966   -4.3136    5.8621   H         1 RES1   0.0000
    79 H18       1.4513   -3.8989    4.7593   H         1 RES1   0.0000
    80 H19       2.4647   -0.4477    6.3630   H         1 RES1   0.0000
    81 H20       4.0505   -0.2523    8.2093   H         1 RES1   0.0000
    82 H21       6.4267    0.2755    7.7678   H         1 RES1   0.0000
    83 H22       7.2100    0.4788    5.4342   H         1 RES1   0.0000
    84 H23       5.6491    0.2107    3.5752   H         1 RES1   0.0000
    85 H24       4.7015    1.9097    2.6492   H         1 RES1   0.0000
    86 H25       5.4145    3.1643    0.3877   H         1 RES1   0.0000
    87 H26       5.0710    2.9422   -2.0096   H         1 RES1   0.0000
    88 H27       3.7640    1.2113   -3.6330   H         1 RES1   0.0000
    89 H28       3.0627    0.1137   -6.2768   H         1 RES1   0.0000
    90 H29       5.1343   -1.1188   -6.8566   H         1 RES1   0.0000
    91 H30       5.8573   -3.0425   -5.4770   H         1 RES1   0.0000
    92 H31       4.5835   -3.6445   -3.4579   H         1 RES1   0.0000
    93 H32       2.5645   -2.3798   -2.8475   H         1 RES1   0.0000
    94 H33       1.0916   -3.5196   -4.1650   H         1 RES1   0.0000
    95 H34       0.3545   -5.3338   -5.6473   H         1 RES1   0.0000
    96 H35      -1.3081   -4.8789   -7.4214   H         1 RES1   0.0000
    97 H36      -2.1154   -2.5661   -7.7958   H         1 RES1   0.0000
    98 H37      -1.3556   -0.7477   -6.3144   H         1 RES1   0.0000
    99 H38      -2.2845   -1.8327   -4.2167   H         1 RES1   0.0000
   100 H39      -2.8695   -0.7117   -2.9621   H         1 RES1   0.0000
   101 H40      -1.3610   -1.7931   -1.2814   H         1 RES1   0.0000
   102 H41      -0.7379   -2.8610   -2.5720   H         1 RES1   0.0000
   103 H42      -2.3419   -4.2877   -1.6930   H         1 RES1   0.0000
   104 H43      -3.3157   -3.4589   -2.8886   H         1 RES1   0.0000
   105 H44      -3.7295   -1.7553   -0.8225   H         1 RES1   0.0000
   106 H45      -3.3338   -3.1956    0.1153   H         1 RES1   0.0000
   107 H46      -5.5536   -2.9694   -1.9658   H         1 RES1   0.0000
   108 H47      -5.7519   -2.9316   -0.2143   H         1 RES1   0.0000
   109 H48      -4.7396   -5.3304   -1.8184   H         1 RES1   0.0000
   110 H49      -6.3277   -5.1482   -1.0759   H         1 RES1   0.0000
   111 H50      -4.8906   -5.2667   -0.0588   H         1 RES1   0.0000
   112 N5       -2.2273    0.0730    1.8733   N.3       1 RES1   0.0000
   113 O3       -2.1540   -0.8617    2.5980   O.2       1 RES1   0.0000
   114 O4       -2.7711    0.0180    0.7581   O.co2     1 RES1   0.0000
   115 O5       -1.6743    1.1597    2.1461   O.co2     1 RES1   0.0000
@<TRIPOS>BOND
     1     1     8    1
     2     1    45    1
     3     1    53    1
     4     1    55    1
     5     1    58    1
     6     1    61    1
     7     1   114    1
     8     1   115    1
     9     2     3    1
    10     2    62    1
    11     2    63    1
    12     2    64    1
    13     3     4    1
    14     3    65    1
    15     3    66    1
    16     4     5    1
    17     4    67    1
    18     4    68    1
    19     5     6    1
    20     5    69    1
    21     5    70    1
    22     6     7    1
    23     6    71    1
    24     6    72    1
    25     7     8    1
    26     7    73    1
    27     7    74    1
    28     8     9    1
    29     8    60    1
    30     9    10    1
    31     9    16    2
    32    10    11    1
    33    10    15    2
    34    11    12    2
    35    11    75    1
    36    12    13    1
    37    12    76    1
    38    13    14    2
    39    13    77    1
    40    14    15    1
    41    14    78    1
    42    15    79    1
    43    16    17    1
    44    16    23    1
    45    17    18    1
    46    17    22    2
    47    18    19    2
    48    18    80    1
    49    19    20    1
    50    19    81    1
    51    20    21    2
    52    20    82    1
    53    21    22    1
    54    21    83    1
    55    22    84    1
    56    23    24    1
    57    23    59    2
    58    24    25    2
    59    24    85    1
    60    25    26    1
    61    25    57    1
    62    26    27    2
    63    26    86    1
    64    27    28    1
    65    27    87    1
    66    28    29    1
    67    28    56    2
    68    29    30    2
    69    29    88    1
    70    30    31    1
    71    30    54    1
    72    31    32    1
    73    31    38    2
    74    32    33    1
    75    32    37    2
    76    33    34    2
    77    33    89    1
    78    34    35    1
    79    34    90    1
    80    35    36    2
    81    35    91    1
    82    36    37    1
    83    36    92    1
    84    37    93    1
    85    38    39    1
    86    38    45    1
    87    39    40    1
    88    39    44    2
    89    40    41    2
    90    40    94    1
    91    41    42    1
    92    41    95    1
    93    42    43    2
    94    42    96    1
    95    43    44    1
    96    43    97    1
    97    44    98    1
    98    45    46    1
    99    45    52    1
   100    46    47    1
   101    46    99    1
   102    46   100    1
   103    47    48    1
   104    47   101    1
   105    47   102    1
   106    48    49    1
   107    48   103    1
   108    48   104    1
   109    49    50    1
   110    49   105    1
   111    49   106    1
   112    50    51    1
   113    50   107    1
   114    50   108    1
   115    51   109    1
   116    51   110    1
   117    51   111    1
   118    52    53    2
   119    52    54    1
   120    54    55    2
   121    55    56    1
   122    56    57    1
   123    57    58    2
   124    58    59    1
   125    59    60    1
   126    60    61    2
   127   112   113    2
   128   112   114    1
   129   112   115    1
@<TRIPOS>SUBSTRUCTURE
     1 RES1      115 GROUP             0 ****  ****    0  
