@<TRIPOS>MOLECULE
YEMSEP_geometry_0_nunpairedes_0_charge_2 Charge: 2 Unpaired_Electrons: 4 XTB_Unpaired_Electrons: 0 XTB_Charge: 2
   245   251     1     0     0
SMALL
NoCharges
****
Generated from Architector

@<TRIPOS>ATOM
     1 Ho1      -0.1339   -0.1435    0.0156   Ho        1 RES1   0.0000
     2 C1       -4.3215    4.4376    1.1030   C.3       1 RES1   0.0000
     3 C2       -3.5180    3.8791    2.2762   C.3       1 RES1   0.0000
     4 C3       -1.9890    3.9744    2.1467   C.3       1 RES1   0.0000
     5 C4       -1.3449    4.4604    3.4549   C.3       1 RES1   0.0000
     6 C5       -1.5727    3.6076    4.7126   C.3       1 RES1   0.0000
     7 C6       -0.4860    2.5760    5.0080   C.3       1 RES1   0.0000
     8 C7       -0.4650    1.4358    3.9953   C.3       1 RES1   0.0000
     9 C8        0.3647    0.2581    4.5147   C.3       1 RES1   0.0000
    10 P1        1.5807   -0.3096    3.2882   P.3       1 RES1   0.0000
    11 O1        1.1151   -0.5812    1.8949   O.2       1 RES1   0.0000
    12 C9        2.5036   -1.6912    4.0739   C.3       1 RES1   0.0000
    13 C10       3.0166   -2.7289    3.0783   C.3       1 RES1   0.0000
    14 C11       1.8951   -3.5995    2.4871   C.3       1 RES1   0.0000
    15 C12       1.9689   -3.6585    0.9615   C.3       1 RES1   0.0000
    16 C13       0.9226   -4.5843    0.3413   C.3       1 RES1   0.0000
    17 C14       1.0536   -4.5778   -1.1790   C.3       1 RES1   0.0000
    18 C15       0.1504   -5.5839   -1.8868   C.3       1 RES1   0.0000
    19 C16      -1.3284   -5.2337   -1.7818   C.3       1 RES1   0.0000
    20 C17       2.7009    1.1615    3.0538   C.3       1 RES1   0.0000
    21 C18       3.6344    0.7607    1.9786   C.ar      1 RES1   0.0000
    22 C19       4.8928    0.2790    2.2977   C.ar      1 RES1   0.0000
    23 C20       5.7567   -0.1418    1.3056   C.ar      1 RES1   0.0000
    24 C21       5.3226   -0.0489   -0.0050   C.ar      1 RES1   0.0000
    25 C22       4.0618    0.4337   -0.3041   C.ar      1 RES1   0.0000
    26 C23       3.6197    0.6535   -1.7019   C.3       1 RES1   0.0000
    27 P2        2.5545   -0.7303   -2.3648   P.3       1 RES1   0.0000
    28 O2        1.4929   -1.0770   -1.3605   O.2       1 RES1   0.0000
    29 C24       1.7588   -0.2122   -3.9328   C.3       1 RES1   0.0000
    30 C25       2.5841    0.1864   -5.1512   C.3       1 RES1   0.0000
    31 C26       3.4728    1.4101   -4.9313   C.3       1 RES1   0.0000
    32 C27       3.9256    2.0321   -6.2522   C.3       1 RES1   0.0000
    33 C28       4.7012    3.3394   -6.0722   C.3       1 RES1   0.0000
    34 C29       5.9697    3.2652   -5.2172   C.3       1 RES1   0.0000
    35 C30       7.1032    2.4023   -5.7841   C.3       1 RES1   0.0000
    36 C31       7.0934    0.9460   -5.3332   C.3       1 RES1   0.0000
    37 C32       3.6096   -2.1697   -2.7520   C.3       1 RES1   0.0000
    38 C33       4.9350   -1.8800   -3.4518   C.3       1 RES1   0.0000
    39 C34       5.4492   -3.1104   -4.1987   C.3       1 RES1   0.0000
    40 C35       5.6713   -4.3347   -3.3091   C.3       1 RES1   0.0000
    41 C36       6.6896   -4.1198   -2.1782   C.3       1 RES1   0.0000
    42 C37       6.0696   -3.7009   -0.8436   C.3       1 RES1   0.0000
    43 C38       7.0817   -3.6511    0.2999   C.3       1 RES1   0.0000
    44 C39       8.2245   -2.6739    0.0472   C.3       1 RES1   0.0000
    45 N1        3.2080    0.7921    0.6893   N.ar      1 RES1   0.0000
    46 O3        2.0334    1.2718    0.3800   O.co2     1 RES1   0.0000
    47 H1       -5.3415    4.6153    1.4352   H         1 RES1   0.0000
    48 H2       -4.3550    3.7594    0.2563   H         1 RES1   0.0000
    49 H3       -3.9173    5.3808    0.7430   H         1 RES1   0.0000
    50 H4       -3.8162    2.8428    2.4440   H         1 RES1   0.0000
    51 H5       -3.8246    4.4568    3.1463   H         1 RES1   0.0000
    52 H6       -1.7426    4.7340    1.3959   H         1 RES1   0.0000
    53 H7       -1.5602    3.0166    1.8285   H         1 RES1   0.0000
    54 H8       -1.7499    5.4542    3.6613   H         1 RES1   0.0000
    55 H9       -0.2706    4.5884    3.2998   H         1 RES1   0.0000
    56 H10      -2.5295    3.0900    4.6498   H         1 RES1   0.0000
    57 H11      -1.6272    4.2778    5.5744   H         1 RES1   0.0000
    58 H12      -0.6878    2.1470    5.9937   H         1 RES1   0.0000
    59 H13       0.4878    3.0705    5.0525   H         1 RES1   0.0000
    60 H14      -0.0716    1.7813    3.0282   H         1 RES1   0.0000
    61 H15      -1.4887    1.1047    3.8205   H         1 RES1   0.0000
    62 H16      -0.2631   -0.5859    4.8000   H         1 RES1   0.0000
    63 H17       0.9587    0.5415    5.3881   H         1 RES1   0.0000
    64 H18       1.8325   -2.1696    4.7898   H         1 RES1   0.0000
    65 H19       3.3178   -1.2404    4.6456   H         1 RES1   0.0000
    66 H20       3.7413   -3.3586    3.5945   H         1 RES1   0.0000
    67 H21       3.5423   -2.2216    2.2668   H         1 RES1   0.0000
    68 H22       0.9231   -3.2044    2.7785   H         1 RES1   0.0000
    69 H23       1.9611   -4.6100    2.8903   H         1 RES1   0.0000
    70 H24       2.9645   -3.9996    0.6616   H         1 RES1   0.0000
    71 H25       1.8204   -2.6476    0.5583   H         1 RES1   0.0000
    72 H26      -0.0703   -4.2374    0.6188   H         1 RES1   0.0000
    73 H27       1.0466   -5.5979    0.7265   H         1 RES1   0.0000
    74 H28       2.0918   -4.8027   -1.4361   H         1 RES1   0.0000
    75 H29       0.8262   -3.5681   -1.5365   H         1 RES1   0.0000
    76 H30       0.3187   -6.5770   -1.4692   H         1 RES1   0.0000
    77 H31       0.4339   -5.6183   -2.9400   H         1 RES1   0.0000
    78 H32      -1.7072   -5.4675   -0.7907   H         1 RES1   0.0000
    79 H33      -1.9074   -5.8030   -2.5056   H         1 RES1   0.0000
    80 H34      -1.4715   -4.1695   -1.9707   H         1 RES1   0.0000
    81 H35       3.2204    1.4286    3.9680   H         1 RES1   0.0000
    82 H36       2.0617    1.9815    2.7222   H         1 RES1   0.0000
    83 H37       5.1894    0.2507    3.3357   H         1 RES1   0.0000
    84 H38       6.7369   -0.5201    1.5465   H         1 RES1   0.0000
    85 H39       5.9817   -0.3241   -0.8121   H         1 RES1   0.0000
    86 H40       4.4852    0.7670   -2.3504   H         1 RES1   0.0000
    87 H41       2.9906    1.5456   -1.7179   H         1 RES1   0.0000
    88 H42       1.0751    0.5853   -3.6514   H         1 RES1   0.0000
    89 H43       1.1429   -1.0856   -4.1709   H         1 RES1   0.0000
    90 H44       1.8806    0.4075   -5.9600   H         1 RES1   0.0000
    91 H45       3.1953   -0.6541   -5.4811   H         1 RES1   0.0000
    92 H46       4.3539    1.1270   -4.3596   H         1 RES1   0.0000
    93 H47       2.9321    2.1577   -4.3453   H         1 RES1   0.0000
    94 H48       3.0457    2.2403   -6.8681   H         1 RES1   0.0000
    95 H49       4.5373    1.3160   -6.8022   H         1 RES1   0.0000
    96 H50       4.0352    4.0892   -5.6307   H         1 RES1   0.0000
    97 H51       4.9779    3.6988   -7.0644   H         1 RES1   0.0000
    98 H52       5.7202    2.9323   -4.2072   H         1 RES1   0.0000
    99 H53       6.3396    4.2888   -5.1271   H         1 RES1   0.0000
   100 H54       8.0493    2.8408   -5.4651   H         1 RES1   0.0000
   101 H55       7.0818    2.4482   -6.8730   H         1 RES1   0.0000
   102 H56       7.0133    0.8815   -4.2487   H         1 RES1   0.0000
   103 H57       8.0249    0.4718   -5.6301   H         1 RES1   0.0000
   104 H58       6.2769    0.3884   -5.7824   H         1 RES1   0.0000
   105 H59       2.9788   -2.7882   -3.3947   H         1 RES1   0.0000
   106 H60       3.7596   -2.7187   -1.8243   H         1 RES1   0.0000
   107 H61       5.6872   -1.5740   -2.7270   H         1 RES1   0.0000
   108 H62       4.8230   -1.0662   -4.1667   H         1 RES1   0.0000
   109 H63       6.3871   -2.8528   -4.6918   H         1 RES1   0.0000
   110 H64       4.7395   -3.3741   -4.9850   H         1 RES1   0.0000
   111 H65       6.0289   -5.1421   -3.9501   H         1 RES1   0.0000
   112 H66       4.7172   -4.6667   -2.8967   H         1 RES1   0.0000
   113 H67       7.4254   -3.3809   -2.5017   H         1 RES1   0.0000
   114 H68       7.2247   -5.0562   -2.0091   H         1 RES1   0.0000
   115 H69       5.2850   -4.4197   -0.5888   H         1 RES1   0.0000
   116 H70       5.6099   -2.7144   -0.9238   H         1 RES1   0.0000
   117 H71       7.4914   -4.6465    0.4675   H         1 RES1   0.0000
   118 H72       6.5445   -3.3573    1.2042   H         1 RES1   0.0000
   119 H73       8.9083   -3.0614   -0.7011   H         1 RES1   0.0000
   120 H74       8.7924   -2.5096    0.9590   H         1 RES1   0.0000
   121 H75       7.8513   -1.7128   -0.3017   H         1 RES1   0.0000
   122 C40      -1.5977    7.9402   -2.2235   C.3       1 RES1   0.0000
   123 C41      -1.5621    8.8751   -1.0178   C.3       1 RES1   0.0000
   124 C42      -1.0066    8.2743    0.2772   C.3       1 RES1   0.0000
   125 C43       0.5169    8.2842    0.4302   C.3       1 RES1   0.0000
   126 C44       1.3044    7.4445   -0.5766   C.3       1 RES1   0.0000
   127 C45       0.8641    5.9816   -0.6165   C.3       1 RES1   0.0000
   128 C46       1.5385    5.2436   -1.7659   C.3       1 RES1   0.0000
   129 C47       1.4204    3.7310   -1.6455   C.3       1 RES1   0.0000
   130 P3       -0.0524    2.8303   -2.2658   P.3       1 RES1   0.0000
   131 O4        0.0606    1.3870   -1.8646   O.2       1 RES1   0.0000
   132 C48       0.0090    3.1486   -4.0791   C.3       1 RES1   0.0000
   133 C49      -1.1745    2.6544   -4.8992   C.3       1 RES1   0.0000
   134 C50      -1.3768    1.1408   -4.8414   C.3       1 RES1   0.0000
   135 C51      -2.7666    0.6952   -5.3021   C.3       1 RES1   0.0000
   136 C52      -3.1569    1.1343   -6.7203   C.3       1 RES1   0.0000
   137 C53      -3.9520    2.4385   -6.7546   C.3       1 RES1   0.0000
   138 C54      -4.3686    2.8318   -8.1707   C.3       1 RES1   0.0000
   139 C55      -4.9224    4.2504   -8.2080   C.3       1 RES1   0.0000
   140 C56      -1.6190    3.6164   -1.6373   C.3       1 RES1   0.0000
   141 C57      -2.7990    2.7219   -1.7678   C.ar      1 RES1   0.0000
   142 C58      -3.8311    2.9486   -2.6592   C.ar      1 RES1   0.0000
   143 C59      -4.9520    2.1333   -2.6419   C.ar      1 RES1   0.0000
   144 C60      -5.0136    1.1181   -1.7049   C.ar      1 RES1   0.0000
   145 C61      -3.9733    0.9208   -0.8141   C.ar      1 RES1   0.0000
   146 C62      -4.0311   -0.1171    0.2374   C.3       1 RES1   0.0000
   147 P4       -3.1927   -1.6369   -0.4450   P.3       1 RES1   0.0000
   148 O5       -1.8978   -1.2046   -1.0830   O.2       1 RES1   0.0000
   149 C63      -3.2150   -3.0215    0.7953   C.3       1 RES1   0.0000
   150 C64      -4.4948   -3.2792    1.6112   C.3       1 RES1   0.0000
   151 C65      -4.4176   -2.9356    3.1086   C.3       1 RES1   0.0000
   152 C66      -5.0143   -1.5643    3.4316   C.3       1 RES1   0.0000
   153 C67      -5.3507   -1.3643    4.9208   C.3       1 RES1   0.0000
   154 C68      -4.4473   -0.3553    5.6267   C.3       1 RES1   0.0000
   155 C69      -3.0605   -0.9092    5.9492   C.3       1 RES1   0.0000
   156 C70      -3.1044   -1.9221    7.0862   C.3       1 RES1   0.0000
   157 C71      -4.2719   -2.2718   -1.7897   C.3       1 RES1   0.0000
   158 C72      -5.6717   -2.7337   -1.4008   C.3       1 RES1   0.0000
   159 C73      -6.5481   -2.8738   -2.6448   C.3       1 RES1   0.0000
   160 C74      -8.0256   -3.1204   -2.3231   C.3       1 RES1   0.0000
   161 C75      -8.8726   -1.8474   -2.2388   C.3       1 RES1   0.0000
   162 C76      -8.7115   -0.9670   -0.9958   C.3       1 RES1   0.0000
   163 C77      -9.3067   -1.5363    0.2978   C.3       1 RES1   0.0000
   164 C78      -8.3477   -2.3746    1.1342   C.3       1 RES1   0.0000
   165 N2       -2.8562    1.6853   -0.8934   N.ar      1 RES1   0.0000
   166 O6       -1.8703    1.5034   -0.0691   O.co2     1 RES1   0.0000
   167 H76      -2.1480    8.4169   -3.0313   H         1 RES1   0.0000
   168 H77      -2.1064    7.0104   -1.9698   H         1 RES1   0.0000
   169 H78      -0.6022    7.7093   -2.5898   H         1 RES1   0.0000
   170 H79      -2.5875    9.1916   -0.8166   H         1 RES1   0.0000
   171 H80      -0.9938    9.7702   -1.2709   H         1 RES1   0.0000
   172 H81      -1.3885    7.2597    0.4037   H         1 RES1   0.0000
   173 H82      -1.4039    8.8605    1.1086   H         1 RES1   0.0000
   174 H83       0.7514    7.9387    1.4413   H         1 RES1   0.0000
   175 H84       0.8657    9.3148    0.3511   H         1 RES1   0.0000
   176 H85       2.3640    7.4900   -0.3066   H         1 RES1   0.0000
   177 H86       1.2064    7.8818   -1.5719   H         1 RES1   0.0000
   178 H87      -0.2164    5.9291   -0.7348   H         1 RES1   0.0000
   179 H88       1.1220    5.4977    0.3279   H         1 RES1   0.0000
   180 H89       2.6031    5.4835   -1.7590   H         1 RES1   0.0000
   181 H90       1.1402    5.6046   -2.7147   H         1 RES1   0.0000
   182 H91       1.5546    3.4170   -0.6071   H         1 RES1   0.0000
   183 H92       2.2149    3.2628   -2.2355   H         1 RES1   0.0000
   184 H93       0.9384    2.7116   -4.4439   H         1 RES1   0.0000
   185 H94       0.1066    4.2321   -4.1814   H         1 RES1   0.0000
   186 H95      -1.0159    2.9635   -5.9334   H         1 RES1   0.0000
   187 H96      -2.0754    3.1471   -4.5427   H         1 RES1   0.0000
   188 H97      -1.2386    0.7935   -3.8123   H         1 RES1   0.0000
   189 H98      -0.6283    0.6552   -5.4698   H         1 RES1   0.0000
   190 H99      -3.5099    1.0682   -4.5947   H         1 RES1   0.0000
   191 H100     -2.7872   -0.3943   -5.2477   H         1 RES1   0.0000
   192 H101     -3.7684    0.3562   -7.1809   H         1 RES1   0.0000
   193 H102     -2.2582    1.2370   -7.3302   H         1 RES1   0.0000
   194 H103     -3.3564    3.2496   -6.3356   H         1 RES1   0.0000
   195 H104     -4.8444    2.3255   -6.1338   H         1 RES1   0.0000
   196 H105     -5.1215    2.1347   -8.5406   H         1 RES1   0.0000
   197 H106     -3.5034    2.7681   -8.8333   H         1 RES1   0.0000
   198 H107     -5.7698    4.3532   -7.5344   H         1 RES1   0.0000
   199 H108     -5.2545    4.5089   -9.2085   H         1 RES1   0.0000
   200 H109     -4.1585    4.9660   -7.9110   H         1 RES1   0.0000
   201 H110     -1.7865    4.5548   -2.1677   H         1 RES1   0.0000
   202 H111     -1.4607    3.7932   -0.5665   H         1 RES1   0.0000
   203 H112     -3.7690    3.7668   -3.3632   H         1 RES1   0.0000
   204 H113     -5.7687    2.2961   -3.3255   H         1 RES1   0.0000
   205 H114     -5.8908    0.4930   -1.6346   H         1 RES1   0.0000
   206 H115     -5.0565   -0.3666    0.4947   H         1 RES1   0.0000
   207 H116     -3.4881    0.2158    1.1238   H         1 RES1   0.0000
   208 H117     -2.3745   -2.9984    1.4787   H         1 RES1   0.0000
   209 H118     -3.0295   -3.8665    0.1221   H         1 RES1   0.0000
   210 H119     -4.7045   -4.3460    1.5270   H         1 RES1   0.0000
   211 H120     -5.3500   -2.7583    1.1854   H         1 RES1   0.0000
   212 H121     -3.3896   -3.0015    3.4703   H         1 RES1   0.0000
   213 H122     -4.9914   -3.6903    3.6487   H         1 RES1   0.0000
   214 H123     -5.9428   -1.4570    2.8628   H         1 RES1   0.0000
   215 H124     -4.3279   -0.7802    3.1021   H         1 RES1   0.0000
   216 H125     -5.2887   -2.3180    5.4442   H         1 RES1   0.0000
   217 H126     -6.3840   -1.0213    5.0040   H         1 RES1   0.0000
   218 H127     -4.9243   -0.0435    6.5584   H         1 RES1   0.0000
   219 H128     -4.3548    0.5317    4.9952   H         1 RES1   0.0000
   220 H129     -2.4186   -0.0757    6.2449   H         1 RES1   0.0000
   221 H130     -2.6272   -1.3690    5.0584   H         1 RES1   0.0000
   222 H131     -3.5788   -1.4809    7.9586   H         1 RES1   0.0000
   223 H132     -2.1010   -2.2346    7.3607   H         1 RES1   0.0000
   224 H133     -3.6673   -2.8095    6.8122   H         1 RES1   0.0000
   225 H134     -3.7147   -3.0990   -2.2364   H         1 RES1   0.0000
   226 H135     -4.3355   -1.4828   -2.5442   H         1 RES1   0.0000
   227 H136     -6.1295   -2.0161   -0.7224   H         1 RES1   0.0000
   228 H137     -5.6254   -3.6967   -0.8893   H         1 RES1   0.0000
   229 H138     -6.1621   -3.7048   -3.2374   H         1 RES1   0.0000
   230 H139     -6.4629   -1.9699   -3.2550   H         1 RES1   0.0000
   231 H140     -8.1161   -3.6971   -1.4039   H         1 RES1   0.0000
   232 H141     -8.4492   -3.7299   -3.1224   H         1 RES1   0.0000
   233 H142     -9.9231   -2.1377   -2.3055   H         1 RES1   0.0000
   234 H143     -8.6523   -1.2365   -3.1208   H         1 RES1   0.0000
   235 H144     -9.2250   -0.0279   -1.2177   H         1 RES1   0.0000
   236 H145     -7.6596   -0.7193   -0.8363   H         1 RES1   0.0000
   237 H146    -10.1916   -2.1256    0.0576   H         1 RES1   0.0000
   238 H147     -9.6340   -0.6969    0.9134   H         1 RES1   0.0000
   239 H148     -8.0935   -3.3123    0.6495   H         1 RES1   0.0000
   240 H149     -8.8018   -2.6096    2.0932   H         1 RES1   0.0000
   241 H150     -7.4312   -1.8173    1.3253   H         1 RES1   0.0000
   242 N3       -0.9088   -1.4458    1.9290   N.3       1 RES1   0.0000
   243 O7       -0.8713   -1.9359    3.0219   O.2       1 RES1   0.0000
   244 O8       -0.5491   -2.0593    0.9389   O.co2     1 RES1   0.0000
   245 O9       -1.4405   -0.3466    1.7696   O.co2     1 RES1   0.0000
@<TRIPOS>BOND
     1     1    11    1
     2     1    28    1
     3     1    46    1
     4     1   131    1
     5     1   148    1
     6     1   166    1
     7     1   244    1
     8     1   245    1
     9     2     3    1
    10     2    47    1
    11     2    48    1
    12     2    49    1
    13     3     4    1
    14     3    50    1
    15     3    51    1
    16     4     5    1
    17     4    52    1
    18     4    53    1
    19     5     6    1
    20     5    54    1
    21     5    55    1
    22     6     7    1
    23     6    56    1
    24     6    57    1
    25     7     8    1
    26     7    58    1
    27     7    59    1
    28     8     9    1
    29     8    60    1
    30     8    61    1
    31     9    10    1
    32     9    62    1
    33     9    63    1
    34    10    11    2
    35    10    12    1
    36    10    20    1
    37    12    13    1
    38    12    64    1
    39    12    65    1
    40    13    14    1
    41    13    66    1
    42    13    67    1
    43    14    15    1
    44    14    68    1
    45    14    69    1
    46    15    16    1
    47    15    70    1
    48    15    71    1
    49    16    17    1
    50    16    72    1
    51    16    73    1
    52    17    18    1
    53    17    74    1
    54    17    75    1
    55    18    19    1
    56    18    76    1
    57    18    77    1
    58    19    78    1
    59    19    79    1
    60    19    80    1
    61    20    21    1
    62    20    81    1
    63    20    82    1
    64    21    22    1
    65    21    45    2
    66    22    23    2
    67    22    83    1
    68    23    24    1
    69    23    84    1
    70    24    25    2
    71    24    85    1
    72    25    26    1
    73    25    45    1
    74    26    27    1
    75    26    86    1
    76    26    87    1
    77    27    28    2
    78    27    29    1
    79    27    37    1
    80    29    30    1
    81    29    88    1
    82    29    89    1
    83    30    31    1
    84    30    90    1
    85    30    91    1
    86    31    32    1
    87    31    92    1
    88    31    93    1
    89    32    33    1
    90    32    94    1
    91    32    95    1
    92    33    34    1
    93    33    96    1
    94    33    97    1
    95    34    35    1
    96    34    98    1
    97    34    99    1
    98    35    36    1
    99    35   100    1
   100    35   101    1
   101    36   102    1
   102    36   103    1
   103    36   104    1
   104    37    38    1
   105    37   105    1
   106    37   106    1
   107    38    39    1
   108    38   107    1
   109    38   108    1
   110    39    40    1
   111    39   109    1
   112    39   110    1
   113    40    41    1
   114    40   111    1
   115    40   112    1
   116    41    42    1
   117    41   113    1
   118    41   114    1
   119    42    43    1
   120    42   115    1
   121    42   116    1
   122    43    44    1
   123    43   117    1
   124    43   118    1
   125    44   119    1
   126    44   120    1
   127    44   121    1
   128    45    46    1
   129   122   123    1
   130   122   167    1
   131   122   168    1
   132   122   169    1
   133   123   124    1
   134   123   170    1
   135   123   171    1
   136   124   125    1
   137   124   172    1
   138   124   173    1
   139   125   126    1
   140   125   174    1
   141   125   175    1
   142   126   127    1
   143   126   176    1
   144   126   177    1
   145   127   128    1
   146   127   178    1
   147   127   179    1
   148   128   129    1
   149   128   180    1
   150   128   181    1
   151   129   130    1
   152   129   182    1
   153   129   183    1
   154   130   131    2
   155   130   132    1
   156   130   140    1
   157   132   133    1
   158   132   184    1
   159   132   185    1
   160   133   134    1
   161   133   186    1
   162   133   187    1
   163   134   135    1
   164   134   188    1
   165   134   189    1
   166   135   136    1
   167   135   190    1
   168   135   191    1
   169   136   137    1
   170   136   192    1
   171   136   193    1
   172   137   138    1
   173   137   194    1
   174   137   195    1
   175   138   139    1
   176   138   196    1
   177   138   197    1
   178   139   198    1
   179   139   199    1
   180   139   200    1
   181   140   141    1
   182   140   201    1
   183   140   202    1
   184   141   142    1
   185   141   165    2
   186   142   143    2
   187   142   203    1
   188   143   144    1
   189   143   204    1
   190   144   145    2
   191   144   205    1
   192   145   146    1
   193   145   165    1
   194   146   147    1
   195   146   206    1
   196   146   207    1
   197   147   148    2
   198   147   149    1
   199   147   157    1
   200   149   150    1
   201   149   208    1
   202   149   209    1
   203   150   151    1
   204   150   210    1
   205   150   211    1
   206   151   152    1
   207   151   212    1
   208   151   213    1
   209   152   153    1
   210   152   214    1
   211   152   215    1
   212   153   154    1
   213   153   216    1
   214   153   217    1
   215   154   155    1
   216   154   218    1
   217   154   219    1
   218   155   156    1
   219   155   220    1
   220   155   221    1
   221   156   222    1
   222   156   223    1
   223   156   224    1
   224   157   158    1
   225   157   225    1
   226   157   226    1
   227   158   159    1
   228   158   227    1
   229   158   228    1
   230   159   160    1
   231   159   229    1
   232   159   230    1
   233   160   161    1
   234   160   231    1
   235   160   232    1
   236   161   162    1
   237   161   233    1
   238   161   234    1
   239   162   163    1
   240   162   235    1
   241   162   236    1
   242   163   164    1
   243   163   237    1
   244   163   238    1
   245   164   239    1
   246   164   240    1
   247   164   241    1
   248   165   166    1
   249   242   243    2
   250   242   244    1
   251   242   245    1
@<TRIPOS>SUBSTRUCTURE
     1 RES1      245 GROUP             0 ****  ****    0  
