@<TRIPOS>MOLECULE
ICIGOT_geomtry_0_nunpairedes_0_charge_3 Charge: 3 Unpaired_Electrons: 4 XTB_Unpaired_Electrons: 0 XTB_Charge: 3
   117   130     1     0     0
SMALL
NoCharges
****
Generated from Architector

@<TRIPOS>ATOM
     1 Ho1      -0.7475    0.3199   -0.0618   Ho        1 RES1   0.0000
     2 C1        5.5041   -6.2984   -0.8356   C.3       1 RES1   0.0000
     3 C2        4.2861   -5.5193   -0.3386   C.3       1 RES1   0.0000
     4 C3        4.7503   -4.1261    0.0882   C.3       1 RES1   0.0000
     5 C4        3.7281   -3.0517    0.5129   C.3       1 RES1   0.0000
     6 C5        2.3269   -3.1136   -0.0969   C.3       1 RES1   0.0000
     7 C6        2.2607   -2.9780   -1.6252   C.3       1 RES1   0.0000
     8 N1        2.1671   -1.6205   -2.1771   N.ar      1 RES1   0.0000
     9 C7        3.1166   -1.1801   -3.0785   C.ar      1 RES1   0.0000
    10 C8        4.4220   -1.8767   -3.0736   C.ar      1 RES1   0.0000
    11 C9        4.7309   -2.9179   -3.9403   C.ar      1 RES1   0.0000
    12 C10       5.9724   -3.5257   -3.8676   C.ar      1 RES1   0.0000
    13 C11       6.9050   -3.1047   -2.9354   C.ar      1 RES1   0.0000
    14 C12       6.6062   -2.0556   -2.0832   C.ar      1 RES1   0.0000
    15 C13       5.3694   -1.4371   -2.1474   C.ar      1 RES1   0.0000
    16 C14       2.9099   -0.0887   -3.8972   C.ar      1 RES1   0.0000
    17 C15       3.7400    0.1506   -5.0851   C.ar      1 RES1   0.0000
    18 C16       5.1322    0.1822   -5.0811   C.ar      1 RES1   0.0000
    19 C17       5.8264    0.2790   -6.2727   C.ar      1 RES1   0.0000
    20 C18       5.1445    0.3489   -7.4790   C.ar      1 RES1   0.0000
    21 C19       3.7581    0.3337   -7.4895   C.ar      1 RES1   0.0000
    22 C20       3.0580    0.2418   -6.3035   C.ar      1 RES1   0.0000
    23 C21       1.7947    0.7654   -3.6380   C.ar      1 RES1   0.0000
    24 C22       1.6104    2.0514   -4.1797   C.ar      1 RES1   0.0000
    25 C23       0.7653    2.9481   -3.5333   C.ar      1 RES1   0.0000
    26 C24       0.8065    4.3668   -3.7395   C.ar      1 RES1   0.0000
    27 C25       0.5103    5.2027   -2.7175   C.ar      1 RES1   0.0000
    28 C26       0.1276    4.6654   -1.4370   C.ar      1 RES1   0.0000
    29 C27       0.6162    5.2482   -0.2410   C.ar      1 RES1   0.0000
    30 C28       0.8600    4.3742    0.8125   C.ar      1 RES1   0.0000
    31 C29       1.9993    4.3164    1.7004   C.ar      1 RES1   0.0000
    32 C30       2.7150    5.4416    2.1413   C.ar      1 RES1   0.0000
    33 C31       4.0399    5.3798    2.6493   C.ar      1 RES1   0.0000
    34 C32       4.7032    6.5254    3.0183   C.ar      1 RES1   0.0000
    35 C33       4.0734    7.7682    2.9420   C.ar      1 RES1   0.0000
    36 C34       2.7708    7.8527    2.4553   C.ar      1 RES1   0.0000
    37 C35       2.0984    6.7225    2.0665   C.ar      1 RES1   0.0000
    38 C36       2.3625    2.8707    1.8396   C.ar      1 RES1   0.0000
    39 C37       3.6837    2.5822    1.2238   C.ar      1 RES1   0.0000
    40 C38       4.7045    1.8123    1.7732   C.ar      1 RES1   0.0000
    41 C39       5.9028    1.6476    1.0989   C.ar      1 RES1   0.0000
    42 C40       6.1271    2.2931   -0.1062   C.ar      1 RES1   0.0000
    43 C41       5.1312    3.0912   -0.6517   C.ar      1 RES1   0.0000
    44 C42       3.9184    3.2184   -0.0051   C.ar      1 RES1   0.0000
    45 N2        1.5565    2.1120    2.7934   N.ar      1 RES1   0.0000
    46 C43       1.9910    0.8658    3.4032   C.3       1 RES1   0.0000
    47 C44       1.3069    0.6648    4.7676   C.3       1 RES1   0.0000
    48 C45       2.3152    0.2441    5.8425   C.3       1 RES1   0.0000
    49 C46       3.4642    1.2554    6.0046   C.3       1 RES1   0.0000
    50 C47       4.8264    0.6968    5.5826   C.3       1 RES1   0.0000
    51 C48       5.8879    1.7773    5.4158   C.3       1 RES1   0.0000
    52 C49       1.0667    2.0286    1.4499   C.ar      1 RES1   0.0000
    53 O1        1.0487    0.8552    0.8153   O.2       1 RES1   0.0000
    54 C50       0.2459    3.0854    0.7835   C.ar      1 RES1   0.0000
    55 N3       -0.5867    2.6917   -0.1726   N.ar      1 RES1   0.0000
    56 C51      -0.3698    3.3570   -1.3804   C.ar      1 RES1   0.0000
    57 C52      -0.0087    2.4618   -2.4376   C.ar      1 RES1   0.0000
    58 N4       -0.0475    1.1573   -2.1168   N.ar      1 RES1   0.0000
    59 C53       0.8970    0.3547   -2.6257   C.ar      1 RES1   0.0000
    60 C54       1.0414   -0.9206   -1.9476   C.ar      1 RES1   0.0000
    61 O2        0.1491   -1.3214   -1.1251   O.2       1 RES1   0.0000
    62 H1        6.2158   -6.4605   -0.0267   H         1 RES1   0.0000
    63 H2        6.0175   -5.7274   -1.6110   H         1 RES1   0.0000
    64 H3        5.2323   -7.2674   -1.2500   H         1 RES1   0.0000
    65 H4        3.8228   -6.0550    0.4931   H         1 RES1   0.0000
    66 H5        3.5551   -5.4709   -1.1476   H         1 RES1   0.0000
    67 H6        5.3465   -3.7279   -0.7357   H         1 RES1   0.0000
    68 H7        5.4406   -4.2669    0.9252   H         1 RES1   0.0000
    69 H8        4.1639   -2.0792    0.2757   H         1 RES1   0.0000
    70 H9        3.6063   -3.1064    1.5958   H         1 RES1   0.0000
    71 H10       1.7053   -2.3331    0.3642   H         1 RES1   0.0000
    72 H11       1.8895   -4.0789    0.1631   H         1 RES1   0.0000
    73 H12       1.3601   -3.4949   -1.9717   H         1 RES1   0.0000
    74 H13       3.1459   -3.4247   -2.0705   H         1 RES1   0.0000
    75 H14       3.9980   -3.2569   -4.6557   H         1 RES1   0.0000
    76 H15       6.2052   -4.3323   -4.5396   H         1 RES1   0.0000
    77 H16       7.8607   -3.5979   -2.8740   H         1 RES1   0.0000
    78 H17       7.3356   -1.7231   -1.3644   H         1 RES1   0.0000
    79 H18       5.1248   -0.6127   -1.4901   H         1 RES1   0.0000
    80 H19       5.6649    0.1456   -4.1454   H         1 RES1   0.0000
    81 H20       6.9035    0.3088   -6.2639   H         1 RES1   0.0000
    82 H21       5.6838    0.4144   -8.4096   H         1 RES1   0.0000
    83 H22       3.2168    0.3960   -8.4217   H         1 RES1   0.0000
    84 H23       1.9787    0.1853   -6.3166   H         1 RES1   0.0000
    85 H24       2.2132    2.3918   -5.0108   H         1 RES1   0.0000
    86 H25       1.2074    4.7479   -4.6637   H         1 RES1   0.0000
    87 H26       0.6908    6.2659   -2.7767   H         1 RES1   0.0000
    88 H27       1.0889    6.2167   -0.3127   H         1 RES1   0.0000
    89 H28       4.5291    4.4233    2.7067   H         1 RES1   0.0000
    90 H29       5.7209    6.4788    3.3719   H         1 RES1   0.0000
    91 H30       4.5755    8.6613    3.2908   H         1 RES1   0.0000
    92 H31       2.2902    8.8165    2.4000   H         1 RES1   0.0000
    93 H32       1.0641    6.7901    1.7770   H         1 RES1   0.0000
    94 H33       4.5961    1.3583    2.7410   H         1 RES1   0.0000
    95 H34       6.6730    1.0308    1.5415   H         1 RES1   0.0000
    96 H35       7.0715    2.1780   -0.6181   H         1 RES1   0.0000
    97 H36       5.3101    3.6332   -1.5722   H         1 RES1   0.0000
    98 H37       3.1329    3.8102   -0.4566   H         1 RES1   0.0000
    99 H38       3.0574    0.9076    3.5852   H         1 RES1   0.0000
   100 H39       1.8054    0.0348    2.7059   H         1 RES1   0.0000
   101 H40       0.5200   -0.0882    4.6849   H         1 RES1   0.0000
   102 H41       0.8376    1.6042    5.0604   H         1 RES1   0.0000
   103 H42       2.7148   -0.7428    5.6050   H         1 RES1   0.0000
   104 H43       1.7729    0.1408    6.7805   H         1 RES1   0.0000
   105 H44       3.5428    1.5734    7.0436   H         1 RES1   0.0000
   106 H45       3.2293    2.1534    5.4270   H         1 RES1   0.0000
   107 H46       4.7340    0.1321    4.6501   H         1 RES1   0.0000
   108 H47       5.1657   -0.0162    6.3331   H         1 RES1   0.0000
   109 H48       5.6100    2.4991    4.6468   H         1 RES1   0.0000
   110 H49       6.8369    1.3267    5.1368   H         1 RES1   0.0000
   111 H50       6.0383    2.3184    6.3454   H         1 RES1   0.0000
   112 O3       -1.6998   -0.1620    2.0805   O.3       1 RES1   0.0000
   113 H51      -2.6427   -0.0389    2.2927   H         1 RES1   0.0000
   114 H52      -1.3315   -0.6208    2.8539   H         1 RES1   0.0000
   115 O4       -2.9601   -0.7350   -0.6744   O.3       1 RES1   0.0000
   116 H53      -3.1588   -1.6851   -0.5980   H         1 RES1   0.0000
   117 H54      -3.6129   -0.4227   -1.3240   H         1 RES1   0.0000
@<TRIPOS>BOND
     1     1     8    1
     2     1    45    1
     3     1    53    1
     4     1    55    1
     5     1    58    1
     6     1    61    1
     7     1   112    1
     8     1   115    1
     9     2     3    1
    10     2    62    1
    11     2    63    1
    12     2    64    1
    13     3     4    1
    14     3    65    1
    15     3    66    1
    16     4     5    1
    17     4    67    1
    18     4    68    1
    19     5     6    1
    20     5    69    1
    21     5    70    1
    22     6     7    1
    23     6    71    1
    24     6    72    1
    25     7     8    1
    26     7    73    1
    27     7    74    1
    28     8     9    1
    29     8    60    1
    30     9    10    1
    31     9    16    2
    32    10    11    1
    33    10    15    2
    34    11    12    2
    35    11    75    1
    36    12    13    1
    37    12    76    1
    38    13    14    2
    39    13    77    1
    40    14    15    1
    41    14    78    1
    42    15    79    1
    43    16    17    1
    44    16    23    1
    45    17    18    1
    46    17    22    2
    47    18    19    2
    48    18    80    1
    49    19    20    1
    50    19    81    1
    51    20    21    2
    52    20    82    1
    53    21    22    1
    54    21    83    1
    55    22    84    1
    56    23    24    1
    57    23    59    2
    58    24    25    2
    59    24    85    1
    60    25    26    1
    61    25    57    1
    62    26    27    2
    63    26    86    1
    64    27    28    1
    65    27    87    1
    66    28    29    1
    67    28    56    2
    68    29    30    2
    69    29    88    1
    70    30    31    1
    71    30    54    1
    72    31    32    1
    73    31    38    2
    74    32    33    1
    75    32    37    2
    76    33    34    2
    77    33    89    1
    78    34    35    1
    79    34    90    1
    80    35    36    2
    81    35    91    1
    82    36    37    1
    83    36    92    1
    84    37    93    1
    85    38    39    1
    86    38    45    1
    87    39    40    1
    88    39    44    2
    89    40    41    2
    90    40    94    1
    91    41    42    1
    92    41    95    1
    93    42    43    2
    94    42    96    1
    95    43    44    1
    96    43    97    1
    97    44    98    1
    98    45    46    1
    99    45    52    1
   100    46    47    1
   101    46    99    1
   102    46   100    1
   103    47    48    1
   104    47   101    1
   105    47   102    1
   106    48    49    1
   107    48   103    1
   108    48   104    1
   109    49    50    1
   110    49   105    1
   111    49   106    1
   112    50    51    1
   113    50   107    1
   114    50   108    1
   115    51   109    1
   116    51   110    1
   117    51   111    1
   118    52    53    2
   119    52    54    1
   120    54    55    2
   121    55    56    1
   122    56    57    1
   123    57    58    2
   124    58    59    1
   125    59    60    1
   126    60    61    2
   127   112   113    1
   128   112   114    1
   129   115   116    1
   130   115   117    1
@<TRIPOS>SUBSTRUCTURE
     1 RES1      117 GROUP             0 ****  ****    0  
