@<TRIPOS>MOLECULE
ICIGOT_geomtry_0_nunpairedes_0_charge_3 Charge: 3 Unpaired_Electrons: 4 XTB_Unpaired_Electrons: 0 XTB_Charge: 3
   221   224     1     0     0
SMALL
NoCharges
****
Generated from Architector

@<TRIPOS>ATOM
     1 Ho1      -0.6077    0.2263    0.0465   Ho        1 RES1   0.0000
     2 C1        5.1781    2.5468    1.7050   C.3       1 RES1   0.0000
     3 C2        4.8246    1.1313    2.1714   C.3       1 RES1   0.0000
     4 C3        5.6646    0.0139    1.5238   C.3       1 RES1   0.0000
     5 C4        5.7612   -0.0444   -0.0193   C.3       1 RES1   0.0000
     6 C5        5.0983   -1.2712   -0.6660   C.3       1 RES1   0.0000
     7 C6        5.1981   -1.2391   -2.1984   C.3       1 RES1   0.0000
     8 C7        4.5531   -2.3713   -3.0462   C.3       1 RES1   0.0000
     9 C8        4.8728   -3.7636   -2.4655   C.3       1 RES1   0.0000
    10 C9        4.0007   -4.3006   -1.3163   C.3       1 RES1   0.0000
    11 C10       4.8396   -5.0543   -0.2778   C.3       1 RES1   0.0000
    12 C11       3.9786   -5.7349    0.7870   C.3       1 RES1   0.0000
    13 C12       3.0644   -2.2854   -3.4993   C.3       1 RES1   0.0000
    14 C13       2.4913   -0.8742   -3.7071   C.3       1 RES1   0.0000
    15 C14       1.2606   -0.7604   -4.6190   C.3       1 RES1   0.0000
    16 N1       -0.0662   -1.0973   -4.0703   N.am      1 RES1   0.0000
    17 C15      -0.7829   -2.0357   -4.9177   C.3       1 RES1   0.0000
    18 C16      -0.6253   -0.4319   -3.0630   C.2       1 RES1   0.0000
    19 O1       -0.0263    0.3824   -2.3258   O.2       1 RES1   0.0000
    20 C17      -2.1265   -0.6505   -2.7535   C.3       1 RES1   0.0000
    21 O2       -2.3716   -0.1803   -1.4275   O.3       1 RES1   0.0000
    22 C18      -3.6627    0.3876   -1.1561   C.3       1 RES1   0.0000
    23 C19      -3.4469    1.3728    0.0080   C.2       1 RES1   0.0000
    24 O3       -2.2562    1.5432    0.3566   O.2       1 RES1   0.0000
    25 N2       -4.4401    2.0386    0.5634   N.am      1 RES1   0.0000
    26 C20      -5.8281    1.9751    0.1513   C.3       1 RES1   0.0000
    27 C21      -4.1147    3.1106    1.5207   C.3       1 RES1   0.0000
    28 C22      -3.2284    2.6616    2.6916   C.3       1 RES1   0.0000
    29 C23      -3.7848    2.9456    4.0929   C.3       1 RES1   0.0000
    30 C24      -4.7168    1.8456    4.6368   C.3       1 RES1   0.0000
    31 C25      -6.1213    1.8782    4.0328   C.3       1 RES1   0.0000
    32 C26      -6.8818    3.1717    4.3187   C.3       1 RES1   0.0000
    33 C27      -8.3772    3.0628    4.0096   C.3       1 RES1   0.0000
    34 C28      -9.1239    2.1911    5.0155   C.3       1 RES1   0.0000
    35 C29      -4.0520    0.4752    4.4247   C.3       1 RES1   0.0000
    36 C30      -4.5381   -0.6633    5.3147   C.3       1 RES1   0.0000
    37 C31      -3.7778   -1.9622    5.0346   C.3       1 RES1   0.0000
    38 C32      -4.0450   -2.5688    3.6548   C.3       1 RES1   0.0000
    39 C33      -3.6437   -4.0432    3.6001   C.3       1 RES1   0.0000
    40 C34      -3.8255   -4.6350    2.2070   C.3       1 RES1   0.0000
    41 H1        6.0074    2.9211    2.2921   H         1 RES1   0.0000
    42 H2        4.3403    3.2274    1.8481   H         1 RES1   0.0000
    43 H3        5.4705    2.6025    0.6584   H         1 RES1   0.0000
    44 H4        3.7521    0.9615    2.0401   H         1 RES1   0.0000
    45 H5        5.0028    1.0704    3.2489   H         1 RES1   0.0000
    46 H6        5.3026   -0.9485    1.8991   H         1 RES1   0.0000
    47 H7        6.6674    0.1608    1.9164   H         1 RES1   0.0000
    48 H8        6.8180   -0.0467   -0.2778   H         1 RES1   0.0000
    49 H9        5.3595    0.8652   -0.4603   H         1 RES1   0.0000
    50 H10       4.0506   -1.3162   -0.3705   H         1 RES1   0.0000
    51 H11       5.5811   -2.1643   -0.2750   H         1 RES1   0.0000
    52 H12       6.2576   -1.2977   -2.4531   H         1 RES1   0.0000
    53 H13       4.8464   -0.2649   -2.5505   H         1 RES1   0.0000
    54 H14       5.1121   -2.3223   -3.9871   H         1 RES1   0.0000
    55 H15       5.9114   -3.7249   -2.1404   H         1 RES1   0.0000
    56 H16       4.8311   -4.4891   -3.2772   H         1 RES1   0.0000
    57 H17       3.2495   -4.9802   -1.7220   H         1 RES1   0.0000
    58 H18       3.4654   -3.4964   -0.7992   H         1 RES1   0.0000
    59 H19       5.5176   -4.3469    0.2077   H         1 RES1   0.0000
    60 H20       5.4549   -5.8072   -0.7709   H         1 RES1   0.0000
    61 H21       3.1112   -5.1225    1.0278   H         1 RES1   0.0000
    62 H22       4.5525   -5.8981    1.6955   H         1 RES1   0.0000
    63 H23       3.6230   -6.7051    0.4505   H         1 RES1   0.0000
    64 H24       2.4364   -2.8839   -2.8359   H         1 RES1   0.0000
    65 H25       3.0264   -2.8004   -4.4641   H         1 RES1   0.0000
    66 H26       3.2608   -0.2788   -4.1961   H         1 RES1   0.0000
    67 H27       2.2540   -0.3828   -2.7698   H         1 RES1   0.0000
    68 H28       1.4148   -1.4169   -5.4733   H         1 RES1   0.0000
    69 H29       1.2118    0.2690   -4.9855   H         1 RES1   0.0000
    70 H30      -0.9517   -1.5950   -5.9012   H         1 RES1   0.0000
    71 H31      -1.7428   -2.3204   -4.5056   H         1 RES1   0.0000
    72 H32      -0.1882   -2.9415   -5.0514   H         1 RES1   0.0000
    73 H33      -2.4248   -1.7024   -2.7963   H         1 RES1   0.0000
    74 H34      -2.6910   -0.0653   -3.4873   H         1 RES1   0.0000
    75 H35      -4.3667   -0.4192   -0.9174   H         1 RES1   0.0000
    76 H36      -4.0223    0.9698   -2.0117   H         1 RES1   0.0000
    77 H37      -6.0724    1.0440   -0.3513   H         1 RES1   0.0000
    78 H38      -6.0635    2.8153   -0.5041   H         1 RES1   0.0000
    79 H39      -6.4744    2.0696    1.0244   H         1 RES1   0.0000
    80 H40      -5.0555    3.4993    1.8973   H         1 RES1   0.0000
    81 H41      -3.6197    3.9034    0.9550   H         1 RES1   0.0000
    82 H42      -2.2559    3.1331    2.5820   H         1 RES1   0.0000
    83 H43      -3.0617    1.5958    2.6033   H         1 RES1   0.0000
    84 H44      -4.2891    3.9096    4.1166   H         1 RES1   0.0000
    85 H45      -2.9378    3.0323    4.7771   H         1 RES1   0.0000
    86 H46      -4.8198    2.0225    5.7108   H         1 RES1   0.0000
    87 H47      -6.6853    1.0501    4.4560   H         1 RES1   0.0000
    88 H48      -6.0720    1.7068    2.9571   H         1 RES1   0.0000
    89 H49      -6.4652    3.9962    3.7351   H         1 RES1   0.0000
    90 H50      -6.7676    3.4278    5.3726   H         1 RES1   0.0000
    91 H51      -8.5219    2.6687    2.9993   H         1 RES1   0.0000
    92 H52      -8.8103    4.0644    4.0330   H         1 RES1   0.0000
    93 H53      -8.8248    1.1462    4.9437   H         1 RES1   0.0000
    94 H54     -10.1969    2.2457    4.8456   H         1 RES1   0.0000
    95 H55      -8.9255    2.5367    6.0284   H         1 RES1   0.0000
    96 H56      -2.9810    0.6048    4.6155   H         1 RES1   0.0000
    97 H57      -4.2046    0.1792    3.3817   H         1 RES1   0.0000
    98 H58      -5.6044   -0.8363    5.1738   H         1 RES1   0.0000
    99 H59      -4.3823   -0.3838    6.3562   H         1 RES1   0.0000
   100 H60      -4.0774   -2.6915    5.7855   H         1 RES1   0.0000
   101 H61      -2.7044   -1.7929    5.1611   H         1 RES1   0.0000
   102 H62      -3.5006   -2.0253    2.8686   H         1 RES1   0.0000
   103 H63      -5.1092   -2.4910    3.4285   H         1 RES1   0.0000
   104 H64      -4.2596   -4.6012    4.3042   H         1 RES1   0.0000
   105 H65      -2.6037   -4.1569    3.9169   H         1 RES1   0.0000
   106 H66      -4.8721   -4.6051    1.9139   H         1 RES1   0.0000
   107 H67      -3.5020   -5.6728    2.1817   H         1 RES1   0.0000
   108 H68      -3.2470   -4.0735    1.4723   H         1 RES1   0.0000
   109 C35      -6.0690   -1.5534   -2.5639   C.3       1 RES1   0.0000
   110 C36      -5.3835   -2.7787   -1.9620   C.3       1 RES1   0.0000
   111 C37      -4.7630   -3.6639   -3.0443   C.3       1 RES1   0.0000
   112 C38      -4.5376   -5.1039   -2.5877   C.3       1 RES1   0.0000
   113 C39      -3.4265   -5.3021   -1.5516   C.3       1 RES1   0.0000
   114 C40      -2.0176   -5.1867   -2.1363   C.3       1 RES1   0.0000
   115 C41      -0.9035   -5.8042   -1.2602   C.3       1 RES1   0.0000
   116 C42       0.1926   -6.3303   -2.1955   C.3       1 RES1   0.0000
   117 C43       1.2285   -7.2287   -1.5340   C.3       1 RES1   0.0000
   118 C44       2.2201   -7.7571   -2.5719   C.3       1 RES1   0.0000
   119 C45       3.3245   -8.6011   -1.9482   C.3       1 RES1   0.0000
   120 C46      -0.3499   -4.7965   -0.2216   C.3       1 RES1   0.0000
   121 C47      -0.1171   -5.3165    1.2070   C.3       1 RES1   0.0000
   122 C48      -0.1497   -4.2081    2.2734   C.3       1 RES1   0.0000
   123 N3        0.9574   -3.2574    2.2280   N.am      1 RES1   0.0000
   124 C49       2.1549   -3.5670    2.9784   C.3       1 RES1   0.0000
   125 C50       0.7726   -2.1125    1.5993   C.2       1 RES1   0.0000
   126 O4       -0.3133   -1.8068    1.0550   O.2       1 RES1   0.0000
   127 C51       1.9489   -1.1374    1.4726   C.3       1 RES1   0.0000
   128 O5        1.4468   -0.0307    0.7232   O.3       1 RES1   0.0000
   129 C52       2.3377    0.6516   -0.1698   C.3       1 RES1   0.0000
   130 C53       1.6078    1.9623   -0.4995   C.2       1 RES1   0.0000
   131 O6        0.4555    2.0649   -0.0243   O.2       1 RES1   0.0000
   132 N4        2.1909    2.9299   -1.1708   N.am      1 RES1   0.0000
   133 C54       3.4540    2.7985   -1.8554   C.3       1 RES1   0.0000
   134 C55       1.5444    4.2438   -1.2228   C.3       1 RES1   0.0000
   135 C56       1.4772    4.8903    0.1735   C.3       1 RES1   0.0000
   136 C57       0.0477    4.9331    0.7281   C.3       1 RES1   0.0000
   137 C58      -0.0775    4.9950    2.2663   C.3       1 RES1   0.0000
   138 C59       0.0965    6.4107    2.8474   C.3       1 RES1   0.0000
   139 C60       1.5054    6.8720    3.2361   C.3       1 RES1   0.0000
   140 C61       1.9046    6.4990    4.6723   C.3       1 RES1   0.0000
   141 C62       2.7110    7.5939    5.3623   C.3       1 RES1   0.0000
   142 C63       0.7856    3.9170    2.9432   C.3       1 RES1   0.0000
   143 C64       0.3503    3.5992    4.3841   C.3       1 RES1   0.0000
   144 C65       0.0547    2.1176    4.6229   C.3       1 RES1   0.0000
   145 C66       1.2829    1.3267    5.0682   C.3       1 RES1   0.0000
   146 C67       0.9625   -0.1089    5.4867   C.3       1 RES1   0.0000
   147 C68       2.1728   -0.7703    6.1427   C.3       1 RES1   0.0000
   148 H69      -6.4670   -0.8967   -1.7904   H         1 RES1   0.0000
   149 H70      -6.9082   -1.8695   -3.1772   H         1 RES1   0.0000
   150 H71      -5.3889   -0.9870   -3.2003   H         1 RES1   0.0000
   151 H72      -6.1318   -3.3555   -1.4183   H         1 RES1   0.0000
   152 H73      -4.6175   -2.4839   -1.2340   H         1 RES1   0.0000
   153 H74      -3.8200   -3.2315   -3.3925   H         1 RES1   0.0000
   154 H75      -5.4397   -3.6755   -3.8991   H         1 RES1   0.0000
   155 H76      -4.3258   -5.7194   -3.4623   H         1 RES1   0.0000
   156 H77      -5.4716   -5.4709   -2.1629   H         1 RES1   0.0000
   157 H78      -3.5351   -6.3118   -1.1564   H         1 RES1   0.0000
   158 H79      -3.5682   -4.6095   -0.7222   H         1 RES1   0.0000
   159 H80      -1.7699   -4.1438   -2.3713   H         1 RES1   0.0000
   160 H81      -2.0262   -5.7282   -3.0824   H         1 RES1   0.0000
   161 H82      -1.3275   -6.6599   -0.7304   H         1 RES1   0.0000
   162 H83       0.6975   -5.4862   -2.6768   H         1 RES1   0.0000
   163 H84      -0.2830   -6.9114   -2.9852   H         1 RES1   0.0000
   164 H85       0.7222   -8.0722   -1.0641   H         1 RES1   0.0000
   165 H86       1.7641   -6.6827   -0.7572   H         1 RES1   0.0000
   166 H87       2.6687   -6.9165   -3.1117   H         1 RES1   0.0000
   167 H88       1.6735   -8.3591   -3.3007   H         1 RES1   0.0000
   168 H89       3.9387   -8.0082   -1.2735   H         1 RES1   0.0000
   169 H90       3.9698   -9.0060   -2.7227   H         1 RES1   0.0000
   170 H91       2.9000   -9.4321   -1.3911   H         1 RES1   0.0000
   171 H92      -1.0719   -3.9791   -0.1322   H         1 RES1   0.0000
   172 H93       0.6016   -4.4117   -0.6009   H         1 RES1   0.0000
   173 H94       0.8107   -5.8847    1.2799   H         1 RES1   0.0000
   174 H95      -0.9294   -5.9906    1.4746   H         1 RES1   0.0000
   175 H96      -0.1392   -4.6583    3.2650   H         1 RES1   0.0000
   176 H97      -1.0674   -3.6291    2.1574   H         1 RES1   0.0000
   177 H98       2.1377   -4.6127    3.2659   H         1 RES1   0.0000
   178 H99       2.2226   -2.9769    3.8921   H         1 RES1   0.0000
   179 H100      3.0618   -3.3998    2.4054   H         1 RES1   0.0000
   180 H101      2.7639   -1.6395    0.9358   H         1 RES1   0.0000
   181 H102      2.3002   -0.7849    2.4560   H         1 RES1   0.0000
   182 H103      2.4986    0.0468   -1.0695   H         1 RES1   0.0000
   183 H104      3.2813    0.8488    0.3436   H         1 RES1   0.0000
   184 H105      3.9071    1.8349   -1.6544   H         1 RES1   0.0000
   185 H106      4.1377    3.5845   -1.5347   H         1 RES1   0.0000
   186 H107      3.2950    2.9021   -2.9301   H         1 RES1   0.0000
   187 H108      0.5356    4.1209   -1.6201   H         1 RES1   0.0000
   188 H109      2.1266    4.8451   -1.9141   H         1 RES1   0.0000
   189 H110      1.8820    5.8980    0.1337   H         1 RES1   0.0000
   190 H111      2.1185    4.3089    0.8335   H         1 RES1   0.0000
   191 H112     -0.4812    4.0326    0.3986   H         1 RES1   0.0000
   192 H113     -0.4698    5.7942    0.2961   H         1 RES1   0.0000
   193 H114     -1.1245    4.7320    2.4599   H         1 RES1   0.0000
   194 H115     -0.5251    6.4802    3.7406   H         1 RES1   0.0000
   195 H116     -0.3219    7.1193    2.1293   H         1 RES1   0.0000
   196 H117      1.5267    7.9584    3.1652   H         1 RES1   0.0000
   197 H118      2.2411    6.4972    2.5254   H         1 RES1   0.0000
   198 H119      2.4880    5.5756    4.6804   H         1 RES1   0.0000
   199 H120      0.9991    6.3329    5.2591   H         1 RES1   0.0000
   200 H121      3.5983    7.8520    4.7896   H         1 RES1   0.0000
   201 H122      3.0275    7.2621    6.3482   H         1 RES1   0.0000
   202 H123      2.1039    8.4869    5.4886   H         1 RES1   0.0000
   203 H124      1.8289    4.2297    2.9393   H         1 RES1   0.0000
   204 H125      0.7032    3.0118    2.3249   H         1 RES1   0.0000
   205 H126     -0.5376    4.1816    4.6197   H         1 RES1   0.0000
   206 H127      1.1187    3.9097    5.0872   H         1 RES1   0.0000
   207 H128     -0.3555    1.7104    3.6952   H         1 RES1   0.0000
   208 H129     -0.7077    2.0273    5.3972   H         1 RES1   0.0000
   209 H130      1.7119    1.8342    5.9326   H         1 RES1   0.0000
   210 H131      2.0467    1.3176    4.2855   H         1 RES1   0.0000
   211 H132      0.6387   -0.7038    4.6184   H         1 RES1   0.0000
   212 H133      0.1408   -0.0967    6.2053   H         1 RES1   0.0000
   213 H134      3.0297   -0.7751    5.4689   H         1 RES1   0.0000
   214 H135      1.9530   -1.7935    6.4423   H         1 RES1   0.0000
   215 H136      2.4556   -0.2184    7.0361   H         1 RES1   0.0000
   216 O7       -1.3539   -0.1028    2.5180   O.3       1 RES1   0.0000
   217 H137     -2.1123   -0.5538    2.9323   H         1 RES1   0.0000
   218 H138     -0.7826    0.1496    3.2706   H         1 RES1   0.0000
   219 O8        0.5740   -1.9296   -1.2759   O.3       1 RES1   0.0000
   220 H139      0.0168   -2.7179   -1.3317   H         1 RES1   0.0000
   221 H140      1.4408   -2.1957   -1.6271   H         1 RES1   0.0000
@<TRIPOS>BOND
     1     1    19    1
     2     1    21    1
     3     1    24    1
     4     1   126    1
     5     1   128    1
     6     1   131    1
     7     1   216    1
     8     1   219    1
     9     2     3    1
    10     2    41    1
    11     2    42    1
    12     2    43    1
    13     3     4    1
    14     3    44    1
    15     3    45    1
    16     4     5    1
    17     4    46    1
    18     4    47    1
    19     5     6    1
    20     5    48    1
    21     5    49    1
    22     6     7    1
    23     6    50    1
    24     6    51    1
    25     7     8    1
    26     7    52    1
    27     7    53    1
    28     8     9    1
    29     8    13    1
    30     8    54    1
    31     9    10    1
    32     9    55    1
    33     9    56    1
    34    10    11    1
    35    10    57    1
    36    10    58    1
    37    11    12    1
    38    11    59    1
    39    11    60    1
    40    12    61    1
    41    12    62    1
    42    12    63    1
    43    13    14    1
    44    13    64    1
    45    13    65    1
    46    14    15    1
    47    14    66    1
    48    14    67    1
    49    15    16    1
    50    15    68    1
    51    15    69    1
    52    16    17    1
    53    16    18    1
    54    17    70    1
    55    17    71    1
    56    17    72    1
    57    18    19    2
    58    18    20    1
    59    20    21    1
    60    20    73    1
    61    20    74    1
    62    21    22    1
    63    22    23    1
    64    22    75    1
    65    22    76    1
    66    23    24    2
    67    23    25    1
    68    25    26    1
    69    25    27    1
    70    26    77    1
    71    26    78    1
    72    26    79    1
    73    27    28    1
    74    27    80    1
    75    27    81    1
    76    28    29    1
    77    28    82    1
    78    28    83    1
    79    29    30    1
    80    29    84    1
    81    29    85    1
    82    30    31    1
    83    30    35    1
    84    30    86    1
    85    31    32    1
    86    31    87    1
    87    31    88    1
    88    32    33    1
    89    32    89    1
    90    32    90    1
    91    33    34    1
    92    33    91    1
    93    33    92    1
    94    34    93    1
    95    34    94    1
    96    34    95    1
    97    35    36    1
    98    35    96    1
    99    35    97    1
   100    36    37    1
   101    36    98    1
   102    36    99    1
   103    37    38    1
   104    37   100    1
   105    37   101    1
   106    38    39    1
   107    38   102    1
   108    38   103    1
   109    39    40    1
   110    39   104    1
   111    39   105    1
   112    40   106    1
   113    40   107    1
   114    40   108    1
   115   109   110    1
   116   109   148    1
   117   109   149    1
   118   109   150    1
   119   110   111    1
   120   110   151    1
   121   110   152    1
   122   111   112    1
   123   111   153    1
   124   111   154    1
   125   112   113    1
   126   112   155    1
   127   112   156    1
   128   113   114    1
   129   113   157    1
   130   113   158    1
   131   114   115    1
   132   114   159    1
   133   114   160    1
   134   115   116    1
   135   115   120    1
   136   115   161    1
   137   116   117    1
   138   116   162    1
   139   116   163    1
   140   117   118    1
   141   117   164    1
   142   117   165    1
   143   118   119    1
   144   118   166    1
   145   118   167    1
   146   119   168    1
   147   119   169    1
   148   119   170    1
   149   120   121    1
   150   120   171    1
   151   120   172    1
   152   121   122    1
   153   121   173    1
   154   121   174    1
   155   122   123    1
   156   122   175    1
   157   122   176    1
   158   123   124    1
   159   123   125    1
   160   124   177    1
   161   124   178    1
   162   124   179    1
   163   125   126    2
   164   125   127    1
   165   127   128    1
   166   127   180    1
   167   127   181    1
   168   128   129    1
   169   129   130    1
   170   129   182    1
   171   129   183    1
   172   130   131    2
   173   130   132    1
   174   132   133    1
   175   132   134    1
   176   133   184    1
   177   133   185    1
   178   133   186    1
   179   134   135    1
   180   134   187    1
   181   134   188    1
   182   135   136    1
   183   135   189    1
   184   135   190    1
   185   136   137    1
   186   136   191    1
   187   136   192    1
   188   137   138    1
   189   137   142    1
   190   137   193    1
   191   138   139    1
   192   138   194    1
   193   138   195    1
   194   139   140    1
   195   139   196    1
   196   139   197    1
   197   140   141    1
   198   140   198    1
   199   140   199    1
   200   141   200    1
   201   141   201    1
   202   141   202    1
   203   142   143    1
   204   142   203    1
   205   142   204    1
   206   143   144    1
   207   143   205    1
   208   143   206    1
   209   144   145    1
   210   144   207    1
   211   144   208    1
   212   145   146    1
   213   145   209    1
   214   145   210    1
   215   146   147    1
   216   146   211    1
   217   146   212    1
   218   147   213    1
   219   147   214    1
   220   147   215    1
   221   216   217    1
   222   216   218    1
   223   219   220    1
   224   219   221    1
@<TRIPOS>SUBSTRUCTURE
     1 RES1      221 GROUP             0 ****  ****    0  
