@<TRIPOS>MOLECULE
ICIGOT_geomtry_0_nunpairedes_0_charge_2 Charge: 2 Unpaired_Electrons: 4 XTB_Unpaired_Electrons: 0 XTB_Charge: 2
    87    91     1     0     0
SMALL
NoCharges
****
Generated from Architector

@<TRIPOS>ATOM
     1 Ho1       0.0017    0.0255    0.0214   Ho        1 RES1   0.0000
     2 C1       -2.9593   -1.1223    4.0337   C.3       1 RES1   0.0000
     3 C2       -3.6971   -1.4153    2.7322   C.3       1 RES1   0.0000
     4 N1       -3.8868   -0.2156    1.9209   N.am      1 RES1   0.0000
     5 C3       -5.2360    0.3118    1.7985   C.3       1 RES1   0.0000
     6 C4       -5.6504    1.1516    3.0026   C.3       1 RES1   0.0000
     7 C5       -2.8166    0.3244    1.3645   C.2       1 RES1   0.0000
     8 O1       -1.6844   -0.2025    1.4650   O.2       1 RES1   0.0000
     9 C6       -2.9718    1.6157    0.5438   C.3       1 RES1   0.0000
    10 O2       -1.6994    2.0496    0.0904   O.3       1 RES1   0.0000
    11 C7       -1.1526    3.2292    0.6735   C.3       1 RES1   0.0000
    12 C8        0.1142    2.8484    1.4511   C.2       1 RES1   0.0000
    13 O3        0.5284    1.6725    1.3546   O.2       1 RES1   0.0000
    14 N2        0.7469    3.7446    2.1884   N.am      1 RES1   0.0000
    15 C9        0.3821    5.1462    2.3062   C.3       1 RES1   0.0000
    16 C10      -0.2723    5.4690    3.6463   C.3       1 RES1   0.0000
    17 C11       1.9159    3.2827    2.9365   C.3       1 RES1   0.0000
    18 C12       1.5268    2.3733    4.0983   C.3       1 RES1   0.0000
    19 H1       -3.0017   -2.0012    4.6707   H         1 RES1   0.0000
    20 H2       -1.9172   -0.8752    3.8378   H         1 RES1   0.0000
    21 H3       -3.4266   -0.2955    4.5621   H         1 RES1   0.0000
    22 H4       -3.1275   -2.1325    2.1320   H         1 RES1   0.0000
    23 H5       -4.6807   -1.8339    2.9497   H         1 RES1   0.0000
    24 H6       -5.3242    0.9024    0.8858   H         1 RES1   0.0000
    25 H7       -5.9049   -0.5451    1.7021   H         1 RES1   0.0000
    26 H8       -4.9235    1.9310    3.2170   H         1 RES1   0.0000
    27 H9       -6.6057    1.6262    2.7965   H         1 RES1   0.0000
    28 H10      -5.7573    0.5294    3.8855   H         1 RES1   0.0000
    29 H11      -3.5674    1.4059   -0.3563   H         1 RES1   0.0000
    30 H12      -3.4699    2.3975    1.1240   H         1 RES1   0.0000
    31 H13      -0.8912    3.8982   -0.1576   H         1 RES1   0.0000
    32 H14      -1.8824    3.7257    1.3188   H         1 RES1   0.0000
    33 H15       1.3010    5.7292    2.2000   H         1 RES1   0.0000
    34 H16      -0.2835    5.4255    1.4894   H         1 RES1   0.0000
    35 H17       0.4357    5.3492    4.4605   H         1 RES1   0.0000
    36 H18      -0.6169    6.4998    3.6370   H         1 RES1   0.0000
    37 H19      -1.1287    4.8262    3.8344   H         1 RES1   0.0000
    38 H20       2.5564    2.7318    2.2405   H         1 RES1   0.0000
    39 H21       2.4553    4.1589    3.2979   H         1 RES1   0.0000
    40 H22       1.1106    1.4410    3.7206   H         1 RES1   0.0000
    41 H23       2.4112    2.1491    4.6878   H         1 RES1   0.0000
    42 H24       0.7929    2.8540    4.7393   H         1 RES1   0.0000
    43 C13       1.8923   -5.0309   -3.2876   C.3       1 RES1   0.0000
    44 C14       0.8101   -4.0327   -3.6913   C.3       1 RES1   0.0000
    45 N3        1.0813   -2.6763   -3.2368   N.am      1 RES1   0.0000
    46 C15       1.7224   -1.7461   -4.1751   C.3       1 RES1   0.0000
    47 C16       3.1571   -1.3861   -3.8081   C.3       1 RES1   0.0000
    48 C17       0.8009   -2.2531   -2.0142   C.2       1 RES1   0.0000
    49 O4        1.1043   -1.1141   -1.6071   O.2       1 RES1   0.0000
    50 C18      -0.0003   -3.1504   -1.0495   C.3       1 RES1   0.0000
    51 O5       -0.1403   -2.5126    0.2252   O.3       1 RES1   0.0000
    52 C19       0.6940   -2.9980    1.2809   C.3       1 RES1   0.0000
    53 C20       1.7901   -1.9626    1.6121   C.2       1 RES1   0.0000
    54 O6        1.7017   -0.8380    1.0811   O.2       1 RES1   0.0000
    55 N4        2.7731   -2.2597    2.4455   N.am      1 RES1   0.0000
    56 C21       2.8855   -3.4932    3.2091   C.3       1 RES1   0.0000
    57 C22       3.9889   -4.4137    2.6994   C.3       1 RES1   0.0000
    58 C23       3.7972   -1.2316    2.6596   C.3       1 RES1   0.0000
    59 C24       4.7227   -1.0580    1.4579   C.3       1 RES1   0.0000
    60 H25       1.6003   -6.0187   -3.6318   H         1 RES1   0.0000
    61 H26       2.0266   -5.0673   -2.2104   H         1 RES1   0.0000
    62 H27       2.8470   -4.7841   -3.7419   H         1 RES1   0.0000
    63 H28      -0.1616   -4.3548   -3.3139   H         1 RES1   0.0000
    64 H29       0.7509   -4.0119   -4.7801   H         1 RES1   0.0000
    65 H30       1.1147   -0.8353   -4.2118   H         1 RES1   0.0000
    66 H31       1.7045   -2.2116   -5.1624   H         1 RES1   0.0000
    67 H32       3.1797   -0.8375   -2.8703   H         1 RES1   0.0000
    68 H33       3.5598   -0.7534   -4.5942   H         1 RES1   0.0000
    69 H34       3.7811   -2.2733   -3.7334   H         1 RES1   0.0000
    70 H35       0.4661   -4.1336   -0.9452   H         1 RES1   0.0000
    71 H36      -1.0233   -3.2612   -1.4353   H         1 RES1   0.0000
    72 H37       1.1341   -3.9651    1.0151   H         1 RES1   0.0000
    73 H38       0.0350   -3.1341    2.1512   H         1 RES1   0.0000
    74 H39       1.9303   -4.0181    3.1965   H         1 RES1   0.0000
    75 H40       3.0980   -3.2172    4.2458   H         1 RES1   0.0000
    76 H41       3.8547   -4.6506    1.6478   H         1 RES1   0.0000
    77 H42       3.9636   -5.3428    3.2624   H         1 RES1   0.0000
    78 H43       4.9651   -3.9577    2.8296   H         1 RES1   0.0000
    79 H44       4.3719   -1.5030    3.5468   H         1 RES1   0.0000
    80 H45       3.2764   -0.2866    2.8451   H         1 RES1   0.0000
    81 H46       5.1680   -2.0038    1.1600   H         1 RES1   0.0000
    82 H47       5.5189   -0.3684    1.7276   H         1 RES1   0.0000
    83 H48       4.1757   -0.6373    0.6164   H         1 RES1   0.0000
    84 N5       -0.8805    0.5911   -2.1236   N.3       1 RES1   0.0000
    85 O7       -1.2342    0.7514   -3.2423   O.2       1 RES1   0.0000
    86 O8       -1.4422   -0.2539   -1.3895   O.co2     1 RES1   0.0000
    87 O9        0.0428    1.2483   -1.6246   O.co2     1 RES1   0.0000
@<TRIPOS>BOND
     1     1     8    1
     2     1    10    1
     3     1    13    1
     4     1    49    1
     5     1    51    1
     6     1    54    1
     7     1    86    1
     8     1    87    1
     9     2     3    1
    10     2    19    1
    11     2    20    1
    12     2    21    1
    13     3     4    1
    14     3    22    1
    15     3    23    1
    16     4     5    1
    17     4     7    1
    18     5     6    1
    19     5    24    1
    20     5    25    1
    21     6    26    1
    22     6    27    1
    23     6    28    1
    24     7     8    2
    25     7     9    1
    26     9    10    1
    27     9    29    1
    28     9    30    1
    29    10    11    1
    30    11    12    1
    31    11    31    1
    32    11    32    1
    33    12    13    2
    34    12    14    1
    35    14    15    1
    36    14    17    1
    37    15    16    1
    38    15    33    1
    39    15    34    1
    40    16    35    1
    41    16    36    1
    42    16    37    1
    43    17    18    1
    44    17    38    1
    45    17    39    1
    46    18    40    1
    47    18    41    1
    48    18    42    1
    49    43    44    1
    50    43    60    1
    51    43    61    1
    52    43    62    1
    53    44    45    1
    54    44    63    1
    55    44    64    1
    56    45    46    1
    57    45    48    1
    58    46    47    1
    59    46    65    1
    60    46    66    1
    61    47    67    1
    62    47    68    1
    63    47    69    1
    64    48    49    2
    65    48    50    1
    66    50    51    1
    67    50    70    1
    68    50    71    1
    69    51    52    1
    70    52    53    1
    71    52    72    1
    72    52    73    1
    73    53    54    2
    74    53    55    1
    75    55    56    1
    76    55    58    1
    77    56    57    1
    78    56    74    1
    79    56    75    1
    80    57    76    1
    81    57    77    1
    82    57    78    1
    83    58    59    1
    84    58    79    1
    85    58    80    1
    86    59    81    1
    87    59    82    1
    88    59    83    1
    89    84    85    2
    90    84    86    1
    91    84    87    1
@<TRIPOS>SUBSTRUCTURE
     1 RES1       87 GROUP             0 ****  ****    0  
