@<TRIPOS>MOLECULE
square_prismatic_0_nunpairedes_0_charge_2 Charge: 2 Unpaired_Electrons: 1 XTB_Unpaired_Electrons: 0 XTB_Charge: 2
   327   331     1     0     0
SMALL
NoCharges
****
Generated from Architector

@<TRIPOS>ATOM
     1 Yb1      -0.8394    0.0255   -0.2024   Yb        1 RES1   0.0000
     2 C1        2.3884   -1.2439    6.8979   C.3       1 RES1   0.0000
     3 C2        1.5551   -0.0116    6.5717   C.3       1 RES1   0.0000
     4 C3        1.0429    0.6755    7.8334   C.3       1 RES1   0.0000
     5 C4        0.3522    2.0152    7.5786   C.3       1 RES1   0.0000
     6 C5       -0.7545    1.9813    6.5183   C.3       1 RES1   0.0000
     7 C6       -1.7650    3.0993    6.7789   C.3       1 RES1   0.0000
     8 C7       -2.8160    3.2942    5.6868   C.3       1 RES1   0.0000
     9 C8       -2.2594    3.7724    4.3456   C.3       1 RES1   0.0000
    10 C9       -1.6474    5.1818    4.4226   C.3       1 RES1   0.0000
    11 C10      -0.1820    5.1833    3.9850   C.3       1 RES1   0.0000
    12 C11      -0.0701    5.0323    2.4631   C.3       1 RES1   0.0000
    13 C12       1.2631    4.4483    1.9913   C.3       1 RES1   0.0000
    14 N1        1.4801    3.0727    2.4498   N.am      1 RES1   0.0000
    15 C13       2.5587    2.8175    3.4079   C.3       1 RES1   0.0000
    16 C14       3.8645    3.5727    3.1059   C.3       1 RES1   0.0000
    17 C15       5.1189    2.7469    3.4368   C.3       1 RES1   0.0000
    18 C16       6.3970    3.4988    3.0189   C.3       1 RES1   0.0000
    19 C17       7.6077    2.6054    2.6663   C.3       1 RES1   0.0000
    20 C18       7.8299    2.5221    1.1511   C.3       1 RES1   0.0000
    21 C19       9.0924    1.7749    0.6999   C.3       1 RES1   0.0000
    22 C20       8.9147    0.2542    0.7227   C.3       1 RES1   0.0000
    23 C21       9.8861   -0.5014   -0.1998   C.3       1 RES1   0.0000
    24 C22       9.1842   -1.6318   -0.9593   C.3       1 RES1   0.0000
    25 C23       8.4751   -1.1121   -2.2128   C.3       1 RES1   0.0000
    26 C24       9.4459   -0.9509   -3.3833   C.3       1 RES1   0.0000
    27 C25       0.6676    2.1014    2.0518   C.2       1 RES1   0.0000
    28 O1       -0.2577    2.2052    1.2273   O.2       1 RES1   0.0000
    29 C26       0.8779    0.7041    2.6686   C.3       1 RES1   0.0000
    30 O2       -0.1752   -0.1389    2.2331   O.3       1 RES1   0.0000
    31 C27      -1.2587   -0.2068    3.1411   C.3       1 RES1   0.0000
    32 C28      -2.5020   -0.5507    2.3359   C.2       1 RES1   0.0000
    33 O3       -2.5077   -0.3104    1.1068   O.2       1 RES1   0.0000
    34 N2       -3.5421   -1.0764    2.9568   N.am      1 RES1   0.0000
    35 C29      -4.7136   -1.3495    2.1223   C.3       1 RES1   0.0000
    36 C30      -4.7001   -2.7733    1.5436   C.3       1 RES1   0.0000
    37 C31      -5.3173   -2.8746    0.1450   C.3       1 RES1   0.0000
    38 C32      -4.3155   -3.1675   -0.9748   C.3       1 RES1   0.0000
    39 C33      -3.9506   -4.6547   -1.1267   C.3       1 RES1   0.0000
    40 C34      -2.5409   -5.0517   -0.6763   C.3       1 RES1   0.0000
    41 C35      -1.4140   -4.8086   -1.6839   C.3       1 RES1   0.0000
    42 C36      -0.1493   -5.5441   -1.2350   C.3       1 RES1   0.0000
    43 C37       1.0030   -5.5506   -2.2555   C.3       1 RES1   0.0000
    44 C38       2.3828   -5.1744   -1.6701   C.3       1 RES1   0.0000
    45 C39       3.3366   -6.2782   -1.2234   C.3       1 RES1   0.0000
    46 C40       4.7258   -5.7114   -0.9316   C.3       1 RES1   0.0000
    47 C41      -3.6693   -1.1943    4.4078   C.3       1 RES1   0.0000
    48 C42      -4.0524   -2.5805    4.9454   C.3       1 RES1   0.0000
    49 C43      -2.9510   -3.6513    4.9758   C.3       1 RES1   0.0000
    50 C44      -2.7674   -4.4472    3.6791   C.3       1 RES1   0.0000
    51 C45      -2.3244   -5.8969    3.9139   C.3       1 RES1   0.0000
    52 C46      -3.4700   -6.8086    4.3699   C.3       1 RES1   0.0000
    53 C47      -4.5654   -7.0823    3.3340   C.3       1 RES1   0.0000
    54 C48      -4.1206   -7.9584    2.1641   C.3       1 RES1   0.0000
    55 C49      -5.2902   -8.2822    1.2341   C.3       1 RES1   0.0000
    56 C50      -5.0163   -9.3603    0.1825   C.3       1 RES1   0.0000
    57 C51      -4.0996   -8.9314   -0.9673   C.3       1 RES1   0.0000
    58 C52      -2.6212   -9.1876   -0.7005   C.3       1 RES1   0.0000
    59 H1        2.6943   -1.7647    5.9925   H         1 RES1   0.0000
    60 H2        1.8226   -1.9335    7.5181   H         1 RES1   0.0000
    61 H3        3.2849   -0.9633    7.4411   H         1 RES1   0.0000
    62 H4        0.7055   -0.3127    5.9530   H         1 RES1   0.0000
    63 H5        2.1597    0.6919    5.9955   H         1 RES1   0.0000
    64 H6        1.8852    0.8468    8.5046   H         1 RES1   0.0000
    65 H7        0.3546    0.0016    8.3450   H         1 RES1   0.0000
    66 H8        1.0954    2.7623    7.2928   H         1 RES1   0.0000
    67 H9       -0.0803    2.3454    8.5233   H         1 RES1   0.0000
    68 H10      -1.2662    1.0142    6.5398   H         1 RES1   0.0000
    69 H11      -0.3074    2.0986    5.5263   H         1 RES1   0.0000
    70 H12      -1.2247    4.0350    6.9287   H         1 RES1   0.0000
    71 H13      -2.2840    2.8677    7.7114   H         1 RES1   0.0000
    72 H14      -3.5327    4.0362    6.0425   H         1 RES1   0.0000
    73 H15      -3.3602    2.3572    5.5428   H         1 RES1   0.0000
    74 H16      -3.0691    3.7498    3.6155   H         1 RES1   0.0000
    75 H17      -1.5008    3.0695    3.9873   H         1 RES1   0.0000
    76 H18      -1.7163    5.5634    5.4415   H         1 RES1   0.0000
    77 H19      -2.2039    5.8735    3.7906   H         1 RES1   0.0000
    78 H20       0.3218    4.3594    4.4954   H         1 RES1   0.0000
    79 H21       0.3058    6.1078    4.3008   H         1 RES1   0.0000
    80 H22      -0.1831    6.0146    1.9983   H         1 RES1   0.0000
    81 H23      -0.8769    4.3985    2.0929   H         1 RES1   0.0000
    82 H24       2.0773    5.0617    2.3713   H         1 RES1   0.0000
    83 H25       1.2800    4.4571    0.8972   H         1 RES1   0.0000
    84 H26       2.7857    1.7537    3.4001   H         1 RES1   0.0000
    85 H27       2.2035    3.0790    4.4081   H         1 RES1   0.0000
    86 H28       3.9004    4.5058    3.6737   H         1 RES1   0.0000
    87 H29       3.8917    3.8103    2.0409   H         1 RES1   0.0000
    88 H30       5.0527    1.7781    2.9327   H         1 RES1   0.0000
    89 H31       5.1737    2.5216    4.5048   H         1 RES1   0.0000
    90 H32       6.6648    4.1696    3.8358   H         1 RES1   0.0000
    91 H33       6.1949    4.1352    2.1556   H         1 RES1   0.0000
    92 H34       7.4982    1.6068    3.0937   H         1 RES1   0.0000
    93 H35       8.5036    3.0347    3.1186   H         1 RES1   0.0000
    94 H36       7.8881    3.5488    0.7792   H         1 RES1   0.0000
    95 H37       6.9658    2.0330    0.6941   H         1 RES1   0.0000
    96 H38       9.9521    2.0707    1.3062   H         1 RES1   0.0000
    97 H39       9.3015    2.0703   -0.3343   H         1 RES1   0.0000
    98 H40       7.8917    0.0407    0.3996   H         1 RES1   0.0000
    99 H41       9.0206   -0.1285    1.7407   H         1 RES1   0.0000
   100 H42      10.7029   -0.9216    0.3852   H         1 RES1   0.0000
   101 H43      10.3264    0.1809   -0.9300   H         1 RES1   0.0000
   102 H44       8.4636   -2.1219   -0.2999   H         1 RES1   0.0000
   103 H45       9.9039   -2.3954   -1.2613   H         1 RES1   0.0000
   104 H46       8.0061   -0.1491   -1.9906   H         1 RES1   0.0000
   105 H47       7.6838   -1.8067   -2.5131   H         1 RES1   0.0000
   106 H48      10.1278   -0.1157   -3.2281   H         1 RES1   0.0000
   107 H49       8.9092   -0.7823   -4.3168   H         1 RES1   0.0000
   108 H50      10.0449   -1.8540   -3.5032   H         1 RES1   0.0000
   109 H51       0.9085    0.7375    3.7600   H         1 RES1   0.0000
   110 H52       1.8014    0.2605    2.2826   H         1 RES1   0.0000
   111 H53      -1.4208    0.7614    3.6318   H         1 RES1   0.0000
   112 H54      -1.0418   -0.9820    3.8860   H         1 RES1   0.0000
   113 H55      -4.6986   -0.6271    1.2996   H         1 RES1   0.0000
   114 H56      -5.6087   -1.1748    2.7204   H         1 RES1   0.0000
   115 H57      -5.2534   -3.4199    2.2222   H         1 RES1   0.0000
   116 H58      -3.6674   -3.1167    1.5030   H         1 RES1   0.0000
   117 H59      -5.8309   -1.9415   -0.0857   H         1 RES1   0.0000
   118 H60      -6.0669   -3.6645    0.1400   H         1 RES1   0.0000
   119 H61      -3.4114   -2.5669   -0.8384   H         1 RES1   0.0000
   120 H62      -4.7970   -2.8452   -1.8952   H         1 RES1   0.0000
   121 H63      -4.0861   -4.9721   -2.1656   H         1 RES1   0.0000
   122 H64      -4.6452   -5.2361   -0.5190   H         1 RES1   0.0000
   123 H65      -2.5502   -6.1255   -0.4751   H         1 RES1   0.0000
   124 H66      -2.3008   -4.5386    0.2574   H         1 RES1   0.0000
   125 H67      -1.1977   -3.7418   -1.7730   H         1 RES1   0.0000
   126 H68      -1.7104   -5.1844   -2.6655   H         1 RES1   0.0000
   127 H69      -0.4320   -6.5679   -1.0009   H         1 RES1   0.0000
   128 H70       0.1909   -5.0933   -0.3030   H         1 RES1   0.0000
   129 H71       0.7625   -4.8417   -3.0516   H         1 RES1   0.0000
   130 H72       1.0524   -6.5179   -2.7526   H         1 RES1   0.0000
   131 H73       2.2160   -4.6011   -0.7577   H         1 RES1   0.0000
   132 H74       2.9165   -4.5545   -2.4060   H         1 RES1   0.0000
   133 H75       3.4240   -7.0459   -1.9760   H         1 RES1   0.0000
   134 H76       2.9425   -6.7249   -0.3174   H         1 RES1   0.0000
   135 H77       5.2125   -5.3481   -1.8349   H         1 RES1   0.0000
   136 H78       5.3686   -6.4755   -0.4968   H         1 RES1   0.0000
   137 H79       4.6812   -4.8759   -0.2351   H         1 RES1   0.0000
   138 H80      -4.4457   -0.4813    4.7171   H         1 RES1   0.0000
   139 H81      -2.7373   -0.8935    4.8857   H         1 RES1   0.0000
   140 H82      -4.9262   -2.9614    4.4201   H         1 RES1   0.0000
   141 H83      -4.3561   -2.3980    5.9775   H         1 RES1   0.0000
   142 H84      -3.2245   -4.3523    5.7653   H         1 RES1   0.0000
   143 H85      -2.0074   -3.1898    5.2783   H         1 RES1   0.0000
   144 H86      -2.0428   -3.9362    3.0360   H         1 RES1   0.0000
   145 H87      -3.7183   -4.4914    3.1545   H         1 RES1   0.0000
   146 H88      -1.5303   -5.9239    4.6683   H         1 RES1   0.0000
   147 H89      -1.9142   -6.2872    2.9812   H         1 RES1   0.0000
   148 H90      -3.9367   -6.3753    5.2566   H         1 RES1   0.0000
   149 H91      -3.0373   -7.7630    4.6706   H         1 RES1   0.0000
   150 H92      -4.9643   -6.1448    2.9432   H         1 RES1   0.0000
   151 H93      -5.3840   -7.5847    3.8526   H         1 RES1   0.0000
   152 H94      -3.7097   -8.8887    2.5568   H         1 RES1   0.0000
   153 H95      -3.3353   -7.4464    1.6072   H         1 RES1   0.0000
   154 H96      -5.6120   -7.3713    0.7243   H         1 RES1   0.0000
   155 H97      -6.1295   -8.6185    1.8467   H         1 RES1   0.0000
   156 H98      -5.9807   -9.6529   -0.2369   H         1 RES1   0.0000
   157 H99      -4.5988  -10.2421    0.6675   H         1 RES1   0.0000
   158 H100     -4.2637   -7.8730   -1.1784   H         1 RES1   0.0000
   159 H101     -4.3824   -9.4844   -1.8644   H         1 RES1   0.0000
   160 H102     -2.2799   -8.6557    0.1824   H         1 RES1   0.0000
   161 H103     -2.0189   -8.8706   -1.5495   H         1 RES1   0.0000
   162 H104     -2.4493  -10.2486   -0.5414   H         1 RES1   0.0000
   163 C53       3.3646   -6.8732   -6.0104   C.3       1 RES1   0.0000
   164 C54       3.4864   -7.4401   -4.5934   C.3       1 RES1   0.0000
   165 C55       2.5046   -8.5836   -4.2870   C.3       1 RES1   0.0000
   166 C56       2.7939   -9.3665   -2.9821   C.3       1 RES1   0.0000
   167 C57       1.7276   -9.2281   -1.8850   C.3       1 RES1   0.0000
   168 C58       2.2612   -9.6225   -0.5075   C.3       1 RES1   0.0000
   169 C59       1.2714   -9.4348    0.6509   C.3       1 RES1   0.0000
   170 C60       0.9945   -7.9864    1.1020   C.3       1 RES1   0.0000
   171 C61       1.9690   -7.4789    2.1761   C.3       1 RES1   0.0000
   172 C62       2.1583   -5.9476    2.2682   C.3       1 RES1   0.0000
   173 C63       0.9246   -5.0726    2.5136   C.3       1 RES1   0.0000
   174 C64       1.2337   -3.5613    2.6261   C.3       1 RES1   0.0000
   175 N3        1.8394   -2.9663    1.4255   N.am      1 RES1   0.0000
   176 C65       3.3039   -2.9646    1.3722   C.3       1 RES1   0.0000
   177 C66       3.9526   -1.7565    2.0948   C.3       1 RES1   0.0000
   178 C67       4.7618   -0.7519    1.2555   C.3       1 RES1   0.0000
   179 C68       4.0077    0.0761    0.2008   C.3       1 RES1   0.0000
   180 C69       4.1848    1.6096    0.2136   C.3       1 RES1   0.0000
   181 C70       4.6311    2.2829   -1.0934   C.3       1 RES1   0.0000
   182 C71       4.7544    3.7944   -0.8447   C.3       1 RES1   0.0000
   183 C72       5.4409    4.5761   -1.9645   C.3       1 RES1   0.0000
   184 C73       5.9557    5.9642   -1.5612   C.3       1 RES1   0.0000
   185 C74       4.8980    7.0641   -1.4102   C.3       1 RES1   0.0000
   186 C75       4.1613    7.1553   -0.0673   C.3       1 RES1   0.0000
   187 C76       5.0951    7.3171    1.1323   C.3       1 RES1   0.0000
   188 C77       1.0789   -2.3890    0.4956   C.2       1 RES1   0.0000
   189 O4       -0.1393   -2.1462    0.6352   O.2       1 RES1   0.0000
   190 C78       1.6867   -2.1030   -0.8843   C.3       1 RES1   0.0000
   191 O5        0.7398   -1.3490   -1.6220   O.3       1 RES1   0.0000
   192 C79       0.4684   -1.7571   -2.9543   C.3       1 RES1   0.0000
   193 C80      -1.0592   -1.6790   -3.0760   C.2       1 RES1   0.0000
   194 O6       -1.6632   -1.1208   -2.1350   O.2       1 RES1   0.0000
   195 N4       -1.6806   -2.1812   -4.1336   N.am      1 RES1   0.0000
   196 C81      -3.1321   -2.0049   -4.1724   C.3       1 RES1   0.0000
   197 C82      -3.5488   -0.5639   -4.5038   C.3       1 RES1   0.0000
   198 C83      -4.7737   -0.1263   -3.6921   C.3       1 RES1   0.0000
   199 C84      -4.4607    0.4606   -2.3018   C.3       1 RES1   0.0000
   200 C85      -4.8779    1.9313   -2.1967   C.3       1 RES1   0.0000
   201 C86      -4.0914    2.8569   -3.1256   C.3       1 RES1   0.0000
   202 C87      -2.6729    3.1966   -2.6414   C.3       1 RES1   0.0000
   203 C88      -1.6664    3.0829   -3.7855   C.3       1 RES1   0.0000
   204 C89      -0.2992    3.6895   -3.4811   C.3       1 RES1   0.0000
   205 C90       0.7859    3.1882   -4.4358   C.3       1 RES1   0.0000
   206 C91       0.5543    3.5317   -5.9050   C.3       1 RES1   0.0000
   207 C92       1.6285    2.9149   -6.7940   C.3       1 RES1   0.0000
   208 C93      -1.0673   -3.1729   -5.0126   C.3       1 RES1   0.0000
   209 C94      -1.4041   -3.0865   -6.5014   C.3       1 RES1   0.0000
   210 C95      -0.5196   -2.1482   -7.3199   C.3       1 RES1   0.0000
   211 C96      -0.8406   -0.6632   -7.1232   C.3       1 RES1   0.0000
   212 C97      -0.6907    0.1575   -8.4101   C.3       1 RES1   0.0000
   213 C98      -1.5781   -0.2974   -9.5787   C.3       1 RES1   0.0000
   214 C99      -3.0472   -0.5532   -9.2401   C.3       1 RES1   0.0000
   215 C100     -3.7623    0.6840   -8.7067   C.3       1 RES1   0.0000
   216 C101     -5.2268    0.3851   -8.3942   C.3       1 RES1   0.0000
   217 C102     -6.1067    1.6214   -8.2076   C.3       1 RES1   0.0000
   218 C103     -5.8351    2.4381   -6.9416   C.3       1 RES1   0.0000
   219 C104     -4.6846    3.4318   -7.0617   C.3       1 RES1   0.0000
   220 H105      4.1551   -6.1388   -6.1820   H         1 RES1   0.0000
   221 H106      2.4022   -6.3825   -6.1559   H         1 RES1   0.0000
   222 H107      3.4671   -7.6532   -6.7628   H         1 RES1   0.0000
   223 H108      3.3370   -6.6150   -3.8981   H         1 RES1   0.0000
   224 H109      4.5078   -7.7968   -4.4548   H         1 RES1   0.0000
   225 H110      2.5340   -9.2639   -5.1402   H         1 RES1   0.0000
   226 H111      1.4912   -8.1798   -4.2417   H         1 RES1   0.0000
   227 H112      3.7649   -9.0600   -2.5867   H         1 RES1   0.0000
   228 H113      2.8813  -10.4235   -3.2261   H         1 RES1   0.0000
   229 H114      0.8762   -9.8612   -2.1345   H         1 RES1   0.0000
   230 H115      1.3721   -8.2049   -1.8485   H         1 RES1   0.0000
   231 H116      3.1781   -9.0722   -0.2925   H         1 RES1   0.0000
   232 H117      2.5207  -10.6797   -0.5566   H         1 RES1   0.0000
   233 H118      1.6560   -9.9832    1.5130   H         1 RES1   0.0000
   234 H119      0.3281   -9.8973    0.3572   H         1 RES1   0.0000
   235 H120     -0.0192   -7.9438    1.5044   H         1 RES1   0.0000
   236 H121      1.0337   -7.3227    0.2437   H         1 RES1   0.0000
   237 H122      2.9645   -7.8694    1.9446   H         1 RES1   0.0000
   238 H123      1.6657   -7.8809    3.1461   H         1 RES1   0.0000
   239 H124      2.6293   -5.6235    1.3400   H         1 RES1   0.0000
   240 H125      2.8617   -5.7626    3.0867   H         1 RES1   0.0000
   241 H126      0.4560   -5.3631    3.4541   H         1 RES1   0.0000
   242 H127      0.1830   -5.2338    1.7323   H         1 RES1   0.0000
   243 H128      1.9122   -3.3851    3.4645   H         1 RES1   0.0000
   244 H129      0.2940   -3.0353    2.8105   H         1 RES1   0.0000
   245 H130      3.6436   -3.0181    0.3406   H         1 RES1   0.0000
   246 H131      3.6317   -3.8741    1.8751   H         1 RES1   0.0000
   247 H132      4.6642   -2.1719    2.8121   H         1 RES1   0.0000
   248 H133      3.1834   -1.2417    2.6736   H         1 RES1   0.0000
   249 H134      5.5696   -1.3079    0.7872   H         1 RES1   0.0000
   250 H135      5.2370   -0.0869    1.9745   H         1 RES1   0.0000
   251 H136      2.9461   -0.0871    0.3363   H         1 RES1   0.0000
   252 H137      4.2791   -0.2718   -0.7920   H         1 RES1   0.0000
   253 H138      4.9040    1.8975    0.9724   H         1 RES1   0.0000
   254 H139      3.2266    2.0548    0.4942   H         1 RES1   0.0000
   255 H140      3.9083    2.0884   -1.8870   H         1 RES1   0.0000
   256 H141      5.5907    1.8791   -1.4218   H         1 RES1   0.0000
   257 H142      5.3359    3.9383    0.0688   H         1 RES1   0.0000
   258 H143      3.7513    4.1944   -0.6816   H         1 RES1   0.0000
   259 H144      4.7704    4.6790   -2.8179   H         1 RES1   0.0000
   260 H145      6.3035    4.0027   -2.3064   H         1 RES1   0.0000
   261 H146      6.6313    6.3020   -2.3517   H         1 RES1   0.0000
   262 H147      6.5426    5.8848   -0.6450   H         1 RES1   0.0000
   263 H148      4.1554    6.9483   -2.2036   H         1 RES1   0.0000
   264 H149      5.3907    8.0277   -1.5674   H         1 RES1   0.0000
   265 H150      3.5169    6.2857    0.0858   H         1 RES1   0.0000
   266 H151      3.5116    8.0344   -0.1176   H         1 RES1   0.0000
   267 H152      5.5922    6.3819    1.3853   H         1 RES1   0.0000
   268 H153      4.5536    7.6475    2.0192   H         1 RES1   0.0000
   269 H154      5.8550    8.0628    0.9100   H         1 RES1   0.0000
   270 H155      1.8267   -3.0646   -1.3741   H         1 RES1   0.0000
   271 H156      2.6360   -1.5654   -0.8385   H         1 RES1   0.0000
   272 H157      0.8652   -2.7563   -3.1323   H         1 RES1   0.0000
   273 H158      0.9333   -1.0643   -3.6711   H         1 RES1   0.0000
   274 H159     -3.5108   -2.2554   -3.1823   H         1 RES1   0.0000
   275 H160     -3.5480   -2.7084   -4.8917   H         1 RES1   0.0000
   276 H161     -3.7699   -0.4754   -5.5699   H         1 RES1   0.0000
   277 H162     -2.7150    0.1035   -4.2846   H         1 RES1   0.0000
   278 H163     -5.4578   -0.9724   -3.5950   H         1 RES1   0.0000
   279 H164     -5.2993    0.6335   -4.2685   H         1 RES1   0.0000
   280 H165     -3.3896    0.3720   -2.0639   H         1 RES1   0.0000
   281 H166     -5.0052   -0.1043   -1.5424   H         1 RES1   0.0000
   282 H167     -4.7538    2.2678   -1.1649   H         1 RES1   0.0000
   283 H168     -5.9418    1.9993   -2.4402   H         1 RES1   0.0000
   284 H169     -4.6599    3.7792   -3.2440   H         1 RES1   0.0000
   285 H170     -4.0350    2.3967   -4.1114   H         1 RES1   0.0000
   286 H171     -2.3660    2.5231   -1.8238   H         1 RES1   0.0000
   287 H172     -2.6681    4.2124   -2.2446   H         1 RES1   0.0000
   288 H173     -2.0776    3.5781   -4.6648   H         1 RES1   0.0000
   289 H174     -1.5382    2.0232   -4.0163   H         1 RES1   0.0000
   290 H175     -0.0047    3.4269   -2.4621   H         1 RES1   0.0000
   291 H176     -0.3642    4.7762   -3.5287   H         1 RES1   0.0000
   292 H177      0.8598    2.1039   -4.3410   H         1 RES1   0.0000
   293 H178      1.7509    3.5957   -4.1274   H         1 RES1   0.0000
   294 H179      0.5567    4.6141   -6.0338   H         1 RES1   0.0000
   295 H180     -0.4205    3.1621   -6.2244   H         1 RES1   0.0000
   296 H181      2.6133    3.2768   -6.5097   H         1 RES1   0.0000
   297 H182      1.4569    3.1653   -7.8382   H         1 RES1   0.0000
   298 H183      1.6264    1.8306   -6.6993   H         1 RES1   0.0000
   299 H184     -1.3956   -4.1553   -4.6493   H         1 RES1   0.0000
   300 H185      0.0144   -3.1162   -4.9116   H         1 RES1   0.0000
   301 H186     -2.4469   -2.8065   -6.6376   H         1 RES1   0.0000
   302 H187     -1.2865   -4.0967   -6.8989   H         1 RES1   0.0000
   303 H188     -0.6862   -2.4048   -8.3644   H         1 RES1   0.0000
   304 H189      0.5328   -2.3494   -7.1057   H         1 RES1   0.0000
   305 H190     -0.1873   -0.2368   -6.3559   H         1 RES1   0.0000
   306 H191     -1.8652   -0.5571   -6.7658   H         1 RES1   0.0000
   307 H192      0.3522    0.1332   -8.7398   H         1 RES1   0.0000
   308 H193     -0.9214    1.1975   -8.1715   H         1 RES1   0.0000
   309 H194     -1.1620   -1.2029  -10.0264   H         1 RES1   0.0000
   310 H195     -1.5307    0.4810  -10.3418   H         1 RES1   0.0000
   311 H196     -3.1326   -1.3688   -8.5191   H         1 RES1   0.0000
   312 H197     -3.5472   -0.8824  -10.1532   H         1 RES1   0.0000
   313 H198     -3.7047    1.4746   -9.4562   H         1 RES1   0.0000
   314 H199     -3.2529    1.0329   -7.8085   H         1 RES1   0.0000
   315 H200     -5.2909   -0.2380   -7.4968   H         1 RES1   0.0000
   316 H201     -5.6390   -0.1985   -9.2218   H         1 RES1   0.0000
   317 H202     -7.1437    1.2798   -8.1770   H         1 RES1   0.0000
   318 H203     -6.0057    2.2660   -9.0806   H         1 RES1   0.0000
   319 H204     -5.6497    1.7508   -6.1128   H         1 RES1   0.0000
   320 H205     -6.7403    2.9991   -6.7005   H         1 RES1   0.0000
   321 H206     -3.7230    2.9333   -7.1320   H         1 RES1   0.0000
   322 H207     -4.6607    4.0866   -6.1937   H         1 RES1   0.0000
   323 H208     -4.8138    4.0486   -7.9469   H         1 RES1   0.0000
   324 N5        0.9008    0.9823   -1.4909   N.3       1 RES1   0.0000
   325 O7        1.7774    1.0617   -2.2850   O.2       1 RES1   0.0000
   326 O8       -0.2859    1.1548   -1.7815   O.co2     1 RES1   0.0000
   327 O9        1.1333    0.7189   -0.2990   O.co2     1 RES1   0.0000
@<TRIPOS>BOND
     1     1    28    1
     2     1    30    1
     3     1    33    1
     4     1   189    1
     5     1   191    1
     6     1   194    1
     7     1   326    1
     8     1   327    1
     9     2     3    1
    10     2    59    1
    11     2    60    1
    12     2    61    1
    13     3     4    1
    14     3    62    1
    15     3    63    1
    16     4     5    1
    17     4    64    1
    18     4    65    1
    19     5     6    1
    20     5    66    1
    21     5    67    1
    22     6     7    1
    23     6    68    1
    24     6    69    1
    25     7     8    1
    26     7    70    1
    27     7    71    1
    28     8     9    1
    29     8    72    1
    30     8    73    1
    31     9    10    1
    32     9    74    1
    33     9    75    1
    34    10    11    1
    35    10    76    1
    36    10    77    1
    37    11    12    1
    38    11    78    1
    39    11    79    1
    40    12    13    1
    41    12    80    1
    42    12    81    1
    43    13    14    1
    44    13    82    1
    45    13    83    1
    46    14    15    1
    47    14    27    1
    48    15    16    1
    49    15    84    1
    50    15    85    1
    51    16    17    1
    52    16    86    1
    53    16    87    1
    54    17    18    1
    55    17    88    1
    56    17    89    1
    57    18    19    1
    58    18    90    1
    59    18    91    1
    60    19    20    1
    61    19    92    1
    62    19    93    1
    63    20    21    1
    64    20    94    1
    65    20    95    1
    66    21    22    1
    67    21    96    1
    68    21    97    1
    69    22    23    1
    70    22    98    1
    71    22    99    1
    72    23    24    1
    73    23   100    1
    74    23   101    1
    75    24    25    1
    76    24   102    1
    77    24   103    1
    78    25    26    1
    79    25   104    1
    80    25   105    1
    81    26   106    1
    82    26   107    1
    83    26   108    1
    84    27    28    2
    85    27    29    1
    86    29    30    1
    87    29   109    1
    88    29   110    1
    89    30    31    1
    90    31    32    1
    91    31   111    1
    92    31   112    1
    93    32    33    2
    94    32    34    1
    95    34    35    1
    96    34    47    1
    97    35    36    1
    98    35   113    1
    99    35   114    1
   100    36    37    1
   101    36   115    1
   102    36   116    1
   103    37    38    1
   104    37   117    1
   105    37   118    1
   106    38    39    1
   107    38   119    1
   108    38   120    1
   109    39    40    1
   110    39   121    1
   111    39   122    1
   112    40    41    1
   113    40   123    1
   114    40   124    1
   115    41    42    1
   116    41   125    1
   117    41   126    1
   118    42    43    1
   119    42   127    1
   120    42   128    1
   121    43    44    1
   122    43   129    1
   123    43   130    1
   124    44    45    1
   125    44   131    1
   126    44   132    1
   127    45    46    1
   128    45   133    1
   129    45   134    1
   130    46   135    1
   131    46   136    1
   132    46   137    1
   133    47    48    1
   134    47   138    1
   135    47   139    1
   136    48    49    1
   137    48   140    1
   138    48   141    1
   139    49    50    1
   140    49   142    1
   141    49   143    1
   142    50    51    1
   143    50   144    1
   144    50   145    1
   145    51    52    1
   146    51   146    1
   147    51   147    1
   148    52    53    1
   149    52   148    1
   150    52   149    1
   151    53    54    1
   152    53   150    1
   153    53   151    1
   154    54    55    1
   155    54   152    1
   156    54   153    1
   157    55    56    1
   158    55   154    1
   159    55   155    1
   160    56    57    1
   161    56   156    1
   162    56   157    1
   163    57    58    1
   164    57   158    1
   165    57   159    1
   166    58   160    1
   167    58   161    1
   168    58   162    1
   169   163   164    1
   170   163   220    1
   171   163   221    1
   172   163   222    1
   173   164   165    1
   174   164   223    1
   175   164   224    1
   176   165   166    1
   177   165   225    1
   178   165   226    1
   179   166   167    1
   180   166   227    1
   181   166   228    1
   182   167   168    1
   183   167   229    1
   184   167   230    1
   185   168   169    1
   186   168   231    1
   187   168   232    1
   188   169   170    1
   189   169   233    1
   190   169   234    1
   191   170   171    1
   192   170   235    1
   193   170   236    1
   194   171   172    1
   195   171   237    1
   196   171   238    1
   197   172   173    1
   198   172   239    1
   199   172   240    1
   200   173   174    1
   201   173   241    1
   202   173   242    1
   203   174   175    1
   204   174   243    1
   205   174   244    1
   206   175   176    1
   207   175   188    1
   208   176   177    1
   209   176   245    1
   210   176   246    1
   211   177   178    1
   212   177   247    1
   213   177   248    1
   214   178   179    1
   215   178   249    1
   216   178   250    1
   217   179   180    1
   218   179   251    1
   219   179   252    1
   220   180   181    1
   221   180   253    1
   222   180   254    1
   223   181   182    1
   224   181   255    1
   225   181   256    1
   226   182   183    1
   227   182   257    1
   228   182   258    1
   229   183   184    1
   230   183   259    1
   231   183   260    1
   232   184   185    1
   233   184   261    1
   234   184   262    1
   235   185   186    1
   236   185   263    1
   237   185   264    1
   238   186   187    1
   239   186   265    1
   240   186   266    1
   241   187   267    1
   242   187   268    1
   243   187   269    1
   244   188   189    2
   245   188   190    1
   246   190   191    1
   247   190   270    1
   248   190   271    1
   249   191   192    1
   250   192   193    1
   251   192   272    1
   252   192   273    1
   253   193   194    2
   254   193   195    1
   255   195   196    1
   256   195   208    1
   257   196   197    1
   258   196   274    1
   259   196   275    1
   260   197   198    1
   261   197   276    1
   262   197   277    1
   263   198   199    1
   264   198   278    1
   265   198   279    1
   266   199   200    1
   267   199   280    1
   268   199   281    1
   269   200   201    1
   270   200   282    1
   271   200   283    1
   272   201   202    1
   273   201   284    1
   274   201   285    1
   275   202   203    1
   276   202   286    1
   277   202   287    1
   278   203   204    1
   279   203   288    1
   280   203   289    1
   281   204   205    1
   282   204   290    1
   283   204   291    1
   284   205   206    1
   285   205   292    1
   286   205   293    1
   287   206   207    1
   288   206   294    1
   289   206   295    1
   290   207   296    1
   291   207   297    1
   292   207   298    1
   293   208   209    1
   294   208   299    1
   295   208   300    1
   296   209   210    1
   297   209   301    1
   298   209   302    1
   299   210   211    1
   300   210   303    1
   301   210   304    1
   302   211   212    1
   303   211   305    1
   304   211   306    1
   305   212   213    1
   306   212   307    1
   307   212   308    1
   308   213   214    1
   309   213   309    1
   310   213   310    1
   311   214   215    1
   312   214   311    1
   313   214   312    1
   314   215   216    1
   315   215   313    1
   316   215   314    1
   317   216   217    1
   318   216   315    1
   319   216   316    1
   320   217   218    1
   321   217   317    1
   322   217   318    1
   323   218   219    1
   324   218   319    1
   325   218   320    1
   326   219   321    1
   327   219   322    1
   328   219   323    1
   329   324   325    2
   330   324   326    1
   331   324   327    1
@<TRIPOS>SUBSTRUCTURE
     1 RES1      327 GROUP             0 ****  ****    0  
