@<TRIPOS>MOLECULE
axial_bicapped_trigonal_prismatic_0_nunpairedes_0_charge_3 Charge: 3 Unpaired_Electrons: 1 XTB_Unpaired_Electrons: 0 XTB_Charge: 3
   281   284     1     0     0
SMALL
NoCharges
****
Generated from Architector

@<TRIPOS>ATOM
     1 Yb1       0.2934   -0.0388   -0.2309   Yb        1 RES1   0.0000
     2 C1       -0.3339   -2.2208   -8.7069   C.3       1 RES1   0.0000
     3 C2        1.1725   -2.4543   -8.6781   C.3       1 RES1   0.0000
     4 C3        1.9708   -1.2926   -9.2740   C.3       1 RES1   0.0000
     5 C4        1.8550   -0.0107   -8.4504   C.3       1 RES1   0.0000
     6 C5        2.7375    1.1081   -9.0012   C.3       1 RES1   0.0000
     7 C6        2.5624    2.4421   -8.2701   C.3       1 RES1   0.0000
     8 C7        3.4889    2.6663   -7.0739   C.3       1 RES1   0.0000
     9 C8        3.3758    1.5976   -5.9899   C.3       1 RES1   0.0000
    10 C9        4.1435    1.9326   -4.7113   C.3       1 RES1   0.0000
    11 C10       3.5549    3.0603   -3.8645   C.3       1 RES1   0.0000
    12 C11       2.1203    2.7925   -3.4069   C.3       1 RES1   0.0000
    13 C12       1.6949    3.8379   -2.3760   C.3       1 RES1   0.0000
    14 N1        0.2771    3.7434   -2.0196   N.am      1 RES1   0.0000
    15 C13      -0.5680    4.8570   -2.4090   C.3       1 RES1   0.0000
    16 C14      -0.2908    6.0799   -1.5305   C.3       1 RES1   0.0000
    17 C15      -0.8638    7.3742   -2.1057   C.3       1 RES1   0.0000
    18 C16      -2.3861    7.4954   -2.0325   C.3       1 RES1   0.0000
    19 C17      -3.1532    6.8203   -3.1693   C.3       1 RES1   0.0000
    20 C18      -4.6266    7.2305   -3.1668   C.3       1 RES1   0.0000
    21 C19      -5.4018    6.6150   -4.3317   C.3       1 RES1   0.0000
    22 C20      -6.8733    7.0060   -4.2862   C.3       1 RES1   0.0000
    23 C21      -0.1032    2.7184   -1.2937   C.2       1 RES1   0.0000
    24 O1        0.7266    1.8513   -0.9148   O.2       1 RES1   0.0000
    25 C22      -1.5726    2.5296   -0.8925   C.3       1 RES1   0.0000
    26 O2       -1.7058    1.3477   -0.0820   O.3       1 RES1   0.0000
    27 C23      -2.8763    0.5792   -0.4023   C.3       1 RES1   0.0000
    28 C24      -2.5505   -0.1759   -1.6998   C.2       1 RES1   0.0000
    29 O3       -1.3794   -0.6346   -1.7428   O.2       1 RES1   0.0000
    30 N2       -3.4095   -0.2542   -2.6948   N.am      1 RES1   0.0000
    31 C25      -2.9753   -0.8825   -3.9478   C.3       1 RES1   0.0000
    32 C26      -1.8881   -0.0752   -4.6626   C.3       1 RES1   0.0000
    33 C27      -2.3265    1.3419   -5.0207   C.3       1 RES1   0.0000
    34 C28      -1.2406    2.1080   -5.7739   C.3       1 RES1   0.0000
    35 C29      -1.6401    3.5664   -6.0027   C.3       1 RES1   0.0000
    36 C30      -0.5287    4.3833   -6.6623   C.3       1 RES1   0.0000
    37 C31      -0.9032    5.8580   -6.8132   C.3       1 RES1   0.0000
    38 C32       0.2184    6.6569   -7.4670   C.3       1 RES1   0.0000
    39 C33      -4.7914    0.2195   -2.5928   C.3       1 RES1   0.0000
    40 C34      -4.9595    1.7442   -2.7031   C.3       1 RES1   0.0000
    41 C35      -6.2800    2.2472   -2.0988   C.3       1 RES1   0.0000
    42 C36      -6.1370    3.6644   -1.5258   C.3       1 RES1   0.0000
    43 C37      -5.4475    3.6681   -0.1606   C.3       1 RES1   0.0000
    44 C38      -4.9999    5.0570    0.2924   C.3       1 RES1   0.0000
    45 C39      -4.2617    4.9945    1.6293   C.3       1 RES1   0.0000
    46 C40      -3.7086    6.3521    2.0505   C.3       1 RES1   0.0000
    47 C41      -3.1157    6.3559    3.4584   C.3       1 RES1   0.0000
    48 C42      -1.9090    5.4381    3.6692   C.3       1 RES1   0.0000
    49 C43      -0.7127    5.7788    2.7791   C.3       1 RES1   0.0000
    50 C44       0.5684    5.0990    3.2590   C.3       1 RES1   0.0000
    51 H1       -0.8636   -3.1012   -8.3511   H         1 RES1   0.0000
    52 H2       -0.6155   -1.3765   -8.0804   H         1 RES1   0.0000
    53 H3       -0.6616   -2.0165   -9.7222   H         1 RES1   0.0000
    54 H4        1.4986   -2.6274   -7.6473   H         1 RES1   0.0000
    55 H5        1.3954   -3.3583   -9.2469   H         1 RES1   0.0000
    56 H6        3.0233   -1.5828   -9.3293   H         1 RES1   0.0000
    57 H7        1.6254   -1.1065  -10.2925   H         1 RES1   0.0000
    58 H8        0.8194    0.3368   -8.4597   H         1 RES1   0.0000
    59 H9        2.1191   -0.2452   -7.4180   H         1 RES1   0.0000
    60 H10       3.7854    0.8086   -8.9790   H         1 RES1   0.0000
    61 H11       2.4635    1.2468  -10.0477   H         1 RES1   0.0000
    62 H12       2.7478    3.2521   -8.9754   H         1 RES1   0.0000
    63 H13       1.5257    2.5332   -7.9429   H         1 RES1   0.0000
    64 H14       4.5190    2.6993   -7.4267   H         1 RES1   0.0000
    65 H15       3.2604    3.6470   -6.6525   H         1 RES1   0.0000
    66 H16       2.3243    1.4236   -5.7570   H         1 RES1   0.0000
    67 H17       3.7834    0.6685   -6.3882   H         1 RES1   0.0000
    68 H18       4.2108    1.0320   -4.0951   H         1 RES1   0.0000
    69 H19       5.1603    2.2088   -4.9859   H         1 RES1   0.0000
    70 H20       4.1920    3.1887   -2.9873   H         1 RES1   0.0000
    71 H21       3.5828    3.9926   -4.4261   H         1 RES1   0.0000
    72 H22       1.4443    2.8388   -4.2610   H         1 RES1   0.0000
    73 H23       2.0470    1.7978   -2.9623   H         1 RES1   0.0000
    74 H24       2.2879    3.7108   -1.4657   H         1 RES1   0.0000
    75 H25       1.8679    4.8307   -2.7855   H         1 RES1   0.0000
    76 H26      -0.3504    5.1042   -3.4498   H         1 RES1   0.0000
    77 H27      -1.6147    4.5722   -2.3354   H         1 RES1   0.0000
    78 H28      -0.6994    5.9132   -0.5335   H         1 RES1   0.0000
    79 H29       0.7876    6.1989   -1.4245   H         1 RES1   0.0000
    80 H30      -0.4292    8.1989   -1.5408   H         1 RES1   0.0000
    81 H31      -0.5363    7.4852   -3.1390   H         1 RES1   0.0000
    82 H32      -2.7373    7.1183   -1.0698   H         1 RES1   0.0000
    83 H33      -2.6360    8.5557   -2.0665   H         1 RES1   0.0000
    84 H34      -2.7090    7.1118   -4.1229   H         1 RES1   0.0000
    85 H35      -3.1021    5.7285   -3.1028   H         1 RES1   0.0000
    86 H36      -5.0899    6.9273   -2.2230   H         1 RES1   0.0000
    87 H37      -4.6975    8.3179   -3.2319   H         1 RES1   0.0000
    88 H38      -4.9627    6.9536   -5.2723   H         1 RES1   0.0000
    89 H39      -5.3113    5.5235   -4.3032   H         1 RES1   0.0000
    90 H40      -6.9785    8.0864   -4.3342   H         1 RES1   0.0000
    91 H41      -7.4101    6.5730   -5.1254   H         1 RES1   0.0000
    92 H42      -7.3357    6.6600   -3.3641   H         1 RES1   0.0000
    93 H43      -1.9382    3.3845   -0.3100   H         1 RES1   0.0000
    94 H44      -2.1700    2.4283   -1.8067   H         1 RES1   0.0000
    95 H45      -2.9979   -0.1432    0.4138   H         1 RES1   0.0000
    96 H46      -3.7674    1.2094   -0.4316   H         1 RES1   0.0000
    97 H47      -2.5867   -1.8781   -3.7198   H         1 RES1   0.0000
    98 H48      -3.8434   -0.9922   -4.5978   H         1 RES1   0.0000
    99 H49      -0.9951   -0.0288   -4.0341   H         1 RES1   0.0000
   100 H50      -1.6195   -0.6116   -5.5730   H         1 RES1   0.0000
   101 H51      -3.2282    1.3048   -5.6331   H         1 RES1   0.0000
   102 H52      -2.5618    1.8904   -4.1032   H         1 RES1   0.0000
   103 H53      -0.3122    2.0692   -5.1959   H         1 RES1   0.0000
   104 H54      -1.0478    1.6297   -6.7352   H         1 RES1   0.0000
   105 H55      -2.5295    3.6045   -6.6346   H         1 RES1   0.0000
   106 H56      -1.9040    4.0256   -5.0435   H         1 RES1   0.0000
   107 H57       0.3909    4.3050   -6.0711   H         1 RES1   0.0000
   108 H58      -0.3168    3.9747   -7.6521   H         1 RES1   0.0000
   109 H59      -1.8076    5.9413   -7.4185   H         1 RES1   0.0000
   110 H60      -1.1310    6.2810   -5.8294   H         1 RES1   0.0000
   111 H61       0.4387    6.2648   -8.4568   H         1 RES1   0.0000
   112 H62      -0.0677    7.7002   -7.5695   H         1 RES1   0.0000
   113 H63       1.1286    6.6059   -6.8716   H         1 RES1   0.0000
   114 H64      -5.3565   -0.2458   -3.4008   H         1 RES1   0.0000
   115 H65      -5.2184   -0.1290   -1.6480   H         1 RES1   0.0000
   116 H66      -4.1475    2.2531   -2.1877   H         1 RES1   0.0000
   117 H67      -4.9046    2.0549   -3.7446   H         1 RES1   0.0000
   118 H68      -7.0457    2.2496   -2.8710   H         1 RES1   0.0000
   119 H69      -6.6173    1.5778   -1.3038   H         1 RES1   0.0000
   120 H70      -5.5803    4.2891   -2.2271   H         1 RES1   0.0000
   121 H71      -7.1258    4.1085   -1.4141   H         1 RES1   0.0000
   122 H72      -6.1302    3.2418    0.5762   H         1 RES1   0.0000
   123 H73      -4.5614    3.0223   -0.1907   H         1 RES1   0.0000
   124 H74      -4.3437    5.4866   -0.4708   H         1 RES1   0.0000
   125 H75      -5.8674    5.7111    0.3866   H         1 RES1   0.0000
   126 H76      -4.9452    4.6346    2.3995   H         1 RES1   0.0000
   127 H77      -3.4449    4.2669    1.5506   H         1 RES1   0.0000
   128 H78      -2.9603    6.6849    1.3300   H         1 RES1   0.0000
   129 H79      -4.5179    7.0812    2.0284   H         1 RES1   0.0000
   130 H80      -2.8156    7.3750    3.7040   H         1 RES1   0.0000
   131 H81      -3.8922    6.0652    4.1678   H         1 RES1   0.0000
   132 H82      -1.5991    5.5342    4.7112   H         1 RES1   0.0000
   133 H83      -2.1991    4.3927    3.5152   H         1 RES1   0.0000
   134 H84      -0.9290    5.4944    1.7436   H         1 RES1   0.0000
   135 H85      -0.5559    6.8575    2.7907   H         1 RES1   0.0000
   136 H86       0.4202    4.0325    3.4303   H         1 RES1   0.0000
   137 H87       1.3750    5.2402    2.5413   H         1 RES1   0.0000
   138 H88       0.8809    5.5239    4.2086   H         1 RES1   0.0000
   139 C45       7.8088    2.9484    2.5336   C.3       1 RES1   0.0000
   140 C46       8.2643    3.1205    1.0889   C.3       1 RES1   0.0000
   141 C47       9.0791    1.9333    0.5709   C.3       1 RES1   0.0000
   142 C48       8.2616    0.6449    0.4771   C.3       1 RES1   0.0000
   143 C49       9.0628   -0.4890   -0.1602   C.3       1 RES1   0.0000
   144 C50       8.3458   -1.8415   -0.1579   C.3       1 RES1   0.0000
   145 C51       7.4464   -2.1147   -1.3639   C.3       1 RES1   0.0000
   146 C52       6.2851   -1.1354   -1.5042   C.3       1 RES1   0.0000
   147 C53       5.2507   -1.5371   -2.5560   C.3       1 RES1   0.0000
   148 C54       4.4457   -2.8030   -2.2497   C.3       1 RES1   0.0000
   149 C55       3.7069   -2.7676   -0.9065   C.3       1 RES1   0.0000
   150 C56       2.6478   -3.8746   -0.8629   C.3       1 RES1   0.0000
   151 N3        1.8485   -3.8608    0.3635   N.am      1 RES1   0.0000
   152 C57       1.8880   -5.0014    1.2595   C.3       1 RES1   0.0000
   153 C58       0.7545   -5.9764    0.9282   C.3       1 RES1   0.0000
   154 C59       0.8440   -7.3018    1.6840   C.3       1 RES1   0.0000
   155 C60       0.3392   -7.2604    3.1266   C.3       1 RES1   0.0000
   156 C61       1.2138   -6.4787    4.1071   C.3       1 RES1   0.0000
   157 C62       0.8243   -6.7367    5.5645   C.3       1 RES1   0.0000
   158 C63       1.7226   -5.9644    6.5324   C.3       1 RES1   0.0000
   159 C64       1.2534   -6.1070    7.9742   C.3       1 RES1   0.0000
   160 C65       0.9891   -2.8727    0.4924   C.2       1 RES1   0.0000
   161 O4        0.8826   -1.9991   -0.4007   O.2       1 RES1   0.0000
   162 C66       0.0921   -2.7185    1.7178   C.3       1 RES1   0.0000
   163 O5       -0.6469   -1.4871    1.5802   O.3       1 RES1   0.0000
   164 C67      -0.5380   -0.6405    2.7294   C.3       1 RES1   0.0000
   165 C68       0.8985   -0.0839    2.7837   C.2       1 RES1   0.0000
   166 O6        1.4730    0.0228    1.6681   O.2       1 RES1   0.0000
   167 N4        1.4289    0.2535    3.9424   N.am      1 RES1   0.0000
   168 C69       2.6972    0.9942    3.9984   C.3       1 RES1   0.0000
   169 C70       3.8561    0.3171    3.2726   C.3       1 RES1   0.0000
   170 C71       4.0581   -1.1130    3.7585   C.3       1 RES1   0.0000
   171 C72       5.0856   -1.8639    2.9178   C.3       1 RES1   0.0000
   172 C73       5.1255   -3.3448    3.2917   C.3       1 RES1   0.0000
   173 C74       6.0420   -4.1655    2.3855   C.3       1 RES1   0.0000
   174 C75       5.9842   -5.6560    2.7217   C.3       1 RES1   0.0000
   175 C76       6.8492   -6.4845    1.7790   C.3       1 RES1   0.0000
   176 C77       0.7453   -0.0001    5.2160   C.3       1 RES1   0.0000
   177 C78       0.7196   -1.4819    5.6363   C.3       1 RES1   0.0000
   178 C79      -0.4180   -1.7891    6.6291   C.3       1 RES1   0.0000
   179 C80      -1.1001   -3.1435    6.3789   C.3       1 RES1   0.0000
   180 C81      -2.0275   -3.0951    5.1666   C.3       1 RES1   0.0000
   181 C82      -2.6077   -4.4378    4.7230   C.3       1 RES1   0.0000
   182 C83      -3.4906   -4.2221    3.4925   C.3       1 RES1   0.0000
   183 C84      -3.8994   -5.5130    2.7927   C.3       1 RES1   0.0000
   184 C85      -4.9376   -5.2840    1.6933   C.3       1 RES1   0.0000
   185 C86      -4.5316   -4.2889    0.6026   C.3       1 RES1   0.0000
   186 C87      -3.2946   -4.7141   -0.1861   C.3       1 RES1   0.0000
   187 C88      -2.9640   -3.7246   -1.2986   C.3       1 RES1   0.0000
   188 H89       7.3105    3.8484    2.8861   H         1 RES1   0.0000
   189 H90       7.1162    2.1146    2.6308   H         1 RES1   0.0000
   190 H91       8.6641    2.7616    3.1770   H         1 RES1   0.0000
   191 H92       7.3923    3.2703    0.4444   H         1 RES1   0.0000
   192 H93       8.8789    4.0195    1.0220   H         1 RES1   0.0000
   193 H94       9.4620    2.1804   -0.4228   H         1 RES1   0.0000
   194 H95       9.9378    1.7756    1.2264   H         1 RES1   0.0000
   195 H96       7.9567    0.3303    1.4776   H         1 RES1   0.0000
   196 H97       7.3573    0.8577   -0.0950   H         1 RES1   0.0000
   197 H98       9.3420   -0.2238   -1.1802   H         1 RES1   0.0000
   198 H99       9.9864   -0.5889    0.4115   H         1 RES1   0.0000
   199 H100      9.0993   -2.6287   -0.1365   H         1 RES1   0.0000
   200 H101      7.7583   -1.9358    0.7567   H         1 RES1   0.0000
   201 H102      8.0500   -2.0824   -2.2699   H         1 RES1   0.0000
   202 H103      7.0605   -3.1308   -1.2687   H         1 RES1   0.0000
   203 H104      5.7917   -1.0109   -0.5394   H         1 RES1   0.0000
   204 H105      6.6888   -0.1644   -1.7916   H         1 RES1   0.0000
   205 H106      4.5600   -0.6943   -2.6836   H         1 RES1   0.0000
   206 H107      5.7640   -1.6803   -3.5073   H         1 RES1   0.0000
   207 H108      3.7254   -2.9479   -3.0604   H         1 RES1   0.0000
   208 H109      5.1166   -3.6603   -2.2666   H         1 RES1   0.0000
   209 H110      4.4184   -2.9167   -0.0938   H         1 RES1   0.0000
   210 H111      3.2263   -1.7899   -0.7629   H         1 RES1   0.0000
   211 H112      1.9618   -3.7434   -1.7049   H         1 RES1   0.0000
   212 H113      3.1307   -4.8459   -0.9490   H         1 RES1   0.0000
   213 H114      2.8394   -5.5172    1.1302   H         1 RES1   0.0000
   214 H115      1.8331   -4.6581    2.2920   H         1 RES1   0.0000
   215 H116     -0.2145   -5.5208    1.1319   H         1 RES1   0.0000
   216 H117      0.8033   -6.1746   -0.1436   H         1 RES1   0.0000
   217 H118      0.2318   -8.0251    1.1444   H         1 RES1   0.0000
   218 H119      1.8723   -7.6604    1.6601   H         1 RES1   0.0000
   219 H120     -0.6775   -6.8608    3.1425   H         1 RES1   0.0000
   220 H121      0.2798   -8.2896    3.4815   H         1 RES1   0.0000
   221 H122      2.2608   -6.7560    3.9631   H         1 RES1   0.0000
   222 H123      1.1254   -5.4004    3.9308   H         1 RES1   0.0000
   223 H124     -0.2184   -6.4414    5.7195   H         1 RES1   0.0000
   224 H125      0.8975   -7.8030    5.7846   H         1 RES1   0.0000
   225 H126      2.7457   -6.3345    6.4422   H         1 RES1   0.0000
   226 H127      1.7350   -4.9039    6.2537   H         1 RES1   0.0000
   227 H128      1.2603   -7.1508    8.2741   H         1 RES1   0.0000
   228 H129      1.9072   -5.5549    8.6431   H         1 RES1   0.0000
   229 H130      0.2406   -5.7268    8.0890   H         1 RES1   0.0000
   230 H131     -0.6307   -3.5407    1.7884   H         1 RES1   0.0000
   231 H132      0.7087   -2.7064    2.6229   H         1 RES1   0.0000
   232 H133     -1.2283    0.1989    2.5608   H         1 RES1   0.0000
   233 H134     -0.8589   -1.1639    3.6346   H         1 RES1   0.0000
   234 H135      2.5276    1.9869    3.5722   H         1 RES1   0.0000
   235 H136      2.9684    1.1197    5.0459   H         1 RES1   0.0000
   236 H137      3.6769    0.3192    2.1975   H         1 RES1   0.0000
   237 H138      4.7581    0.9030    3.4508   H         1 RES1   0.0000
   238 H139      4.3703   -1.1072    4.8037   H         1 RES1   0.0000
   239 H140      3.1038   -1.6461    3.6942   H         1 RES1   0.0000
   240 H141      4.8198   -1.7577    1.8613   H         1 RES1   0.0000
   241 H142      6.0727   -1.4211    3.0545   H         1 RES1   0.0000
   242 H143      5.4604   -3.4501    4.3254   H         1 RES1   0.0000
   243 H144      4.1098   -3.7542    3.2348   H         1 RES1   0.0000
   244 H145      5.7499   -4.0222    1.3392   H         1 RES1   0.0000
   245 H146      7.0712   -3.8160    2.4885   H         1 RES1   0.0000
   246 H147      6.3209   -5.8070    3.7490   H         1 RES1   0.0000
   247 H148      4.9455   -6.0002    2.6659   H         1 RES1   0.0000
   248 H149      7.8895   -6.1758    1.8432   H         1 RES1   0.0000
   249 H150      6.7906   -7.5377    2.0399   H         1 RES1   0.0000
   250 H151      6.5226   -6.3654    0.7467   H         1 RES1   0.0000
   251 H152      1.2692    0.5579    5.9929   H         1 RES1   0.0000
   252 H153     -0.2734    0.3951    5.1579   H         1 RES1   0.0000
   253 H154      0.6023   -2.1230    4.7649   H         1 RES1   0.0000
   254 H155      1.6742   -1.7537    6.0838   H         1 RES1   0.0000
   255 H156     -0.0136   -1.7830    7.6386   H         1 RES1   0.0000
   256 H157     -1.1760   -1.0034    6.5768   H         1 RES1   0.0000
   257 H158     -0.3471   -3.9209    6.2464   H         1 RES1   0.0000
   258 H159     -1.6868   -3.4068    7.2595   H         1 RES1   0.0000
   259 H160     -2.8422   -2.3985    5.3783   H         1 RES1   0.0000
   260 H161     -1.4724   -2.7017    4.3091   H         1 RES1   0.0000
   261 H162     -1.7895   -5.1228    4.4833   H         1 RES1   0.0000
   262 H163     -3.1927   -4.8889    5.5245   H         1 RES1   0.0000
   263 H164     -4.3893   -3.6816    3.7924   H         1 RES1   0.0000
   264 H165     -2.9493   -3.5853    2.7836   H         1 RES1   0.0000
   265 H166     -3.0157   -5.9999    2.3784   H         1 RES1   0.0000
   266 H167     -4.3296   -6.1993    3.5209   H         1 RES1   0.0000
   267 H168     -5.1633   -6.2406    1.2206   H         1 RES1   0.0000
   268 H169     -5.8583   -4.9214    2.1537   H         1 RES1   0.0000
   269 H170     -5.3680   -4.1938   -0.0934   H         1 RES1   0.0000
   270 H171     -4.3615   -3.2994    1.0381   H         1 RES1   0.0000
   271 H172     -2.4371   -4.7954    0.4861   H         1 RES1   0.0000
   272 H173     -3.4687   -5.7006   -0.6159   H         1 RES1   0.0000
   273 H174     -2.7361   -2.7423   -0.8797   H         1 RES1   0.0000
   274 H175     -2.1016   -4.0597   -1.8713   H         1 RES1   0.0000
   275 H176     -3.8089   -3.6231   -1.9765   H         1 RES1   0.0000
   276 O7        0.0520    2.2287    1.7360   O.3       1 RES1   0.0000
   277 H177      0.8580    2.7177    1.5344   H         1 RES1   0.0000
   278 H178     -0.4887    2.8480    2.2454   H         1 RES1   0.0000
   279 O8        1.4649   -0.4673   -2.4167   O.3       1 RES1   0.0000
   280 H179      2.4025   -0.5469   -2.6623   H         1 RES1   0.0000
   281 H180      1.0015   -1.1479   -2.9325   H         1 RES1   0.0000
@<TRIPOS>BOND
     1     1    24    1
     2     1    26    1
     3     1    29    1
     4     1   161    1
     5     1   163    1
     6     1   166    1
     7     1   276    1
     8     1   279    1
     9     2     3    1
    10     2    51    1
    11     2    52    1
    12     2    53    1
    13     3     4    1
    14     3    54    1
    15     3    55    1
    16     4     5    1
    17     4    56    1
    18     4    57    1
    19     5     6    1
    20     5    58    1
    21     5    59    1
    22     6     7    1
    23     6    60    1
    24     6    61    1
    25     7     8    1
    26     7    62    1
    27     7    63    1
    28     8     9    1
    29     8    64    1
    30     8    65    1
    31     9    10    1
    32     9    66    1
    33     9    67    1
    34    10    11    1
    35    10    68    1
    36    10    69    1
    37    11    12    1
    38    11    70    1
    39    11    71    1
    40    12    13    1
    41    12    72    1
    42    12    73    1
    43    13    14    1
    44    13    74    1
    45    13    75    1
    46    14    15    1
    47    14    23    1
    48    15    16    1
    49    15    76    1
    50    15    77    1
    51    16    17    1
    52    16    78    1
    53    16    79    1
    54    17    18    1
    55    17    80    1
    56    17    81    1
    57    18    19    1
    58    18    82    1
    59    18    83    1
    60    19    20    1
    61    19    84    1
    62    19    85    1
    63    20    21    1
    64    20    86    1
    65    20    87    1
    66    21    22    1
    67    21    88    1
    68    21    89    1
    69    22    90    1
    70    22    91    1
    71    22    92    1
    72    23    24    2
    73    23    25    1
    74    25    26    1
    75    25    93    1
    76    25    94    1
    77    26    27    1
    78    27    28    1
    79    27    95    1
    80    27    96    1
    81    28    29    2
    82    28    30    1
    83    30    31    1
    84    30    39    1
    85    31    32    1
    86    31    97    1
    87    31    98    1
    88    32    33    1
    89    32    99    1
    90    32   100    1
    91    33    34    1
    92    33   101    1
    93    33   102    1
    94    34    35    1
    95    34   103    1
    96    34   104    1
    97    35    36    1
    98    35   105    1
    99    35   106    1
   100    36    37    1
   101    36   107    1
   102    36   108    1
   103    37    38    1
   104    37   109    1
   105    37   110    1
   106    38   111    1
   107    38   112    1
   108    38   113    1
   109    39    40    1
   110    39   114    1
   111    39   115    1
   112    40    41    1
   113    40   116    1
   114    40   117    1
   115    41    42    1
   116    41   118    1
   117    41   119    1
   118    42    43    1
   119    42   120    1
   120    42   121    1
   121    43    44    1
   122    43   122    1
   123    43   123    1
   124    44    45    1
   125    44   124    1
   126    44   125    1
   127    45    46    1
   128    45   126    1
   129    45   127    1
   130    46    47    1
   131    46   128    1
   132    46   129    1
   133    47    48    1
   134    47   130    1
   135    47   131    1
   136    48    49    1
   137    48   132    1
   138    48   133    1
   139    49    50    1
   140    49   134    1
   141    49   135    1
   142    50   136    1
   143    50   137    1
   144    50   138    1
   145   139   140    1
   146   139   188    1
   147   139   189    1
   148   139   190    1
   149   140   141    1
   150   140   191    1
   151   140   192    1
   152   141   142    1
   153   141   193    1
   154   141   194    1
   155   142   143    1
   156   142   195    1
   157   142   196    1
   158   143   144    1
   159   143   197    1
   160   143   198    1
   161   144   145    1
   162   144   199    1
   163   144   200    1
   164   145   146    1
   165   145   201    1
   166   145   202    1
   167   146   147    1
   168   146   203    1
   169   146   204    1
   170   147   148    1
   171   147   205    1
   172   147   206    1
   173   148   149    1
   174   148   207    1
   175   148   208    1
   176   149   150    1
   177   149   209    1
   178   149   210    1
   179   150   151    1
   180   150   211    1
   181   150   212    1
   182   151   152    1
   183   151   160    1
   184   152   153    1
   185   152   213    1
   186   152   214    1
   187   153   154    1
   188   153   215    1
   189   153   216    1
   190   154   155    1
   191   154   217    1
   192   154   218    1
   193   155   156    1
   194   155   219    1
   195   155   220    1
   196   156   157    1
   197   156   221    1
   198   156   222    1
   199   157   158    1
   200   157   223    1
   201   157   224    1
   202   158   159    1
   203   158   225    1
   204   158   226    1
   205   159   227    1
   206   159   228    1
   207   159   229    1
   208   160   161    2
   209   160   162    1
   210   162   163    1
   211   162   230    1
   212   162   231    1
   213   163   164    1
   214   164   165    1
   215   164   232    1
   216   164   233    1
   217   165   166    2
   218   165   167    1
   219   167   168    1
   220   167   176    1
   221   168   169    1
   222   168   234    1
   223   168   235    1
   224   169   170    1
   225   169   236    1
   226   169   237    1
   227   170   171    1
   228   170   238    1
   229   170   239    1
   230   171   172    1
   231   171   240    1
   232   171   241    1
   233   172   173    1
   234   172   242    1
   235   172   243    1
   236   173   174    1
   237   173   244    1
   238   173   245    1
   239   174   175    1
   240   174   246    1
   241   174   247    1
   242   175   248    1
   243   175   249    1
   244   175   250    1
   245   176   177    1
   246   176   251    1
   247   176   252    1
   248   177   178    1
   249   177   253    1
   250   177   254    1
   251   178   179    1
   252   178   255    1
   253   178   256    1
   254   179   180    1
   255   179   257    1
   256   179   258    1
   257   180   181    1
   258   180   259    1
   259   180   260    1
   260   181   182    1
   261   181   261    1
   262   181   262    1
   263   182   183    1
   264   182   263    1
   265   182   264    1
   266   183   184    1
   267   183   265    1
   268   183   266    1
   269   184   185    1
   270   184   267    1
   271   184   268    1
   272   185   186    1
   273   185   269    1
   274   185   270    1
   275   186   187    1
   276   186   271    1
   277   186   272    1
   278   187   273    1
   279   187   274    1
   280   187   275    1
   281   276   277    1
   282   276   278    1
   283   279   280    1
   284   279   281    1
@<TRIPOS>SUBSTRUCTURE
     1 RES1      281 GROUP             0 ****  ****    0  
