@<TRIPOS>MOLECULE
ICIGOT_geomtry_0_nunpairedes_0_charge_3 Charge: 3 Unpaired_Electrons: 1 XTB_Unpaired_Electrons: 0 XTB_Charge: 3
    93   100     1     0     0
SMALL
NoCharges
****
Generated from Architector

@<TRIPOS>ATOM
     1 Yb1       0.0770   -0.3176    0.0273   Yb        1 RES1   0.0000
     2 O1       -0.0293    0.6730   -1.8502   O.2       1 RES1   0.0000
     3 C1       -0.3647    1.8685   -2.0575   C.2       1 RES1   0.0000
     4 C2       -1.0689    2.6359   -0.9191   C.3       1 RES1   0.0000
     5 O2       -1.3490    1.7714    0.1939   O.3       1 RES1   0.0000
     6 C3       -2.7285    1.4306    0.4111   C.3       1 RES1   0.0000
     7 C4       -2.9663   -0.0501    0.0463   C.2       1 RES1   0.0000
     8 O3       -2.0027   -0.6755   -0.4663   O.2       1 RES1   0.0000
     9 N1       -4.1149   -0.6208    0.3329   N.am      1 RES1   0.0000
    10 C5       -4.2624   -2.0631    0.1396   C.3       1 RES1   0.0000
    11 C6       -5.5642   -2.4154   -0.5717   C.3       1 RES1   0.0000
    12 C7       -6.7480   -1.8317    0.1873   C.3       1 RES1   0.0000
    13 C8       -6.5622   -0.3245    0.2980   C.3       1 RES1   0.0000
    14 C9       -5.2455    0.0012    1.0102   C.3       1 RES1   0.0000
    15 N2       -0.1165    2.4741   -3.1983   N.am      1 RES1   0.0000
    16 C10      -0.4160    3.8581   -3.5304   C.3       1 RES1   0.0000
    17 C11      -1.5301    3.9131   -4.5783   C.3       1 RES1   0.0000
    18 C12      -1.0908    3.1473   -5.8215   C.3       1 RES1   0.0000
    19 C13      -0.7021    1.7216   -5.4425   C.3       1 RES1   0.0000
    20 C14       0.3746    1.7255   -4.3545   C.3       1 RES1   0.0000
    21 H1       -1.9792    3.1025   -1.3095   H         1 RES1   0.0000
    22 H2       -0.4122    3.4280   -0.5354   H         1 RES1   0.0000
    23 H3       -3.3910    2.1030   -0.1464   H         1 RES1   0.0000
    24 H4       -2.9208    1.5555    1.4857   H         1 RES1   0.0000
    25 H5       -4.2525   -2.5283    1.1298   H         1 RES1   0.0000
    26 H6       -3.4004   -2.4097   -0.4299   H         1 RES1   0.0000
    27 H7       -5.6455   -3.5003   -0.6238   H         1 RES1   0.0000
    28 H8       -5.5426   -2.0198   -1.5876   H         1 RES1   0.0000
    29 H9       -6.8055   -2.2716    1.1838   H         1 RES1   0.0000
    30 H10      -7.6791   -2.0585   -0.3287   H         1 RES1   0.0000
    31 H11      -7.3813    0.1164    0.8655   H         1 RES1   0.0000
    32 H12      -6.5520    0.1220   -0.6972   H         1 RES1   0.0000
    33 H13      -5.2861   -0.4056    2.0273   H         1 RES1   0.0000
    34 H14      -5.1186    1.0808    1.0661   H         1 RES1   0.0000
    35 H15       0.4880    4.2901   -3.9714   H         1 RES1   0.0000
    36 H16      -0.6695    4.4293   -2.6397   H         1 RES1   0.0000
    37 H17      -1.7279    4.9553   -4.8245   H         1 RES1   0.0000
    38 H18      -2.4393    3.4732   -4.1664   H         1 RES1   0.0000
    39 H19      -0.2369    3.6576   -6.2678   H         1 RES1   0.0000
    40 H20      -1.8930    3.1341   -6.5585   H         1 RES1   0.0000
    41 H21      -0.3176    1.1982   -6.3159   H         1 RES1   0.0000
    42 H22      -1.5762    1.1820   -5.0741   H         1 RES1   0.0000
    43 H23       1.2759    2.2191   -4.7272   H         1 RES1   0.0000
    44 H24       0.6139    0.7096   -4.0381   H         1 RES1   0.0000
    45 O4        1.0970   -0.3544    1.9075   O.2       1 RES1   0.0000
    46 C15       1.3948    0.6147    2.6536   C.2       1 RES1   0.0000
    47 C16       1.6295    1.9671    1.9602   C.3       1 RES1   0.0000
    48 O5        1.5411    1.7818    0.5435   O.3       1 RES1   0.0000
    49 C17       2.7918    1.7327   -0.1578   C.3       1 RES1   0.0000
    50 C18       2.9584    0.3867   -0.8892   C.2       1 RES1   0.0000
    51 O6        2.1073   -0.5164   -0.6994   O.2       1 RES1   0.0000
    52 N3        3.9674    0.2341   -1.7165   N.am      1 RES1   0.0000
    53 C19       4.1387   -1.0172   -2.4462   C.3       1 RES1   0.0000
    54 C20       5.4040   -1.7274   -1.9677   C.3       1 RES1   0.0000
    55 C21       6.6081   -0.8086   -2.1457   C.3       1 RES1   0.0000
    56 C22       6.3664    0.5069   -1.4141   C.3       1 RES1   0.0000
    57 C23       5.0724    1.1533   -1.9210   C.3       1 RES1   0.0000
    58 N4        1.4582    0.5018    3.9592   N.am      1 RES1   0.0000
    59 C24       1.7393    1.5705    4.9039   C.3       1 RES1   0.0000
    60 C25       2.8718    1.1621    5.8507   C.3       1 RES1   0.0000
    61 C26       2.5149   -0.1308    6.5739   C.3       1 RES1   0.0000
    62 C27       2.2375   -1.2197    5.5455   C.3       1 RES1   0.0000
    63 C28       1.1309   -0.7727    4.5943   C.3       1 RES1   0.0000
    64 H25       2.5883    2.4145    2.2452   H         1 RES1   0.0000
    65 H26       0.8261    2.6634    2.2396   H         1 RES1   0.0000
    66 H27       3.6264    1.8879    0.5351   H         1 RES1   0.0000
    67 H28       2.7803    2.5436   -0.8994   H         1 RES1   0.0000
    68 H29       4.2265   -0.7783   -3.5089   H         1 RES1   0.0000
    69 H30       3.2520   -1.6303   -2.2868   H         1 RES1   0.0000
    70 H31       5.5396   -2.6419   -2.5437   H         1 RES1   0.0000
    71 H32       5.2883   -1.9921   -0.9148   H         1 RES1   0.0000
    72 H33       6.7593   -0.6087   -3.2065   H         1 RES1   0.0000
    73 H34       7.5079   -1.2897   -1.7657   H         1 RES1   0.0000
    74 H35       7.1950    1.1928   -1.5856   H         1 RES1   0.0000
    75 H36       6.2793    0.3256   -0.3410   H         1 RES1   0.0000
    76 H37       5.1610    1.3353   -2.9958   H         1 RES1   0.0000
    77 H38       4.8942    2.1018   -1.4202   H         1 RES1   0.0000
    78 H39       0.8305    1.7441    5.4901   H         1 RES1   0.0000
    79 H40       1.9939    2.4878    4.3774   H         1 RES1   0.0000
    80 H41       3.0302    1.9661    6.5683   H         1 RES1   0.0000
    81 H42       3.7891    1.0244    5.2757   H         1 RES1   0.0000
    82 H43       1.6318    0.0270    7.1938   H         1 RES1   0.0000
    83 H44       3.3307   -0.4325    7.2281   H         1 RES1   0.0000
    84 H45       1.9208   -2.1376    6.0396   H         1 RES1   0.0000
    85 H46       3.1399   -1.4313    4.9708   H         1 RES1   0.0000
    86 H47       0.2021   -0.6334    5.1556   H         1 RES1   0.0000
    87 H48       0.9806   -1.5111    3.8061   H         1 RES1   0.0000
    88 O7       -1.2813   -1.4766    1.9877   O.3       1 RES1   0.0000
    89 H49      -1.5578   -1.2707    2.8929   H         1 RES1   0.0000
    90 H50      -1.1030   -2.4307    1.9927   H         1 RES1   0.0000
    91 O8        0.3037   -2.5781   -0.7139   O.3       1 RES1   0.0000
    92 H51      -0.0639   -2.8035   -1.5877   H         1 RES1   0.0000
    93 H52       1.0520   -3.1853   -0.5824   H         1 RES1   0.0000
@<TRIPOS>BOND
     1     1     2    1
     2     1     5    1
     3     1     8    1
     4     1    45    1
     5     1    48    1
     6     1    51    1
     7     1    88    1
     8     1    91    1
     9     2     3    2
    10     3     4    1
    11     3    15    1
    12     4     5    1
    13     4    21    1
    14     4    22    1
    15     5     6    1
    16     6     7    1
    17     6    23    1
    18     6    24    1
    19     7     8    2
    20     7     9    1
    21     9    10    1
    22     9    14    1
    23    10    11    1
    24    10    25    1
    25    10    26    1
    26    11    12    1
    27    11    27    1
    28    11    28    1
    29    12    13    1
    30    12    29    1
    31    12    30    1
    32    13    14    1
    33    13    31    1
    34    13    32    1
    35    14    33    1
    36    14    34    1
    37    15    16    1
    38    15    20    1
    39    16    17    1
    40    16    35    1
    41    16    36    1
    42    17    18    1
    43    17    37    1
    44    17    38    1
    45    18    19    1
    46    18    39    1
    47    18    40    1
    48    19    20    1
    49    19    41    1
    50    19    42    1
    51    20    43    1
    52    20    44    1
    53    45    46    2
    54    46    47    1
    55    46    58    1
    56    47    48    1
    57    47    64    1
    58    47    65    1
    59    48    49    1
    60    49    50    1
    61    49    66    1
    62    49    67    1
    63    50    51    2
    64    50    52    1
    65    52    53    1
    66    52    57    1
    67    53    54    1
    68    53    68    1
    69    53    69    1
    70    54    55    1
    71    54    70    1
    72    54    71    1
    73    55    56    1
    74    55    72    1
    75    55    73    1
    76    56    57    1
    77    56    74    1
    78    56    75    1
    79    57    76    1
    80    57    77    1
    81    58    59    1
    82    58    63    1
    83    59    60    1
    84    59    78    1
    85    59    79    1
    86    60    61    1
    87    60    80    1
    88    60    81    1
    89    61    62    1
    90    61    82    1
    91    61    83    1
    92    62    63    1
    93    62    84    1
    94    62    85    1
    95    63    86    1
    96    63    87    1
    97    88    89    1
    98    88    90    1
    99    91    92    1
   100    91    93    1
@<TRIPOS>SUBSTRUCTURE
     1 RES1       93 GROUP             0 ****  ****    0  
