@<TRIPOS>MOLECULE
ICIGOT_geomtry_0_nunpairedes_0_charge_3 Charge: 3 Unpaired_Electrons: 1 XTB_Unpaired_Electrons: 0 XTB_Charge: 3
   197   200     1     0     0
SMALL
NoCharges
****
Generated from Architector

@<TRIPOS>ATOM
     1 Yb1       0.2015   -0.4387    0.0332   Yb        1 RES1   0.0000
     2 C1        0.8680   -4.7647    7.8125   C.3       1 RES1   0.0000
     3 C2        1.0553   -4.4198    6.3364   C.3       1 RES1   0.0000
     4 C3        1.5137   -2.9668    6.2152   C.3       1 RES1   0.0000
     5 C4       -0.2360   -4.7057    5.5537   C.3       1 RES1   0.0000
     6 C5       -0.0222   -4.7170    4.0389   C.3       1 RES1   0.0000
     7 C6       -1.0806   -5.4992    3.2608   C.3       1 RES1   0.0000
     8 C7       -2.4688   -4.8543    3.1650   C.3       1 RES1   0.0000
     9 C8       -3.4732   -5.9146    2.7072   C.3       1 RES1   0.0000
    10 C9       -2.4312   -3.6512    2.2139   C.3       1 RES1   0.0000
    11 C10      -3.7497   -2.8756    2.0912   C.3       1 RES1   0.0000
    12 C11      -4.6910   -3.3639    0.9909   C.3       1 RES1   0.0000
    13 C12      -4.1375   -3.0993   -0.4073   C.3       1 RES1   0.0000
    14 N1       -4.1153   -1.6882   -0.7702   N.am      1 RES1   0.0000
    15 C13      -5.3826   -1.1533   -1.2174   C.3       1 RES1   0.0000
    16 C14      -2.9932   -1.0020   -0.7003   C.2       1 RES1   0.0000
    17 O1       -1.9396   -1.4365   -0.1668   O.2       1 RES1   0.0000
    18 C15      -2.9514    0.3907   -1.3347   C.3       1 RES1   0.0000
    19 O2       -1.5714    0.6979   -1.4382   O.3       1 RES1   0.0000
    20 C16      -1.2781    1.9991   -1.9364   C.3       1 RES1   0.0000
    21 C17       0.2031    1.9002   -2.2939   C.2       1 RES1   0.0000
    22 O3        0.8816    1.0858   -1.6152   O.2       1 RES1   0.0000
    23 N2        0.6893    2.5700   -3.3188   N.am      1 RES1   0.0000
    24 C18       1.9990    2.2328   -3.8464   C.3       1 RES1   0.0000
    25 C19       0.0405    3.7028   -3.9713   C.3       1 RES1   0.0000
    26 C20       0.1239    5.0040   -3.1613   C.3       1 RES1   0.0000
    27 C21       1.5551    5.4612   -2.8598   C.3       1 RES1   0.0000
    28 C22       2.0957    4.8639   -1.5589   C.3       1 RES1   0.0000
    29 C23       3.5543    5.2397   -1.2611   C.3       1 RES1   0.0000
    30 C24       4.5203    4.4415   -2.1377   C.3       1 RES1   0.0000
    31 C25       3.8954    5.0181    0.2202   C.3       1 RES1   0.0000
    32 C26       3.0794    5.8905    1.1869   C.3       1 RES1   0.0000
    33 C27       2.0964    5.0736    2.0241   C.3       1 RES1   0.0000
    34 C28       1.1821    5.9272    2.9097   C.3       1 RES1   0.0000
    35 C29       0.3761    5.0294    3.8503   C.3       1 RES1   0.0000
    36 C30       0.2345    6.7964    2.0870   C.3       1 RES1   0.0000
    37 H1        1.7848   -4.5846    8.3666   H         1 RES1   0.0000
    38 H2        0.0833   -4.1532    8.2511   H         1 RES1   0.0000
    39 H3        0.5991   -5.8098    7.9355   H         1 RES1   0.0000
    40 H4        1.8442   -5.0626    5.9306   H         1 RES1   0.0000
    41 H5        0.8125   -2.3206    6.7397   H         1 RES1   0.0000
    42 H6        2.4929   -2.8551    6.6766   H         1 RES1   0.0000
    43 H7        1.5841   -2.6479    5.1741   H         1 RES1   0.0000
    44 H8       -0.5742   -5.6980    5.8526   H         1 RES1   0.0000
    45 H9       -1.0108   -3.9880    5.8363   H         1 RES1   0.0000
    46 H10       0.0496   -3.6974    3.6483   H         1 RES1   0.0000
    47 H11       0.9332   -5.2101    3.8509   H         1 RES1   0.0000
    48 H12      -0.7149   -5.6773    2.2460   H         1 RES1   0.0000
    49 H13      -1.1875   -6.4742    3.7349   H         1 RES1   0.0000
    50 H14      -2.7632   -4.5054    4.1584   H         1 RES1   0.0000
    51 H15      -3.2829   -6.2046    1.6744   H         1 RES1   0.0000
    52 H16      -3.3822   -6.8059    3.3250   H         1 RES1   0.0000
    53 H17      -4.4968   -5.5595    2.8053   H         1 RES1   0.0000
    54 H18      -1.6687   -2.9541    2.5669   H         1 RES1   0.0000
    55 H19      -2.1047   -3.9992    1.2342   H         1 RES1   0.0000
    56 H20      -4.2823   -2.9137    3.0419   H         1 RES1   0.0000
    57 H21      -3.5300   -1.8222    1.8883   H         1 RES1   0.0000
    58 H22      -4.8532   -4.4365    1.0816   H         1 RES1   0.0000
    59 H23      -5.6650   -2.8817    1.1035   H         1 RES1   0.0000
    60 H24      -3.1121   -3.4677   -0.4710   H         1 RES1   0.0000
    61 H25      -4.7524   -3.6116   -1.1480   H         1 RES1   0.0000
    62 H26      -5.6837   -1.6190   -2.1570   H         1 RES1   0.0000
    63 H27      -6.1407   -1.3881   -0.4700   H         1 RES1   0.0000
    64 H28      -5.3558   -0.0762   -1.3450   H         1 RES1   0.0000
    65 H29      -3.4199    0.3844   -2.3245   H         1 RES1   0.0000
    66 H30      -3.4775    1.1311   -0.7145   H         1 RES1   0.0000
    67 H31      -1.8924    2.2238   -2.8104   H         1 RES1   0.0000
    68 H32      -1.4663    2.7530   -1.1563   H         1 RES1   0.0000
    69 H33       2.3755    1.3432   -3.3465   H         1 RES1   0.0000
    70 H34       1.8992    2.0420   -4.9143   H         1 RES1   0.0000
    71 H35       2.7019    3.0494   -3.7090   H         1 RES1   0.0000
    72 H36       0.5551    3.8524   -4.9209   H         1 RES1   0.0000
    73 H37      -1.0026    3.4682   -4.1935   H         1 RES1   0.0000
    74 H38      -0.3815    5.7578   -3.7633   H         1 RES1   0.0000
    75 H39      -0.4349    4.9005   -2.2293   H         1 RES1   0.0000
    76 H40       2.2018    5.2297   -3.7061   H         1 RES1   0.0000
    77 H41       1.5575    6.5454   -2.7565   H         1 RES1   0.0000
    78 H42       1.4652    5.2303   -0.7500   H         1 RES1   0.0000
    79 H43       2.0107    3.7741   -1.5669   H         1 RES1   0.0000
    80 H44       3.6933    6.3033   -1.4737   H         1 RES1   0.0000
    81 H45       4.3643    3.3693   -2.0068   H         1 RES1   0.0000
    82 H46       4.3929    4.6930   -3.1874   H         1 RES1   0.0000
    83 H47       5.5473    4.6704   -1.8685   H         1 RES1   0.0000
    84 H48       3.7450    3.9636    0.4716   H         1 RES1   0.0000
    85 H49       4.9572    5.2300    0.3498   H         1 RES1   0.0000
    86 H50       3.7487    6.4234    1.8609   H         1 RES1   0.0000
    87 H51       2.5459    6.6464    0.6158   H         1 RES1   0.0000
    88 H52       1.4754    4.4523    1.3687   H         1 RES1   0.0000
    89 H53       2.6738    4.4031    2.6678   H         1 RES1   0.0000
    90 H54       1.8057    6.5807    3.5251   H         1 RES1   0.0000
    91 H55      -0.2257    4.3182    3.2813   H         1 RES1   0.0000
    92 H56       1.0357    4.4786    4.5185   H         1 RES1   0.0000
    93 H57      -0.2932    5.6318    4.4595   H         1 RES1   0.0000
    94 H58      -0.3600    6.1865    1.4075   H         1 RES1   0.0000
    95 H59      -0.4422    7.3357    2.7442   H         1 RES1   0.0000
    96 H60       0.7824    7.5312    1.5057   H         1 RES1   0.0000
    97 C31       5.0064   -4.0695    3.3013   C.3       1 RES1   0.0000
    98 C32       4.2559   -3.2656    2.2433   C.3       1 RES1   0.0000
    99 C33       4.1657   -1.8001    2.6732   C.3       1 RES1   0.0000
   100 C34       2.8278   -3.7787    2.0228   C.3       1 RES1   0.0000
   101 C35       2.7166   -5.2497    1.6197   C.3       1 RES1   0.0000
   102 C36       3.2657   -5.5762    0.2298   C.3       1 RES1   0.0000
   103 C37       2.3246   -5.2014   -0.9252   C.3       1 RES1   0.0000
   104 C38       1.2286   -6.2594   -1.0562   C.3       1 RES1   0.0000
   105 C39       3.0984   -5.0855   -2.2556   C.3       1 RES1   0.0000
   106 C40       3.4154   -3.6636   -2.7207   C.3       1 RES1   0.0000
   107 C41       4.1949   -2.8248   -1.7093   C.3       1 RES1   0.0000
   108 C42       4.2274   -1.3554   -2.1439   C.3       1 RES1   0.0000
   109 N3        4.3514   -0.3992   -1.0432   N.am      1 RES1   0.0000
   110 C43       5.6290    0.2645   -0.9048   C.3       1 RES1   0.0000
   111 C44       3.3021   -0.2072   -0.2710   C.2       1 RES1   0.0000
   112 O4        2.2883   -0.9461   -0.3441   O.2       1 RES1   0.0000
   113 C45       3.2470    0.9830    0.6865   C.3       1 RES1   0.0000
   114 O5        1.9319    0.9917    1.2377   O.3       1 RES1   0.0000
   115 C46       1.8445    1.1684    2.6509   C.3       1 RES1   0.0000
   116 C47       0.7549    0.2133    3.1536   C.2       1 RES1   0.0000
   117 O6        0.2929   -0.6216    2.3355   O.2       1 RES1   0.0000
   118 N4        0.3213    0.3333    4.3923   N.am      1 RES1   0.0000
   119 C48       0.8514    1.2595    5.3731   C.3       1 RES1   0.0000
   120 C49      -0.7754   -0.4940    4.8857   C.3       1 RES1   0.0000
   121 C50      -2.1412   -0.0529    4.3353   C.3       1 RES1   0.0000
   122 C51      -2.3598    1.4673    4.2860   C.3       1 RES1   0.0000
   123 C52      -3.6576    1.8376    3.5449   C.3       1 RES1   0.0000
   124 C53      -3.5804    3.1542    2.7498   C.3       1 RES1   0.0000
   125 C54      -3.6917    4.3608    3.6734   C.3       1 RES1   0.0000
   126 C55      -4.6563    3.1973    1.6499   C.3       1 RES1   0.0000
   127 C56      -4.2006    3.9362    0.3916   C.3       1 RES1   0.0000
   128 C57      -5.3227    4.0790   -0.6391   C.3       1 RES1   0.0000
   129 C58      -4.8141    4.6251   -1.9886   C.3       1 RES1   0.0000
   130 C59      -5.6888    5.7639   -2.5008   C.3       1 RES1   0.0000
   131 C60      -4.7447    3.5288   -3.0517   C.3       1 RES1   0.0000
   132 H61       5.9506   -3.5861    3.5378   H         1 RES1   0.0000
   133 H62       4.4185   -4.1392    4.2134   H         1 RES1   0.0000
   134 H63       5.2312   -5.0730    2.9550   H         1 RES1   0.0000
   135 H64       4.8200   -3.3149    1.3066   H         1 RES1   0.0000
   136 H65       3.8512   -1.7391    3.7132   H         1 RES1   0.0000
   137 H66       5.1289   -1.3035    2.5727   H         1 RES1   0.0000
   138 H67       3.4247   -1.2926    2.0574   H         1 RES1   0.0000
   139 H68       2.2905   -3.6410    2.9622   H         1 RES1   0.0000
   140 H69       2.3226   -3.1449    1.2746   H         1 RES1   0.0000
   141 H70       3.2465   -5.8523    2.3578   H         1 RES1   0.0000
   142 H71       1.6670   -5.5432    1.6697   H         1 RES1   0.0000
   143 H72       4.2309   -5.0891    0.1059   H         1 RES1   0.0000
   144 H73       3.4443   -6.6501    0.1723   H         1 RES1   0.0000
   145 H74       1.8338   -4.2428   -0.6959   H         1 RES1   0.0000
   146 H75       1.6715   -7.1975   -1.3803   H         1 RES1   0.0000
   147 H76       0.7381   -6.4294   -0.1008   H         1 RES1   0.0000
   148 H77       0.4740   -5.9664   -1.7871   H         1 RES1   0.0000
   149 H78       4.0287   -5.6480   -2.1763   H         1 RES1   0.0000
   150 H79       2.5137   -5.5552   -3.0483   H         1 RES1   0.0000
   151 H80       3.9898   -3.7234   -3.6473   H         1 RES1   0.0000
   152 H81       2.4798   -3.1454   -2.9678   H         1 RES1   0.0000
   153 H82       3.7177   -2.8991   -0.7352   H         1 RES1   0.0000
   154 H83       5.2119   -3.2085   -1.6196   H         1 RES1   0.0000
   155 H84       5.0576   -1.1822   -2.8257   H         1 RES1   0.0000
   156 H85       3.2913   -1.1114   -2.6592   H         1 RES1   0.0000
   157 H86       6.4112   -0.4863   -0.7742   H         1 RES1   0.0000
   158 H87       5.8571    0.8401   -1.8043   H         1 RES1   0.0000
   159 H88       5.6346    0.9287   -0.0481   H         1 RES1   0.0000
   160 H89       4.0155    0.9191    1.4623   H         1 RES1   0.0000
   161 H90       3.3941    1.9169    0.1209   H         1 RES1   0.0000
   162 H91       2.7944    0.9393    3.1434   H         1 RES1   0.0000
   163 H92       1.5823    2.2194    2.8407   H         1 RES1   0.0000
   164 H93       1.4858    2.0185    4.9293   H         1 RES1   0.0000
   165 H94       0.0217    1.7578    5.8765   H         1 RES1   0.0000
   166 H95       1.4306    0.7171    6.1222   H         1 RES1   0.0000
   167 H96      -0.6017   -1.5363    4.6066   H         1 RES1   0.0000
   168 H97      -0.7613   -0.4254    5.9730   H         1 RES1   0.0000
   169 H98      -2.2587   -0.4836    3.3378   H         1 RES1   0.0000
   170 H99      -2.9012   -0.5072    4.9758   H         1 RES1   0.0000
   171 H100     -2.4018    1.8589    5.3012   H         1 RES1   0.0000
   172 H101     -1.5132    1.9505    3.7869   H         1 RES1   0.0000
   173 H102     -3.9231    1.0187    2.8672   H         1 RES1   0.0000
   174 H103     -4.4800    1.9184    4.2538   H         1 RES1   0.0000
   175 H104     -2.5935    3.2114    2.2592   H         1 RES1   0.0000
   176 H105     -4.6522    4.3711    4.1787   H         1 RES1   0.0000
   177 H106     -2.9120    4.3485    4.4271   H         1 RES1   0.0000
   178 H107     -3.5891    5.2786    3.1065   H         1 RES1   0.0000
   179 H108     -4.9446    2.1796    1.3698   H         1 RES1   0.0000
   180 H109     -5.5516    3.6819    2.0320   H         1 RES1   0.0000
   181 H110     -3.8526    4.9375    0.6506   H         1 RES1   0.0000
   182 H111     -3.3520    3.4021   -0.0576   H         1 RES1   0.0000
   183 H112     -5.8195    3.1192   -0.7914   H         1 RES1   0.0000
   184 H113     -6.0712    4.7589   -0.2370   H         1 RES1   0.0000
   185 H114     -3.8050    5.0235   -1.8320   H         1 RES1   0.0000
   186 H115     -6.7145    5.4296   -2.6184   H         1 RES1   0.0000
   187 H116     -5.6741    6.5989   -1.8067   H         1 RES1   0.0000
   188 H117     -5.3296    6.1074   -3.4671   H         1 RES1   0.0000
   189 H118     -5.7460    3.1838   -3.2950   H         1 RES1   0.0000
   190 H119     -4.2872    3.9183   -3.9580   H         1 RES1   0.0000
   191 H120     -4.1635    2.6741   -2.7063   H         1 RES1   0.0000
   192 O7       -1.4085    1.1137    1.1542   O.3       1 RES1   0.0000
   193 H121     -2.1823    0.5578    1.3521   H         1 RES1   0.0000
   194 H122     -1.4343    1.8093    1.8309   H         1 RES1   0.0000
   195 O8        0.2447   -2.0733   -1.7557   O.3       1 RES1   0.0000
   196 H123     -0.3598   -2.3557   -2.4539   H         1 RES1   0.0000
   197 H124      0.9976   -2.6922   -1.7896   H         1 RES1   0.0000
@<TRIPOS>BOND
     1     1    17    1
     2     1    19    1
     3     1    22    1
     4     1   112    1
     5     1   114    1
     6     1   117    1
     7     1   192    1
     8     1   195    1
     9     2     3    1
    10     2    37    1
    11     2    38    1
    12     2    39    1
    13     3     4    1
    14     3     5    1
    15     3    40    1
    16     4    41    1
    17     4    42    1
    18     4    43    1
    19     5     6    1
    20     5    44    1
    21     5    45    1
    22     6     7    1
    23     6    46    1
    24     6    47    1
    25     7     8    1
    26     7    48    1
    27     7    49    1
    28     8     9    1
    29     8    10    1
    30     8    50    1
    31     9    51    1
    32     9    52    1
    33     9    53    1
    34    10    11    1
    35    10    54    1
    36    10    55    1
    37    11    12    1
    38    11    56    1
    39    11    57    1
    40    12    13    1
    41    12    58    1
    42    12    59    1
    43    13    14    1
    44    13    60    1
    45    13    61    1
    46    14    15    1
    47    14    16    1
    48    15    62    1
    49    15    63    1
    50    15    64    1
    51    16    17    2
    52    16    18    1
    53    18    19    1
    54    18    65    1
    55    18    66    1
    56    19    20    1
    57    20    21    1
    58    20    67    1
    59    20    68    1
    60    21    22    2
    61    21    23    1
    62    23    24    1
    63    23    25    1
    64    24    69    1
    65    24    70    1
    66    24    71    1
    67    25    26    1
    68    25    72    1
    69    25    73    1
    70    26    27    1
    71    26    74    1
    72    26    75    1
    73    27    28    1
    74    27    76    1
    75    27    77    1
    76    28    29    1
    77    28    78    1
    78    28    79    1
    79    29    30    1
    80    29    31    1
    81    29    80    1
    82    30    81    1
    83    30    82    1
    84    30    83    1
    85    31    32    1
    86    31    84    1
    87    31    85    1
    88    32    33    1
    89    32    86    1
    90    32    87    1
    91    33    34    1
    92    33    88    1
    93    33    89    1
    94    34    35    1
    95    34    36    1
    96    34    90    1
    97    35    91    1
    98    35    92    1
    99    35    93    1
   100    36    94    1
   101    36    95    1
   102    36    96    1
   103    97    98    1
   104    97   132    1
   105    97   133    1
   106    97   134    1
   107    98    99    1
   108    98   100    1
   109    98   135    1
   110    99   136    1
   111    99   137    1
   112    99   138    1
   113   100   101    1
   114   100   139    1
   115   100   140    1
   116   101   102    1
   117   101   141    1
   118   101   142    1
   119   102   103    1
   120   102   143    1
   121   102   144    1
   122   103   104    1
   123   103   105    1
   124   103   145    1
   125   104   146    1
   126   104   147    1
   127   104   148    1
   128   105   106    1
   129   105   149    1
   130   105   150    1
   131   106   107    1
   132   106   151    1
   133   106   152    1
   134   107   108    1
   135   107   153    1
   136   107   154    1
   137   108   109    1
   138   108   155    1
   139   108   156    1
   140   109   110    1
   141   109   111    1
   142   110   157    1
   143   110   158    1
   144   110   159    1
   145   111   112    2
   146   111   113    1
   147   113   114    1
   148   113   160    1
   149   113   161    1
   150   114   115    1
   151   115   116    1
   152   115   162    1
   153   115   163    1
   154   116   117    2
   155   116   118    1
   156   118   119    1
   157   118   120    1
   158   119   164    1
   159   119   165    1
   160   119   166    1
   161   120   121    1
   162   120   167    1
   163   120   168    1
   164   121   122    1
   165   121   169    1
   166   121   170    1
   167   122   123    1
   168   122   171    1
   169   122   172    1
   170   123   124    1
   171   123   173    1
   172   123   174    1
   173   124   125    1
   174   124   126    1
   175   124   175    1
   176   125   176    1
   177   125   177    1
   178   125   178    1
   179   126   127    1
   180   126   179    1
   181   126   180    1
   182   127   128    1
   183   127   181    1
   184   127   182    1
   185   128   129    1
   186   128   183    1
   187   128   184    1
   188   129   130    1
   189   129   131    1
   190   129   185    1
   191   130   186    1
   192   130   187    1
   193   130   188    1
   194   131   189    1
   195   131   190    1
   196   131   191    1
   197   192   193    1
   198   192   194    1
   199   195   196    1
   200   195   197    1
@<TRIPOS>SUBSTRUCTURE
     1 RES1      197 GROUP             0 ****  ****    0  
