@<TRIPOS>MOLECULE
axial_bicapped_trigonal_prismatic_0_nunpairedes_0_charge_3 Charge: 3 Unpaired_Electrons: 1 XTB_Unpaired_Electrons: 0 XTB_Charge: 3
    36    44     1     0     0
SMALL
NoCharges
****
Generated from Architector

@<TRIPOS>ATOM
     1 Yb1      -0.5025    0.5872   -0.1634   Yb        1 RES1   0.0000
     2 O1        0.3427   -1.1463   -0.9926   O.2       1 RES1   0.0000
     3 C1        0.4360   -1.9956   -0.0233   C.ar      1 RES1   0.0000
     4 C2        1.7115   -2.5992    0.2370   C.ar      1 RES1   0.0000
     5 O2        2.6461   -2.6392   -0.6713   O.3       1 RES1   0.0000
     6 C3        2.0028   -2.2124    1.5813   C.ar      1 RES1   0.0000
     7 C4        2.6600   -0.9291    1.7317   C.ar      1 RES1   0.0000
     8 C5        2.3026   -0.2142    2.8993   C.ar      1 RES1   0.0000
     9 C6        1.6941    1.0217    2.7700   C.ar      1 RES1   0.0000
    10 C7        1.4137    1.4759    1.4774   C.ar      1 RES1   0.0000
    11 O3        0.3937    2.3824    1.1695   O.3       1 RES1   0.0000
    12 C8        2.1084    0.9251    0.3669   C.ar      1 RES1   0.0000
    13 O4        1.7345    1.4450   -0.8704   O.3       1 RES1   0.0000
    14 C9        2.8915   -0.2038    0.5276   C.ar      1 RES1   0.0000
    15 O5        1.1221   -2.5013    2.5815   O.2       1 RES1   0.0000
    16 C10      -0.1293   -2.0031    2.4442   C.ar      1 RES1   0.0000
    17 C11      -0.8127   -1.3617    3.4280   C.ar      1 RES1   0.0000
    18 C12      -1.9765   -0.7258    2.7678   C.ar      1 RES1   0.0000
    19 O6       -1.5805    0.5273    2.1047   O.3       1 RES1   0.0000
    20 C13      -2.6383   -1.6035    1.9507   C.ar      1 RES1   0.0000
    21 C14      -1.9015   -1.5701    0.6739   C.ar      1 RES1   0.0000
    22 O7       -2.2810   -1.0658   -0.5375   O.3       1 RES1   0.0000
    23 C15      -0.6076   -1.9244    1.0003   C.ar      1 RES1   0.0000
    24 H1        2.3196   -2.7469   -1.5874   H         1 RES1   0.0000
    25 H2        2.3951   -0.7163    3.8545   H         1 RES1   0.0000
    26 H3        1.3503    1.5536    3.6461   H         1 RES1   0.0000
    27 H4        0.5465    3.2348    1.6271   H         1 RES1   0.0000
    28 H5        2.4912    1.4556   -1.4952   H         1 RES1   0.0000
    29 H6        3.4481   -0.6352   -0.2956   H         1 RES1   0.0000
    30 H7       -0.4729   -1.2411    4.4419   H         1 RES1   0.0000
    31 H8       -2.1751    1.1842    2.5172   H         1 RES1   0.0000
    32 H9       -3.0475   -2.5303    2.3337   H         1 RES1   0.0000
    33 H10      -3.1822   -1.3742   -0.7858   H         1 RES1   0.0000
    34 O8       -1.7732    2.0837   -1.4269   O.3       1 RES1   0.0000
    35 H11      -1.7754    2.1803   -2.4044   H         1 RES1   0.0000
    36 H12      -2.3705    2.8021   -1.1276   H         1 RES1   0.0000
@<TRIPOS>BOND
     1     1     2    1
     2     1     5    1
     3     1    11    1
     4     1    13    1
     5     1    15    1
     6     1    19    1
     7     1    22    1
     8     1    34    1
     9     2     3    2
    10     3     4    1
    11     3    23    1
    12     4     5    1
    13     4     6    2
    14     5    24    1
    15     6     7    1
    16     6    15    1
    17     7     8    1
    18     7    14    2
    19     8     9    2
    20     8    25    1
    21     9    10    1
    22     9    26    1
    23    10    11    1
    24    10    12    2
    25    11    27    1
    26    12    13    1
    27    12    14    1
    28    13    28    1
    29    14    29    1
    30    15    16    1
    31    16    17    1
    32    16    23    2
    33    17    18    2
    34    17    30    1
    35    18    19    1
    36    18    20    1
    37    19    31    1
    38    20    21    2
    39    20    32    1
    40    21    22    1
    41    21    23    1
    42    22    33    1
    43    34    35    1
    44    34    36    1
@<TRIPOS>SUBSTRUCTURE
     1 RES1       36 GROUP             0 ****  ****    0  
