@<TRIPOS>MOLECULE
YEMSEP_geometry_0_nunpairedes_0_charge_2 Charge: 2 Unpaired_Electrons: 1 XTB_Unpaired_Electrons: 0 XTB_Charge: 2
   189   193     1     0     0
SMALL
NoCharges
****
Generated from Architector

@<TRIPOS>ATOM
     1 Yb1      -0.1177    0.0068    0.0693   Yb        1 RES1   0.0000
     2 C1       -4.4606    1.2906    1.3466   C.3       1 RES1   0.0000
     3 C2       -3.1600    1.9483    1.8000   C.3       1 RES1   0.0000
     4 C3       -3.4143    3.3860    2.2566   C.3       1 RES1   0.0000
     5 C4       -2.1746    4.2609    2.4826   C.3       1 RES1   0.0000
     6 C5       -0.9631    3.5661    3.1029   C.3       1 RES1   0.0000
     7 C6       -1.2064    3.0348    4.5141   C.3       1 RES1   0.0000
     8 C7        0.0541    2.4331    5.1440   C.3       1 RES1   0.0000
     9 C8        0.6032    1.1986    4.4081   C.3       1 RES1   0.0000
    10 N1        1.8187    1.4402    3.6316   N.am      1 RES1   0.0000
    11 C9        3.0014    1.7522    4.4148   C.3       1 RES1   0.0000
    12 C10       1.8051    1.3216    2.3117   C.2       1 RES1   0.0000
    13 O1        0.7431    1.2768    1.6642   O.2       1 RES1   0.0000
    14 C11       3.1668    1.1966    1.6032   C.3       1 RES1   0.0000
    15 C12       3.6990   -0.2428    1.8149   C.3       1 RES1   0.0000
    16 C13       2.9185   -1.3376    1.0742   C.3       1 RES1   0.0000
    17 O2        1.5365   -1.3832    1.4221   O.3       1 RES1   0.0000
    18 C14       1.2482   -2.2059    2.5766   C.3       1 RES1   0.0000
    19 C15       0.9367   -3.6703    2.2424   C.3       1 RES1   0.0000
    20 C16       2.1264   -4.5960    1.9750   C.3       1 RES1   0.0000
    21 C17       3.2121   -4.6873    3.0553   C.3       1 RES1   0.0000
    22 C18       2.7777   -5.2416    4.4198   C.3       1 RES1   0.0000
    23 C19       2.1530   -4.2214    5.3674   C.3       1 RES1   0.0000
    24 C20       2.9754    1.5156    0.1271   C.2       1 RES1   0.0000
    25 O3        2.0451    0.9862   -0.5107   O.2       1 RES1   0.0000
    26 N2        3.7939    2.4028   -0.4393   N.am      1 RES1   0.0000
    27 C21       4.9533    2.9833    0.2064   C.3       1 RES1   0.0000
    28 C22       3.4543    2.9672   -1.7397   C.3       1 RES1   0.0000
    29 C23       4.2691    2.4057   -2.9058   C.3       1 RES1   0.0000
    30 C24       4.1914    3.2981   -4.1520   C.3       1 RES1   0.0000
    31 C25       2.8221    3.3706   -4.8576   C.3       1 RES1   0.0000
    32 C26       2.1230    4.7297   -4.7236   C.3       1 RES1   0.0000
    33 C27       1.1010    5.0086   -5.8337   C.3       1 RES1   0.0000
    34 C28      -0.1752    4.1620   -5.7992   C.3       1 RES1   0.0000
    35 C29      -1.2267    4.6927   -4.8305   C.3       1 RES1   0.0000
    36 H1       -4.3004    0.2309    1.1670   H         1 RES1   0.0000
    37 H2       -5.2152    1.3834    2.1238   H         1 RES1   0.0000
    38 H3       -4.8473    1.7551    0.4386   H         1 RES1   0.0000
    39 H4       -2.7641    1.3716    2.6365   H         1 RES1   0.0000
    40 H5       -2.4198    1.8920    0.9833   H         1 RES1   0.0000
    41 H6       -4.0509    3.8950    1.5245   H         1 RES1   0.0000
    42 H7       -3.9895    3.3375    3.1835   H         1 RES1   0.0000
    43 H8       -1.8641    4.6747    1.5226   H         1 RES1   0.0000
    44 H9       -2.4657    5.1116    3.1013   H         1 RES1   0.0000
    45 H10      -0.6561    2.7471    2.4545   H         1 RES1   0.0000
    46 H11      -0.1459    4.2926    3.1489   H         1 RES1   0.0000
    47 H12      -1.5432    3.8516    5.1538   H         1 RES1   0.0000
    48 H13      -1.9934    2.2799    4.5050   H         1 RES1   0.0000
    49 H14       0.8283    3.2020    5.1964   H         1 RES1   0.0000
    50 H15      -0.1867    2.1323    6.1660   H         1 RES1   0.0000
    51 H16       0.8806    0.4363    5.1410   H         1 RES1   0.0000
    52 H17      -0.1545    0.7828    3.7382   H         1 RES1   0.0000
    53 H18       2.7043    1.8457    5.4548   H         1 RES1   0.0000
    54 H19       3.7625    0.9746    4.3510   H         1 RES1   0.0000
    55 H20       3.4344    2.7043    4.1028   H         1 RES1   0.0000
    56 H21       3.8767    1.8873    2.0545   H         1 RES1   0.0000
    57 H22       4.7394   -0.2976    1.4817   H         1 RES1   0.0000
    58 H23       3.6867   -0.4676    2.8847   H         1 RES1   0.0000
    59 H24       2.9574   -1.1709   -0.0064   H         1 RES1   0.0000
    60 H25       3.3994   -2.2919    1.3059   H         1 RES1   0.0000
    61 H26       2.0747   -2.1404    3.2881   H         1 RES1   0.0000
    62 H27       0.3653   -1.7515    3.0420   H         1 RES1   0.0000
    63 H28       0.3609   -4.0749    3.0734   H         1 RES1   0.0000
    64 H29       0.2874   -3.6936    1.3643   H         1 RES1   0.0000
    65 H30       1.7181   -5.5967    1.8293   H         1 RES1   0.0000
    66 H31       2.6013   -4.3143    1.0320   H         1 RES1   0.0000
    67 H32       3.9753   -5.3595    2.6567   H         1 RES1   0.0000
    68 H33       3.6966   -3.7181    3.2030   H         1 RES1   0.0000
    69 H34       2.0940   -6.0788    4.2730   H         1 RES1   0.0000
    70 H35       3.6698   -5.6365    4.9107   H         1 RES1   0.0000
    71 H36       1.1803   -3.8790    5.0266   H         1 RES1   0.0000
    72 H37       2.0202   -4.6738    6.3466   H         1 RES1   0.0000
    73 H38       2.8093   -3.3593    5.4831   H         1 RES1   0.0000
    74 H39       5.5617    2.2284    0.7055   H         1 RES1   0.0000
    75 H40       5.5716    3.4453   -0.5614   H         1 RES1   0.0000
    76 H41       4.6645    3.7642    0.9174   H         1 RES1   0.0000
    77 H42       2.3978    2.7756   -1.9081   H         1 RES1   0.0000
    78 H43       3.6108    4.0457   -1.6623   H         1 RES1   0.0000
    79 H44       5.3210    2.3341   -2.6130   H         1 RES1   0.0000
    80 H45       3.9233    1.3990   -3.1472   H         1 RES1   0.0000
    81 H46       4.5181    4.3028   -3.8800   H         1 RES1   0.0000
    82 H47       4.9279    2.9123   -4.8559   H         1 RES1   0.0000
    83 H48       2.9725    3.1926   -5.9237   H         1 RES1   0.0000
    84 H49       2.1847    2.5664   -4.4882   H         1 RES1   0.0000
    85 H50       1.6529    4.8303   -3.7427   H         1 RES1   0.0000
    86 H51       2.8856    5.5073   -4.7945   H         1 RES1   0.0000
    87 H52       0.8103    6.0598   -5.7858   H         1 RES1   0.0000
    88 H53       1.5950    4.8555   -6.7945   H         1 RES1   0.0000
    89 H54      -0.6155    4.1541   -6.7975   H         1 RES1   0.0000
    90 H55       0.0812    3.1292   -5.5517   H         1 RES1   0.0000
    91 H56      -1.5775    5.6707   -5.1530   H         1 RES1   0.0000
    92 H57      -2.0869    4.0262   -4.7952   H         1 RES1   0.0000
    93 H58      -0.8223    4.7990   -3.8275   H         1 RES1   0.0000
    94 C30      -3.2524   -5.5559    0.9962   C.3       1 RES1   0.0000
    95 C31      -2.2189   -5.8247   -0.0903   C.3       1 RES1   0.0000
    96 C32      -2.5122   -5.1549   -1.4356   C.3       1 RES1   0.0000
    97 C33      -3.8309   -5.5901   -2.0921   C.3       1 RES1   0.0000
    98 C34      -5.0679   -4.7534   -1.7496   C.3       1 RES1   0.0000
    99 C35      -5.0327   -3.3272   -2.3166   C.3       1 RES1   0.0000
   100 C36      -4.6841   -2.2703   -1.2674   C.3       1 RES1   0.0000
   101 C37      -4.6252   -0.8578   -1.8553   C.3       1 RES1   0.0000
   102 N3       -3.5415   -0.7177   -2.8247   N.am      1 RES1   0.0000
   103 C38      -3.8459   -0.9241   -4.2267   C.3       1 RES1   0.0000
   104 C39      -2.3236   -0.4518   -2.3717   C.2       1 RES1   0.0000
   105 O4       -2.0927   -0.2048   -1.1739   O.2       1 RES1   0.0000
   106 C40      -1.2008   -0.3774   -3.4155   C.3       1 RES1   0.0000
   107 C41      -0.9324    1.1197   -3.6842   C.3       1 RES1   0.0000
   108 C42       0.0329    1.7975   -2.7108   C.3       1 RES1   0.0000
   109 O5       -0.5035    2.0016   -1.3975   O.3       1 RES1   0.0000
   110 C43      -0.9328    3.3597   -1.1794   C.3       1 RES1   0.0000
   111 C44       0.2567    4.3046   -0.9869   C.3       1 RES1   0.0000
   112 C45      -0.0968    5.6841   -0.4236   C.3       1 RES1   0.0000
   113 C46      -1.3128    6.3430   -1.0730   C.3       1 RES1   0.0000
   114 C47      -1.5618    7.7578   -0.5423   C.3       1 RES1   0.0000
   115 C48      -1.9888    7.8041    0.9220   C.3       1 RES1   0.0000
   116 C49       0.0023   -1.1507   -2.8899   C.2       1 RES1   0.0000
   117 O6        0.4654   -0.9094   -1.7599   O.2       1 RES1   0.0000
   118 N4        0.5006   -2.1610   -3.5973   N.am      1 RES1   0.0000
   119 C50       1.4235   -3.0456   -2.9021   C.3       1 RES1   0.0000
   120 C51       0.4760   -2.3011   -5.0431   C.3       1 RES1   0.0000
   121 C52       1.8737   -2.0520   -5.6331   C.3       1 RES1   0.0000
   122 C53       2.4337   -0.6714   -5.2776   C.3       1 RES1   0.0000
   123 C54       3.8962   -0.4910   -5.7072   C.3       1 RES1   0.0000
   124 C55       4.8769   -1.2957   -4.8501   C.3       1 RES1   0.0000
   125 C56       6.3554   -1.0122   -5.1461   C.3       1 RES1   0.0000
   126 C57       7.0048   -1.9656   -6.1519   C.3       1 RES1   0.0000
   127 C58       6.4763   -1.8480   -7.5779   C.3       1 RES1   0.0000
   128 H59      -2.9065   -5.9671    1.9423   H         1 RES1   0.0000
   129 H60      -4.1966   -6.0359    0.7562   H         1 RES1   0.0000
   130 H61      -3.4123   -4.4882    1.1284   H         1 RES1   0.0000
   131 H62      -2.1341   -6.9022   -0.2425   H         1 RES1   0.0000
   132 H63      -1.2437   -5.4680    0.2512   H         1 RES1   0.0000
   133 H64      -1.6905   -5.4186   -2.1105   H         1 RES1   0.0000
   134 H65      -2.4835   -4.0711   -1.3123   H         1 RES1   0.0000
   135 H66      -4.0274   -6.6260   -1.8098   H         1 RES1   0.0000
   136 H67      -3.7076   -5.5768   -3.1797   H         1 RES1   0.0000
   137 H68      -5.2076   -4.7103   -0.6736   H         1 RES1   0.0000
   138 H69      -5.9327   -5.2713   -2.1656   H         1 RES1   0.0000
   139 H70      -6.0136   -3.0700   -2.7237   H         1 RES1   0.0000
   140 H71      -4.3130   -3.2984   -3.1363   H         1 RES1   0.0000
   141 H72      -3.7296   -2.4990   -0.7887   H         1 RES1   0.0000
   142 H73      -5.4417   -2.2736   -0.4816   H         1 RES1   0.0000
   143 H74      -4.4573   -0.1307   -1.0581   H         1 RES1   0.0000
   144 H75      -5.5628   -0.6217   -2.3588   H         1 RES1   0.0000
   145 H76      -4.9212   -1.0268   -4.3350   H         1 RES1   0.0000
   146 H77      -3.3844   -1.8333   -4.6173   H         1 RES1   0.0000
   147 H78      -3.5296   -0.0697   -4.8292   H         1 RES1   0.0000
   148 H79      -1.5349   -0.8344   -4.3402   H         1 RES1   0.0000
   149 H80      -1.8838    1.6593   -3.6743   H         1 RES1   0.0000
   150 H81      -0.5052    1.2242   -4.6839   H         1 RES1   0.0000
   151 H82       0.3178    2.7547   -3.1482   H         1 RES1   0.0000
   152 H83       0.9313    1.1812   -2.5948   H         1 RES1   0.0000
   153 H84      -1.5428    3.3318   -0.2705   H         1 RES1   0.0000
   154 H85      -1.5645    3.6751   -2.0212   H         1 RES1   0.0000
   155 H86       0.7641    4.4445   -1.9442   H         1 RES1   0.0000
   156 H87       0.9552    3.8124   -0.3017   H         1 RES1   0.0000
   157 H88       0.7683    6.3333   -0.5731   H         1 RES1   0.0000
   158 H89      -0.2596    5.5995    0.6498   H         1 RES1   0.0000
   159 H90      -2.2093    5.7447   -0.8905   H         1 RES1   0.0000
   160 H91      -1.1577    6.4083   -2.1527   H         1 RES1   0.0000
   161 H92      -2.3495    8.2177   -1.1415   H         1 RES1   0.0000
   162 H93      -0.6575    8.3562   -0.6740   H         1 RES1   0.0000
   163 H94      -2.8746    7.1925    1.0861   H         1 RES1   0.0000
   164 H95      -2.2269    8.8281    1.2035   H         1 RES1   0.0000
   165 H96      -1.1973    7.4519    1.5806   H         1 RES1   0.0000
   166 H97       1.0541   -3.2115   -1.8895   H         1 RES1   0.0000
   167 H98       2.4303   -2.6215   -2.8389   H         1 RES1   0.0000
   168 H99       1.4649   -3.9911   -3.4346   H         1 RES1   0.0000
   169 H100     -0.2189   -1.5956   -5.4973   H         1 RES1   0.0000
   170 H101      0.1502   -3.3164   -5.2887   H         1 RES1   0.0000
   171 H102      1.8087   -2.1580   -6.7172   H         1 RES1   0.0000
   172 H103      2.5533   -2.8225   -5.2716   H         1 RES1   0.0000
   173 H104      2.3631   -0.5180   -4.1946   H         1 RES1   0.0000
   174 H105      1.8207    0.0969   -5.7579   H         1 RES1   0.0000
   175 H106      4.1452    0.5681   -5.6147   H         1 RES1   0.0000
   176 H107      3.9954   -0.7595   -6.7586   H         1 RES1   0.0000
   177 H108      4.7016   -2.3655   -4.9717   H         1 RES1   0.0000
   178 H109      4.6791   -1.0515   -3.8016   H         1 RES1   0.0000
   179 H110      6.9152   -1.1069   -4.2140   H         1 RES1   0.0000
   180 H111      6.4728    0.0161   -5.4905   H         1 RES1   0.0000
   181 H112      6.8745   -2.9955   -5.8093   H         1 RES1   0.0000
   182 H113      8.0780   -1.7601   -6.1594   H         1 RES1   0.0000
   183 H114      5.4601   -2.2303   -7.6527   H         1 RES1   0.0000
   184 H115      7.1019   -2.4313   -8.2510   H         1 RES1   0.0000
   185 H116      6.4899   -0.8128   -7.9141   H         1 RES1   0.0000
   186 N5       -1.6090   -1.5910    1.1533   N.3       1 RES1   0.0000
   187 O7       -2.5330   -2.2238    1.5504   O.2       1 RES1   0.0000
   188 O8       -0.8678   -2.0000    0.2492   O.co2     1 RES1   0.0000
   189 O9       -1.3216   -0.4894    1.6547   O.co2     1 RES1   0.0000
@<TRIPOS>BOND
     1     1    13    1
     2     1    17    1
     3     1    25    1
     4     1   105    1
     5     1   109    1
     6     1   117    1
     7     1   188    1
     8     1   189    1
     9     2     3    1
    10     2    36    1
    11     2    37    1
    12     2    38    1
    13     3     4    1
    14     3    39    1
    15     3    40    1
    16     4     5    1
    17     4    41    1
    18     4    42    1
    19     5     6    1
    20     5    43    1
    21     5    44    1
    22     6     7    1
    23     6    45    1
    24     6    46    1
    25     7     8    1
    26     7    47    1
    27     7    48    1
    28     8     9    1
    29     8    49    1
    30     8    50    1
    31     9    10    1
    32     9    51    1
    33     9    52    1
    34    10    11    1
    35    10    12    1
    36    11    53    1
    37    11    54    1
    38    11    55    1
    39    12    13    2
    40    12    14    1
    41    14    15    1
    42    14    24    1
    43    14    56    1
    44    15    16    1
    45    15    57    1
    46    15    58    1
    47    16    17    1
    48    16    59    1
    49    16    60    1
    50    17    18    1
    51    18    19    1
    52    18    61    1
    53    18    62    1
    54    19    20    1
    55    19    63    1
    56    19    64    1
    57    20    21    1
    58    20    65    1
    59    20    66    1
    60    21    22    1
    61    21    67    1
    62    21    68    1
    63    22    23    1
    64    22    69    1
    65    22    70    1
    66    23    71    1
    67    23    72    1
    68    23    73    1
    69    24    25    2
    70    24    26    1
    71    26    27    1
    72    26    28    1
    73    27    74    1
    74    27    75    1
    75    27    76    1
    76    28    29    1
    77    28    77    1
    78    28    78    1
    79    29    30    1
    80    29    79    1
    81    29    80    1
    82    30    31    1
    83    30    81    1
    84    30    82    1
    85    31    32    1
    86    31    83    1
    87    31    84    1
    88    32    33    1
    89    32    85    1
    90    32    86    1
    91    33    34    1
    92    33    87    1
    93    33    88    1
    94    34    35    1
    95    34    89    1
    96    34    90    1
    97    35    91    1
    98    35    92    1
    99    35    93    1
   100    94    95    1
   101    94   128    1
   102    94   129    1
   103    94   130    1
   104    95    96    1
   105    95   131    1
   106    95   132    1
   107    96    97    1
   108    96   133    1
   109    96   134    1
   110    97    98    1
   111    97   135    1
   112    97   136    1
   113    98    99    1
   114    98   137    1
   115    98   138    1
   116    99   100    1
   117    99   139    1
   118    99   140    1
   119   100   101    1
   120   100   141    1
   121   100   142    1
   122   101   102    1
   123   101   143    1
   124   101   144    1
   125   102   103    1
   126   102   104    1
   127   103   145    1
   128   103   146    1
   129   103   147    1
   130   104   105    2
   131   104   106    1
   132   106   107    1
   133   106   116    1
   134   106   148    1
   135   107   108    1
   136   107   149    1
   137   107   150    1
   138   108   109    1
   139   108   151    1
   140   108   152    1
   141   109   110    1
   142   110   111    1
   143   110   153    1
   144   110   154    1
   145   111   112    1
   146   111   155    1
   147   111   156    1
   148   112   113    1
   149   112   157    1
   150   112   158    1
   151   113   114    1
   152   113   159    1
   153   113   160    1
   154   114   115    1
   155   114   161    1
   156   114   162    1
   157   115   163    1
   158   115   164    1
   159   115   165    1
   160   116   117    2
   161   116   118    1
   162   118   119    1
   163   118   120    1
   164   119   166    1
   165   119   167    1
   166   119   168    1
   167   120   121    1
   168   120   169    1
   169   120   170    1
   170   121   122    1
   171   121   171    1
   172   121   172    1
   173   122   123    1
   174   122   173    1
   175   122   174    1
   176   123   124    1
   177   123   175    1
   178   123   176    1
   179   124   125    1
   180   124   177    1
   181   124   178    1
   182   125   126    1
   183   125   179    1
   184   125   180    1
   185   126   127    1
   186   126   181    1
   187   126   182    1
   188   127   183    1
   189   127   184    1
   190   127   185    1
   191   186   187    2
   192   186   188    1
   193   186   189    1
@<TRIPOS>SUBSTRUCTURE
     1 RES1      189 GROUP             0 ****  ****    0  
