@<TRIPOS>MOLECULE
ICIGOT_geomtry_0_nunpairedes_0_charge_3 Charge: 3 Unpaired_Electrons: 1 XTB_Unpaired_Electrons: 0 XTB_Charge: 3
   173   176     1     0     0
SMALL
NoCharges
****
Generated from Architector

@<TRIPOS>ATOM
     1 Yb1      -0.1261   -0.1759    0.1716   Yb        1 RES1   0.0000
     2 C1       -6.9237    5.1999    0.9903   C.3       1 RES1   0.0000
     3 C2       -6.5119    5.0940   -0.4730   C.3       1 RES1   0.0000
     4 C3       -6.1013    6.4564   -1.0254   C.3       1 RES1   0.0000
     5 C4       -5.8055    6.4624   -2.5267   C.3       1 RES1   0.0000
     6 C5       -4.6857    5.5178   -2.9722   C.3       1 RES1   0.0000
     7 C6       -3.3893    5.7533   -2.2009   C.3       1 RES1   0.0000
     8 C7       -2.2413    4.9197   -2.7649   C.3       1 RES1   0.0000
     9 C8       -1.0111    4.9070   -1.8427   C.3       1 RES1   0.0000
    10 N1       -1.1611    3.9980   -0.7094   N.am      1 RES1   0.0000
    11 C9       -1.5223    4.5681    0.5916   C.3       1 RES1   0.0000
    12 C10      -2.8059    4.0123    1.2044   C.3       1 RES1   0.0000
    13 C11      -3.1332    4.7625    2.4896   C.3       1 RES1   0.0000
    14 C12      -0.9385    2.7021   -0.8194   C.2       1 RES1   0.0000
    15 O1       -1.0361    1.9001    0.1387   O.2       1 RES1   0.0000
    16 C13      -0.4237    2.1462   -2.1543   C.3       1 RES1   0.0000
    17 O2       -0.3717    0.7181   -2.1480   O.3       1 RES1   0.0000
    18 C14      -1.3797    0.0381   -2.9079   C.3       1 RES1   0.0000
    19 C15      -2.2532   -0.7974   -1.9609   C.2       1 RES1   0.0000
    20 O3       -2.0201   -0.6964   -0.7279   O.2       1 RES1   0.0000
    21 N2       -3.2170   -1.5629   -2.4230   N.am      1 RES1   0.0000
    22 C16      -3.5955   -1.6583   -3.8293   C.3       1 RES1   0.0000
    23 C17      -3.1643   -2.9695   -4.5044   C.3       1 RES1   0.0000
    24 C18      -4.1545   -4.1060   -4.2920   C.3       1 RES1   0.0000
    25 C19      -4.0326   -2.2851   -1.4364   C.3       1 RES1   0.0000
    26 C20      -3.2974   -3.4406   -0.7402   C.3       1 RES1   0.0000
    27 C21      -4.2404   -4.2448    0.1720   C.3       1 RES1   0.0000
    28 C22      -4.5784   -3.5572    1.5030   C.3       1 RES1   0.0000
    29 C23      -3.6558   -3.8686    2.6910   C.3       1 RES1   0.0000
    30 C24      -2.1736   -3.4790    2.5698   C.3       1 RES1   0.0000
    31 C25      -1.2803   -4.5619    1.9490   C.3       1 RES1   0.0000
    32 C26      -1.1305   -5.8033    2.8254   C.3       1 RES1   0.0000
    33 H1       -7.2119    4.2277    1.3850   H         1 RES1   0.0000
    34 H2       -7.7714    5.8720    1.0920   H         1 RES1   0.0000
    35 H3       -6.1085    5.5948    1.5953   H         1 RES1   0.0000
    36 H4       -7.3480    4.7053   -1.0560   H         1 RES1   0.0000
    37 H5       -5.6865    4.3813   -0.5625   H         1 RES1   0.0000
    38 H6       -5.2362    6.8321   -0.4745   H         1 RES1   0.0000
    39 H7       -6.9167    7.1584   -0.8472   H         1 RES1   0.0000
    40 H8       -5.5408    7.4804   -2.8210   H         1 RES1   0.0000
    41 H9       -6.7143    6.1934   -3.0675   H         1 RES1   0.0000
    42 H10      -4.5067    5.6749   -4.0382   H         1 RES1   0.0000
    43 H11      -5.0043    4.4794   -2.8439   H         1 RES1   0.0000
    44 H12      -3.5480    5.4858   -1.1586   H         1 RES1   0.0000
    45 H13      -3.1295    6.8109   -2.2462   H         1 RES1   0.0000
    46 H14      -1.9429    5.3243   -3.7326   H         1 RES1   0.0000
    47 H15      -2.5946    3.8978   -2.9254   H         1 RES1   0.0000
    48 H16      -0.8703    5.9106   -1.4372   H         1 RES1   0.0000
    49 H17      -0.1072    4.6315   -2.3940   H         1 RES1   0.0000
    50 H18      -1.6316    5.6437    0.4586   H         1 RES1   0.0000
    51 H19      -0.6851    4.3911    1.2735   H         1 RES1   0.0000
    52 H20      -2.6803    2.9511    1.4175   H         1 RES1   0.0000
    53 H21      -3.6333    4.1271    0.5047   H         1 RES1   0.0000
    54 H22      -2.3251    4.6694    3.2119   H         1 RES1   0.0000
    55 H23      -4.0419    4.3708    2.9377   H         1 RES1   0.0000
    56 H24      -3.2884    5.8195    2.2905   H         1 RES1   0.0000
    57 H25       0.6149    2.4845   -2.2681   H         1 RES1   0.0000
    58 H26      -0.9992    2.5200   -3.0021   H         1 RES1   0.0000
    59 H27      -0.8623   -0.5984   -3.6386   H         1 RES1   0.0000
    60 H28      -2.0138    0.7494   -3.4482   H         1 RES1   0.0000
    61 H29      -3.1728   -0.8110   -4.3690   H         1 RES1   0.0000
    62 H30      -4.6841   -1.5729   -3.8717   H         1 RES1   0.0000
    63 H31      -2.1717   -3.2561   -4.1518   H         1 RES1   0.0000
    64 H32      -3.0906   -2.7722   -5.5736   H         1 RES1   0.0000
    65 H33      -4.2233   -4.3988   -3.2505   H         1 RES1   0.0000
    66 H34      -3.8467   -4.9761   -4.8608   H         1 RES1   0.0000
    67 H35      -5.1411   -3.8176   -4.6426   H         1 RES1   0.0000
    68 H36      -4.9203   -2.6559   -1.9446   H         1 RES1   0.0000
    69 H37      -4.3449   -1.5642   -0.6751   H         1 RES1   0.0000
    70 H38      -2.4801   -3.0247   -0.1479   H         1 RES1   0.0000
    71 H39      -2.8797   -4.1121   -1.4933   H         1 RES1   0.0000
    72 H40      -3.8054   -5.2234    0.3848   H         1 RES1   0.0000
    73 H41      -5.1646   -4.4332   -0.3790   H         1 RES1   0.0000
    74 H42      -5.5737   -3.8942    1.8019   H         1 RES1   0.0000
    75 H43      -4.6364   -2.4754    1.3529   H         1 RES1   0.0000
    76 H44      -3.7227   -4.9336    2.9133   H         1 RES1   0.0000
    77 H45      -4.0836   -3.3472    3.5515   H         1 RES1   0.0000
    78 H46      -1.7924   -3.2847    3.5759   H         1 RES1   0.0000
    79 H47      -2.0707   -2.5443    1.9940   H         1 RES1   0.0000
    80 H48      -0.2868   -4.1302    1.7821   H         1 RES1   0.0000
    81 H49      -1.6837   -4.8761    0.9867   H         1 RES1   0.0000
    82 H50      -0.7455   -5.5486    3.8104   H         1 RES1   0.0000
    83 H51      -0.4439   -6.5084    2.3609   H         1 RES1   0.0000
    84 H52      -2.0820   -6.3121    2.9556   H         1 RES1   0.0000
    85 C27       6.7444   -4.5708    2.2972   C.3       1 RES1   0.0000
    86 C28       5.9026   -4.3493    1.0454   C.3       1 RES1   0.0000
    87 C29       4.3895   -4.5156    1.2336   C.3       1 RES1   0.0000
    88 C30       3.6618   -3.3703    1.9503   C.3       1 RES1   0.0000
    89 C31       3.7654   -3.4287    3.4771   C.3       1 RES1   0.0000
    90 C32       3.0767   -2.2505    4.1708   C.3       1 RES1   0.0000
    91 C33       1.5557   -2.2861    4.0366   C.3       1 RES1   0.0000
    92 C34       0.8689   -1.0447    4.6144   C.3       1 RES1   0.0000
    93 N3        1.2755    0.2469    4.0365   N.am      1 RES1   0.0000
    94 C35       1.5953    1.3001    4.9957   C.3       1 RES1   0.0000
    95 C36       3.0214    1.1773    5.5372   C.3       1 RES1   0.0000
    96 C37       4.0968    1.4871    4.5064   C.3       1 RES1   0.0000
    97 C38       1.2648    0.4158    2.7298   C.2       1 RES1   0.0000
    98 O4        0.9154   -0.4885    1.9343   O.2       1 RES1   0.0000
    99 C39       1.5909    1.7958    2.1253   C.3       1 RES1   0.0000
   100 O5        1.5307    1.7576    0.6970   O.3       1 RES1   0.0000
   101 C40       2.7604    1.7750   -0.0343   C.3       1 RES1   0.0000
   102 C41       2.9204    0.4389   -0.7790   C.2       1 RES1   0.0000
   103 O6        1.9733   -0.3842   -0.7129   O.2       1 RES1   0.0000
   104 N4        4.0391    0.1841   -1.4310   N.am      1 RES1   0.0000
   105 C42       4.2213   -1.2065   -1.8803   C.3       1 RES1   0.0000
   106 C43       5.6122   -1.5668   -2.3877   C.3       1 RES1   0.0000
   107 C44       5.6503   -3.0418   -2.7796   C.3       1 RES1   0.0000
   108 C45       4.8940    1.2641   -1.9153   C.3       1 RES1   0.0000
   109 C46       4.2776    1.9124   -3.1713   C.3       1 RES1   0.0000
   110 C47       4.5295    1.0919   -4.4391   C.3       1 RES1   0.0000
   111 C48       3.8842    1.7006   -5.6952   C.3       1 RES1   0.0000
   112 C49       2.6468    0.9507   -6.2050   C.3       1 RES1   0.0000
   113 C50       1.3832    1.0011   -5.3335   C.3       1 RES1   0.0000
   114 C51       0.4925    2.2218   -5.5841   C.3       1 RES1   0.0000
   115 C52       1.0738    3.5518   -5.1152   C.3       1 RES1   0.0000
   116 H53       7.7935   -4.6628    2.0258   H         1 RES1   0.0000
   117 H54       6.4462   -5.4869    2.7997   H         1 RES1   0.0000
   118 H55       6.6561   -3.7450    2.9981   H         1 RES1   0.0000
   119 H56       6.2144   -5.0879    0.3037   H         1 RES1   0.0000
   120 H57       6.1202   -3.3581    0.6361   H         1 RES1   0.0000
   121 H58       4.1946   -5.4473    1.7676   H         1 RES1   0.0000
   122 H59       3.9467   -4.6140    0.2368   H         1 RES1   0.0000
   123 H60       2.6038   -3.4154    1.6646   H         1 RES1   0.0000
   124 H61       4.0512   -2.4088    1.5950   H         1 RES1   0.0000
   125 H62       4.8140   -3.4071    3.7678   H         1 RES1   0.0000
   126 H63       3.3398   -4.3664    3.8395   H         1 RES1   0.0000
   127 H64       3.4639   -1.3262    3.7346   H         1 RES1   0.0000
   128 H65       3.3404   -2.2593    5.2309   H         1 RES1   0.0000
   129 H66       1.1663   -3.1520    4.5773   H         1 RES1   0.0000
   130 H67       1.2791   -2.3980    2.9888   H         1 RES1   0.0000
   131 H68       1.0704   -0.9993    5.6851   H         1 RES1   0.0000
   132 H69      -0.2123   -1.1423    4.4647   H         1 RES1   0.0000
   133 H70       0.8830    1.1989    5.8189   H         1 RES1   0.0000
   134 H71       1.4435    2.2803    4.5430   H         1 RES1   0.0000
   135 H72       3.1652    0.1688    5.9200   H         1 RES1   0.0000
   136 H73       3.1181    1.8638    6.3759   H         1 RES1   0.0000
   137 H74       4.0453    0.8012    3.6628   H         1 RES1   0.0000
   138 H75       5.0725    1.3671    4.9636   H         1 RES1   0.0000
   139 H76       4.0209    2.5140    4.1553   H         1 RES1   0.0000
   140 H77       2.5501    2.1832    2.4768   H         1 RES1   0.0000
   141 H78       0.7861    2.4815    2.4257   H         1 RES1   0.0000
   142 H79       3.6251    1.9341    0.6194   H         1 RES1   0.0000
   143 H80       2.7016    2.6127   -0.7429   H         1 RES1   0.0000
   144 H81       3.4825   -1.4272   -2.6580   H         1 RES1   0.0000
   145 H82       3.9799   -1.8427   -1.0208   H         1 RES1   0.0000
   146 H83       6.3581   -1.3805   -1.6144   H         1 RES1   0.0000
   147 H84       5.8653   -0.9822   -3.2705   H         1 RES1   0.0000
   148 H85       5.4460   -3.6850   -1.9277   H         1 RES1   0.0000
   149 H86       6.6350   -3.2925   -3.1614   H         1 RES1   0.0000
   150 H87       4.9241   -3.2502   -3.5629   H         1 RES1   0.0000
   151 H88       5.8728    0.8569   -2.1620   H         1 RES1   0.0000
   152 H89       5.0397    2.0027   -1.1226   H         1 RES1   0.0000
   153 H90       4.7174    2.9029   -3.2962   H         1 RES1   0.0000
   154 H91       3.2002    2.0379   -3.0217   H         1 RES1   0.0000
   155 H92       4.1472    0.0809   -4.3020   H         1 RES1   0.0000
   156 H93       5.6090    1.0311   -4.5870   H         1 RES1   0.0000
   157 H94       4.6148    1.6752   -6.5039   H         1 RES1   0.0000
   158 H95       3.6537    2.7478   -5.5102   H         1 RES1   0.0000
   159 H96       2.9284   -0.0967   -6.3457   H         1 RES1   0.0000
   160 H97       2.3895    1.3458   -7.1898   H         1 RES1   0.0000
   161 H98       1.6470    0.9364   -4.2729   H         1 RES1   0.0000
   162 H99       0.7827    0.1179   -5.5745   H         1 RES1   0.0000
   163 H100     -0.4708    2.0533   -5.0892   H         1 RES1   0.0000
   164 H101      0.2907    2.2937   -6.6527   H         1 RES1   0.0000
   165 H102      1.4695    3.4812   -4.1007   H         1 RES1   0.0000
   166 H103      0.3116    4.3282   -5.1395   H         1 RES1   0.0000
   167 H104      1.8781    3.8718   -5.7690   H         1 RES1   0.0000
   168 O7       -1.8127    0.0547    2.0497   O.3       1 RES1   0.0000
   169 H105     -2.6375    0.4091    1.6845   H         1 RES1   0.0000
   170 H106     -2.0066   -0.1441    2.9784   H         1 RES1   0.0000
   171 O8        0.0359   -2.4995   -0.7860   O.3       1 RES1   0.0000
   172 H107     -0.3550   -3.3564   -0.5428   H         1 RES1   0.0000
   173 H108      0.6707   -2.6856   -1.4942   H         1 RES1   0.0000
@<TRIPOS>BOND
     1     1    15    1
     2     1    17    1
     3     1    20    1
     4     1    98    1
     5     1   100    1
     6     1   103    1
     7     1   168    1
     8     1   171    1
     9     2     3    1
    10     2    33    1
    11     2    34    1
    12     2    35    1
    13     3     4    1
    14     3    36    1
    15     3    37    1
    16     4     5    1
    17     4    38    1
    18     4    39    1
    19     5     6    1
    20     5    40    1
    21     5    41    1
    22     6     7    1
    23     6    42    1
    24     6    43    1
    25     7     8    1
    26     7    44    1
    27     7    45    1
    28     8     9    1
    29     8    46    1
    30     8    47    1
    31     9    10    1
    32     9    48    1
    33     9    49    1
    34    10    11    1
    35    10    14    1
    36    11    12    1
    37    11    50    1
    38    11    51    1
    39    12    13    1
    40    12    52    1
    41    12    53    1
    42    13    54    1
    43    13    55    1
    44    13    56    1
    45    14    15    2
    46    14    16    1
    47    16    17    1
    48    16    57    1
    49    16    58    1
    50    17    18    1
    51    18    19    1
    52    18    59    1
    53    18    60    1
    54    19    20    2
    55    19    21    1
    56    21    22    1
    57    21    25    1
    58    22    23    1
    59    22    61    1
    60    22    62    1
    61    23    24    1
    62    23    63    1
    63    23    64    1
    64    24    65    1
    65    24    66    1
    66    24    67    1
    67    25    26    1
    68    25    68    1
    69    25    69    1
    70    26    27    1
    71    26    70    1
    72    26    71    1
    73    27    28    1
    74    27    72    1
    75    27    73    1
    76    28    29    1
    77    28    74    1
    78    28    75    1
    79    29    30    1
    80    29    76    1
    81    29    77    1
    82    30    31    1
    83    30    78    1
    84    30    79    1
    85    31    32    1
    86    31    80    1
    87    31    81    1
    88    32    82    1
    89    32    83    1
    90    32    84    1
    91    85    86    1
    92    85   116    1
    93    85   117    1
    94    85   118    1
    95    86    87    1
    96    86   119    1
    97    86   120    1
    98    87    88    1
    99    87   121    1
   100    87   122    1
   101    88    89    1
   102    88   123    1
   103    88   124    1
   104    89    90    1
   105    89   125    1
   106    89   126    1
   107    90    91    1
   108    90   127    1
   109    90   128    1
   110    91    92    1
   111    91   129    1
   112    91   130    1
   113    92    93    1
   114    92   131    1
   115    92   132    1
   116    93    94    1
   117    93    97    1
   118    94    95    1
   119    94   133    1
   120    94   134    1
   121    95    96    1
   122    95   135    1
   123    95   136    1
   124    96   137    1
   125    96   138    1
   126    96   139    1
   127    97    98    2
   128    97    99    1
   129    99   100    1
   130    99   140    1
   131    99   141    1
   132   100   101    1
   133   101   102    1
   134   101   142    1
   135   101   143    1
   136   102   103    2
   137   102   104    1
   138   104   105    1
   139   104   108    1
   140   105   106    1
   141   105   144    1
   142   105   145    1
   143   106   107    1
   144   106   146    1
   145   106   147    1
   146   107   148    1
   147   107   149    1
   148   107   150    1
   149   108   109    1
   150   108   151    1
   151   108   152    1
   152   109   110    1
   153   109   153    1
   154   109   154    1
   155   110   111    1
   156   110   155    1
   157   110   156    1
   158   111   112    1
   159   111   157    1
   160   111   158    1
   161   112   113    1
   162   112   159    1
   163   112   160    1
   164   113   114    1
   165   113   161    1
   166   113   162    1
   167   114   115    1
   168   114   163    1
   169   114   164    1
   170   115   165    1
   171   115   166    1
   172   115   167    1
   173   168   169    1
   174   168   170    1
   175   171   172    1
   176   171   173    1
@<TRIPOS>SUBSTRUCTURE
     1 RES1      173 GROUP             0 ****  ****    0  
