@<TRIPOS>MOLECULE
ICIGOT_geomtry_0_nunpairedes_0_charge_3 Charge: 3 Unpaired_Electrons: 1 XTB_Unpaired_Electrons: 0 XTB_Charge: 3
   221   224     1     0     0
SMALL
NoCharges
****
Generated from Architector

@<TRIPOS>ATOM
     1 Yb1       0.0532    0.2079   -0.2795   Yb        1 RES1   0.0000
     2 C1        1.4434   -4.8695   -2.9395   C.3       1 RES1   0.0000
     3 C2        0.3792   -5.4515   -3.8632   C.3       1 RES1   0.0000
     4 C3        0.8480   -5.4684   -5.3166   C.3       1 RES1   0.0000
     5 C4       -0.1697   -6.0909   -6.2725   C.3       1 RES1   0.0000
     6 C5       -1.4145   -5.2400   -6.5293   C.3       1 RES1   0.0000
     7 C6       -1.1273   -4.0205   -7.4077   C.3       1 RES1   0.0000
     8 C7       -2.3503   -3.1281   -7.6710   C.3       1 RES1   0.0000
     9 C8       -2.0541   -2.0232   -8.7013   C.3       1 RES1   0.0000
    10 C9       -0.7075   -1.2991   -8.5910   C.3       1 RES1   0.0000
    11 C10      -0.7447    0.0277   -9.3522   C.3       1 RES1   0.0000
    12 C11       0.5281    0.8474   -9.1732   C.3       1 RES1   0.0000
    13 C12      -3.0831   -2.5637   -6.4380   C.3       1 RES1   0.0000
    14 C13      -2.4715   -1.3589   -5.7166   C.3       1 RES1   0.0000
    15 C14      -1.2588   -1.7696   -4.8844   C.3       1 RES1   0.0000
    16 N1       -0.6345   -0.6706   -4.1629   N.am      1 RES1   0.0000
    17 C15       0.5071   -0.0240   -4.7864   C.3       1 RES1   0.0000
    18 C16      -1.0618   -0.2196   -3.0013   C.2       1 RES1   0.0000
    19 O1       -0.4119    0.6056   -2.3052   O.2       1 RES1   0.0000
    20 C17      -2.3812   -0.7197   -2.4010   C.3       1 RES1   0.0000
    21 O2       -2.3649   -0.3976   -1.0134   O.3       1 RES1   0.0000
    22 C18      -3.4210    0.4392   -0.5485   C.3       1 RES1   0.0000
    23 C19      -2.8310    1.3851    0.5075   C.2       1 RES1   0.0000
    24 O3       -1.5868    1.3447    0.6910   O.2       1 RES1   0.0000
    25 N2       -3.6213    2.1953    1.1819   N.am      1 RES1   0.0000
    26 C20      -5.0611    2.2639    1.0193   C.3       1 RES1   0.0000
    27 C21      -3.0194    3.1718    2.0989   C.3       1 RES1   0.0000
    28 C22      -2.2364    2.5146    3.2395   C.3       1 RES1   0.0000
    29 C23      -3.1187    1.6791    4.1802   C.3       1 RES1   0.0000
    30 C24      -2.5937    0.2551    4.4101   C.3       1 RES1   0.0000
    31 C25      -1.4219    0.2766    5.3980   C.3       1 RES1   0.0000
    32 C26      -0.6258   -1.0233    5.5188   C.3       1 RES1   0.0000
    33 C27       0.5417   -1.1250    4.5481   C.3       1 RES1   0.0000
    34 C28       1.2631   -2.4530    4.6998   C.3       1 RES1   0.0000
    35 C29      -3.7086   -0.6445    4.9556   C.3       1 RES1   0.0000
    36 C30      -4.8400   -0.9812    3.9853   C.3       1 RES1   0.0000
    37 C31      -4.3862   -1.7450    2.7435   C.3       1 RES1   0.0000
    38 C32      -5.5870   -2.2110    1.9240   C.3       1 RES1   0.0000
    39 C33      -5.2184   -3.1037    0.7396   C.3       1 RES1   0.0000
    40 C34      -6.4640   -3.4948   -0.0521   C.3       1 RES1   0.0000
    41 H1        1.1525   -4.9689   -1.8946   H         1 RES1   0.0000
    42 H2        1.6184   -3.8187   -3.1776   H         1 RES1   0.0000
    43 H3        2.3787   -5.4059   -3.0767   H         1 RES1   0.0000
    44 H4       -0.5423   -4.8717   -3.7691   H         1 RES1   0.0000
    45 H5        0.1572   -6.4723   -3.5513   H         1 RES1   0.0000
    46 H6        1.7659   -6.0546   -5.3675   H         1 RES1   0.0000
    47 H7        1.0997   -4.4550   -5.6375   H         1 RES1   0.0000
    48 H8       -0.4821   -7.0538   -5.8664   H         1 RES1   0.0000
    49 H9        0.3267   -6.2862   -7.2220   H         1 RES1   0.0000
    50 H10      -1.8491   -4.9508   -5.5705   H         1 RES1   0.0000
    51 H11      -2.1522   -5.8632   -7.0336   H         1 RES1   0.0000
    52 H12      -0.7886   -4.3845   -8.3806   H         1 RES1   0.0000
    53 H13      -0.2953   -3.4552   -6.9886   H         1 RES1   0.0000
    54 H14      -3.0922   -3.7859   -8.1357   H         1 RES1   0.0000
    55 H15      -2.8564   -1.2860   -8.6366   H         1 RES1   0.0000
    56 H16      -2.1121   -2.4524   -9.7007   H         1 RES1   0.0000
    57 H17       0.0828   -1.9268   -9.0035   H         1 RES1   0.0000
    58 H18      -0.4404   -1.0915   -7.5530   H         1 RES1   0.0000
    59 H19      -1.5943    0.6179   -8.9990   H         1 RES1   0.0000
    60 H20      -0.9034   -0.1732  -10.4122   H         1 RES1   0.0000
    61 H21       0.6553    1.1528   -8.1336   H         1 RES1   0.0000
    62 H22       0.4872    1.7429   -9.7877   H         1 RES1   0.0000
    63 H23       1.4000    0.2713   -9.4692   H         1 RES1   0.0000
    64 H24      -3.2315   -3.3686   -5.7168   H         1 RES1   0.0000
    65 H25      -4.0728   -2.2599   -6.7852   H         1 RES1   0.0000
    66 H26      -3.2384   -0.9356   -5.0659   H         1 RES1   0.0000
    67 H27      -2.1960   -0.5886   -6.4337   H         1 RES1   0.0000
    68 H28      -0.5119   -2.2082   -5.5447   H         1 RES1   0.0000
    69 H29      -1.5484   -2.5504   -4.1759   H         1 RES1   0.0000
    70 H30       1.2973   -0.7462   -4.9902   H         1 RES1   0.0000
    71 H31       0.8698    0.7499   -4.1119   H         1 RES1   0.0000
    72 H32       0.1996    0.4355   -5.7274   H         1 RES1   0.0000
    73 H33      -2.4720   -1.8047   -2.4952   H         1 RES1   0.0000
    74 H34      -3.2305   -0.2559   -2.9095   H         1 RES1   0.0000
    75 H35      -4.2039   -0.2062   -0.1253   H         1 RES1   0.0000
    76 H36      -3.8423    1.0422   -1.3627   H         1 RES1   0.0000
    77 H37      -5.4499    1.4080    0.4789   H         1 RES1   0.0000
    78 H38      -5.3395    3.1713    0.4810   H         1 RES1   0.0000
    79 H39      -5.5383    2.2908    1.9989   H         1 RES1   0.0000
    80 H40      -3.8194    3.7968    2.4962   H         1 RES1   0.0000
    81 H41      -2.3416    3.8056    1.5174   H         1 RES1   0.0000
    82 H42      -1.7431    3.3177    3.7843   H         1 RES1   0.0000
    83 H43      -1.4574    1.8905    2.7944   H         1 RES1   0.0000
    84 H44      -4.1250    1.6134    3.7689   H         1 RES1   0.0000
    85 H45      -3.2016    2.1792    5.1447   H         1 RES1   0.0000
    86 H46      -2.2419   -0.1414    3.4439   H         1 RES1   0.0000
    87 H47      -1.8389    0.5117    6.3741   H         1 RES1   0.0000
    88 H48      -0.7425    1.0879    5.1287   H         1 RES1   0.0000
    89 H49      -1.2778   -1.8826    5.3774   H         1 RES1   0.0000
    90 H50      -0.2258   -1.0944    6.5291   H         1 RES1   0.0000
    91 H51       1.2426   -0.3180    4.7636   H         1 RES1   0.0000
    92 H52       0.1953   -1.0203    3.5145   H         1 RES1   0.0000
    93 H53       1.5063   -2.6372    5.7398   H         1 RES1   0.0000
    94 H54       2.2074   -2.4785    4.1634   H         1 RES1   0.0000
    95 H55       0.6471   -3.2671    4.3303   H         1 RES1   0.0000
    96 H56      -4.1396   -0.1605    5.8329   H         1 RES1   0.0000
    97 H57      -3.2617   -1.5787    5.2943   H         1 RES1   0.0000
    98 H58      -5.3718   -0.0809    3.6762   H         1 RES1   0.0000
    99 H59      -5.5596   -1.5966    4.5268   H         1 RES1   0.0000
   100 H60      -3.8010   -2.6132    3.0556   H         1 RES1   0.0000
   101 H61      -3.7535   -1.1044    2.1158   H         1 RES1   0.0000
   102 H62      -6.1443   -1.3420    1.5649   H         1 RES1   0.0000
   103 H63      -6.2610   -2.7705    2.5712   H         1 RES1   0.0000
   104 H64      -4.7294   -4.0086    1.1100   H         1 RES1   0.0000
   105 H65      -4.5072   -2.5836    0.0808   H         1 RES1   0.0000
   106 H66      -7.1661   -4.0164    0.5945   H         1 RES1   0.0000
   107 H67      -6.2138   -4.1532   -0.8818   H         1 RES1   0.0000
   108 H68      -6.9603   -2.6097   -0.4482   H         1 RES1   0.0000
   109 C35       6.0174    0.1450    2.7628   C.3       1 RES1   0.0000
   110 C36       5.2461    0.6031    3.9939   C.3       1 RES1   0.0000
   111 C37       4.9407   -0.5255    4.9759   C.3       1 RES1   0.0000
   112 C38       3.8755   -0.1664    6.0129   C.3       1 RES1   0.0000
   113 C39       4.2898    0.8770    7.0541   C.3       1 RES1   0.0000
   114 C40       3.9606    2.3212    6.6676   C.3       1 RES1   0.0000
   115 C41       2.4653    2.6858    6.7059   C.3       1 RES1   0.0000
   116 C42       2.0495    2.7979    8.1835   C.3       1 RES1   0.0000
   117 C43       0.6542    3.3271    8.5178   C.3       1 RES1   0.0000
   118 C44      -0.4823    2.5379    7.8744   C.3       1 RES1   0.0000
   119 C45      -1.8331    2.8463    8.5085   C.3       1 RES1   0.0000
   120 C46       2.2326    4.0006    5.9448   C.3       1 RES1   0.0000
   121 C47       2.4369    3.9312    4.4185   C.3       1 RES1   0.0000
   122 C48       1.1049    3.6739    3.7130   C.3       1 RES1   0.0000
   123 N3        1.1652    3.5598    2.2590   N.am      1 RES1   0.0000
   124 C49       1.0832    4.7855    1.4842   C.3       1 RES1   0.0000
   125 C50       1.2369    2.4029    1.6307   C.2       1 RES1   0.0000
   126 O4        1.0308    2.2277    0.4061   O.2       1 RES1   0.0000
   127 C51       1.6772    1.1956    2.4403   C.3       1 RES1   0.0000
   128 O5        1.4200    0.0348    1.6625   O.3       1 RES1   0.0000
   129 C52       2.4804   -0.9093    1.6645   C.3       1 RES1   0.0000
   130 C53       2.6824   -1.4042    0.2434   C.2       1 RES1   0.0000
   131 O6        2.0693   -0.8038   -0.6766   O.2       1 RES1   0.0000
   132 N4        3.5262   -2.3953    0.0486   N.am      1 RES1   0.0000
   133 C54       3.9842   -2.7050   -1.2926   C.3       1 RES1   0.0000
   134 C55       4.1805   -3.1341    1.1238   C.3       1 RES1   0.0000
   135 C56       4.1176   -4.6467    0.9170   C.3       1 RES1   0.0000
   136 C57       2.6938   -5.2058    0.8558   C.3       1 RES1   0.0000
   137 C58       1.9741   -5.4332    2.1960   C.3       1 RES1   0.0000
   138 C59       0.5416   -5.9265    1.9431   C.3       1 RES1   0.0000
   139 C60      -0.3466   -4.9617    1.1562   C.3       1 RES1   0.0000
   140 C61      -1.8127   -5.4069    1.1134   C.3       1 RES1   0.0000
   141 C62      -2.0480   -6.6368    0.2419   C.3       1 RES1   0.0000
   142 C63       2.7389   -6.4628    3.0443   C.3       1 RES1   0.0000
   143 C64       2.0853   -6.9166    4.3574   C.3       1 RES1   0.0000
   144 C65       1.7792   -5.7720    5.3264   C.3       1 RES1   0.0000
   145 C66       1.5662   -6.2406    6.7665   C.3       1 RES1   0.0000
   146 C67       1.5994   -5.1011    7.7900   C.3       1 RES1   0.0000
   147 C68       0.3075   -4.2942    7.8911   C.3       1 RES1   0.0000
   148 H69       6.1019    0.9479    2.0339   H         1 RES1   0.0000
   149 H70       7.0198   -0.1631    3.0352   H         1 RES1   0.0000
   150 H71       5.5321   -0.7050    2.2856   H         1 RES1   0.0000
   151 H72       5.8184    1.3841    4.4890   H         1 RES1   0.0000
   152 H73       4.2981    1.0518    3.6770   H         1 RES1   0.0000
   153 H74       4.5874   -1.3975    4.4149   H         1 RES1   0.0000
   154 H75       5.8566   -0.8222    5.4822   H         1 RES1   0.0000
   155 H76       2.9905    0.1951    5.4858   H         1 RES1   0.0000
   156 H77       3.5975   -1.0854    6.5305   H         1 RES1   0.0000
   157 H78       3.7959    0.6414    7.9961   H         1 RES1   0.0000
   158 H79       5.3625    0.8053    7.2325   H         1 RES1   0.0000
   159 H80       4.4828    2.9839    7.3607   H         1 RES1   0.0000
   160 H81       4.3632    2.5209    5.6763   H         1 RES1   0.0000
   161 H82       1.8730    1.8868    6.2402   H         1 RES1   0.0000
   162 H83       2.1353    1.8019    8.6206   H         1 RES1   0.0000
   163 H84       2.7685    3.4388    8.6950   H         1 RES1   0.0000
   164 H85       0.5478    3.2626    9.6020   H         1 RES1   0.0000
   165 H86       0.5664    4.3818    8.2564   H         1 RES1   0.0000
   166 H87      -0.5275    2.7626    6.8053   H         1 RES1   0.0000
   167 H88      -0.2734    1.4719    7.9799   H         1 RES1   0.0000
   168 H89      -2.0822    3.8976    8.4012   H         1 RES1   0.0000
   169 H90      -2.6268    2.2621    8.0470   H         1 RES1   0.0000
   170 H91      -1.8146    2.6102    9.5675   H         1 RES1   0.0000
   171 H92       1.2195    4.3491    6.1444   H         1 RES1   0.0000
   172 H93       2.9109    4.7454    6.3589   H         1 RES1   0.0000
   173 H94       2.8511    4.8799    4.0825   H         1 RES1   0.0000
   174 H95       3.1497    3.1502    4.1558   H         1 RES1   0.0000
   175 H96       0.6535    2.7732    4.1317   H         1 RES1   0.0000
   176 H97       0.4343    4.5053    3.9281   H         1 RES1   0.0000
   177 H98       1.2436    5.6327    2.1446   H         1 RES1   0.0000
   178 H99       1.8496    4.7890    0.7077   H         1 RES1   0.0000
   179 H100      0.1051    4.8627    1.0117   H         1 RES1   0.0000
   180 H101      2.7521    1.3137    2.6277   H         1 RES1   0.0000
   181 H102      1.1806    1.0902    3.4074   H         1 RES1   0.0000
   182 H103      3.4206   -0.4404    1.9734   H         1 RES1   0.0000
   183 H104      2.2419   -1.7070    2.3727   H         1 RES1   0.0000
   184 H105      3.6938   -1.9001   -1.9650   H         1 RES1   0.0000
   185 H106      5.0708   -2.7760   -1.2722   H         1 RES1   0.0000
   186 H107      3.5711   -3.6488   -1.6433   H         1 RES1   0.0000
   187 H108      5.2276   -2.8277    1.1609   H         1 RES1   0.0000
   188 H109      3.7268   -2.9008    2.0828   H         1 RES1   0.0000
   189 H110      4.6369   -4.9178    0.0007   H         1 RES1   0.0000
   190 H111      4.6669   -5.1013    1.7381   H         1 RES1   0.0000
   191 H112      2.0882   -4.5259    0.2532   H         1 RES1   0.0000
   192 H113      2.7296   -6.1677    0.3431   H         1 RES1   0.0000
   193 H114      1.9277   -4.4861    2.7440   H         1 RES1   0.0000
   194 H115      0.5888   -6.8837    1.4253   H         1 RES1   0.0000
   195 H116      0.0686   -6.0945    2.9097   H         1 RES1   0.0000
   196 H117     -0.2817   -3.9704    1.6205   H         1 RES1   0.0000
   197 H118      0.0056   -4.8787    0.1236   H         1 RES1   0.0000
   198 H119     -2.1545   -5.6192    2.1273   H         1 RES1   0.0000
   199 H120     -2.4257   -4.5857    0.7211   H         1 RES1   0.0000
   200 H121     -1.5577   -7.5122    0.6546   H         1 RES1   0.0000
   201 H122     -3.1114   -6.8543    0.1814   H         1 RES1   0.0000
   202 H123     -1.6743   -6.4805   -0.7688   H         1 RES1   0.0000
   203 H124      2.9104   -7.3510    2.4329   H         1 RES1   0.0000
   204 H125      3.7152   -6.0467    3.2991   H         1 RES1   0.0000
   205 H126      1.1775   -7.4862    4.1586   H         1 RES1   0.0000
   206 H127      2.7887   -7.6063    4.8295   H         1 RES1   0.0000
   207 H128      2.6190   -5.0728    5.3162   H         1 RES1   0.0000
   208 H129      0.8874   -5.2393    4.9922   H         1 RES1   0.0000
   209 H130      0.6250   -6.7831    6.8482   H         1 RES1   0.0000
   210 H131      2.3608   -6.9407    7.0195   H         1 RES1   0.0000
   211 H132      1.8047   -5.5297    8.7722   H         1 RES1   0.0000
   212 H133      2.4247   -4.4284    7.5397   H         1 RES1   0.0000
   213 H134     -0.5075   -4.9171    8.2483   H         1 RES1   0.0000
   214 H135      0.4328   -3.4776    8.6014   H         1 RES1   0.0000
   215 H136      0.0103   -3.8757    6.9314   H         1 RES1   0.0000
   216 O7       -1.0242   -1.4458    1.2568   O.3       1 RES1   0.0000
   217 H137     -1.2938   -1.0839    2.1238   H         1 RES1   0.0000
   218 H138     -1.6754   -2.1426    1.0684   H         1 RES1   0.0000
   219 O8       -0.1117   -2.2054   -1.2858   O.3       1 RES1   0.0000
   220 H139     -0.4188   -3.0306   -0.8745   H         1 RES1   0.0000
   221 H140      0.5792   -2.4918   -1.9059   H         1 RES1   0.0000
@<TRIPOS>BOND
     1     1    19    1
     2     1    21    1
     3     1    24    1
     4     1   126    1
     5     1   128    1
     6     1   131    1
     7     1   216    1
     8     1   219    1
     9     2     3    1
    10     2    41    1
    11     2    42    1
    12     2    43    1
    13     3     4    1
    14     3    44    1
    15     3    45    1
    16     4     5    1
    17     4    46    1
    18     4    47    1
    19     5     6    1
    20     5    48    1
    21     5    49    1
    22     6     7    1
    23     6    50    1
    24     6    51    1
    25     7     8    1
    26     7    52    1
    27     7    53    1
    28     8     9    1
    29     8    13    1
    30     8    54    1
    31     9    10    1
    32     9    55    1
    33     9    56    1
    34    10    11    1
    35    10    57    1
    36    10    58    1
    37    11    12    1
    38    11    59    1
    39    11    60    1
    40    12    61    1
    41    12    62    1
    42    12    63    1
    43    13    14    1
    44    13    64    1
    45    13    65    1
    46    14    15    1
    47    14    66    1
    48    14    67    1
    49    15    16    1
    50    15    68    1
    51    15    69    1
    52    16    17    1
    53    16    18    1
    54    17    70    1
    55    17    71    1
    56    17    72    1
    57    18    19    2
    58    18    20    1
    59    20    21    1
    60    20    73    1
    61    20    74    1
    62    21    22    1
    63    22    23    1
    64    22    75    1
    65    22    76    1
    66    23    24    2
    67    23    25    1
    68    25    26    1
    69    25    27    1
    70    26    77    1
    71    26    78    1
    72    26    79    1
    73    27    28    1
    74    27    80    1
    75    27    81    1
    76    28    29    1
    77    28    82    1
    78    28    83    1
    79    29    30    1
    80    29    84    1
    81    29    85    1
    82    30    31    1
    83    30    35    1
    84    30    86    1
    85    31    32    1
    86    31    87    1
    87    31    88    1
    88    32    33    1
    89    32    89    1
    90    32    90    1
    91    33    34    1
    92    33    91    1
    93    33    92    1
    94    34    93    1
    95    34    94    1
    96    34    95    1
    97    35    36    1
    98    35    96    1
    99    35    97    1
   100    36    37    1
   101    36    98    1
   102    36    99    1
   103    37    38    1
   104    37   100    1
   105    37   101    1
   106    38    39    1
   107    38   102    1
   108    38   103    1
   109    39    40    1
   110    39   104    1
   111    39   105    1
   112    40   106    1
   113    40   107    1
   114    40   108    1
   115   109   110    1
   116   109   148    1
   117   109   149    1
   118   109   150    1
   119   110   111    1
   120   110   151    1
   121   110   152    1
   122   111   112    1
   123   111   153    1
   124   111   154    1
   125   112   113    1
   126   112   155    1
   127   112   156    1
   128   113   114    1
   129   113   157    1
   130   113   158    1
   131   114   115    1
   132   114   159    1
   133   114   160    1
   134   115   116    1
   135   115   120    1
   136   115   161    1
   137   116   117    1
   138   116   162    1
   139   116   163    1
   140   117   118    1
   141   117   164    1
   142   117   165    1
   143   118   119    1
   144   118   166    1
   145   118   167    1
   146   119   168    1
   147   119   169    1
   148   119   170    1
   149   120   121    1
   150   120   171    1
   151   120   172    1
   152   121   122    1
   153   121   173    1
   154   121   174    1
   155   122   123    1
   156   122   175    1
   157   122   176    1
   158   123   124    1
   159   123   125    1
   160   124   177    1
   161   124   178    1
   162   124   179    1
   163   125   126    2
   164   125   127    1
   165   127   128    1
   166   127   180    1
   167   127   181    1
   168   128   129    1
   169   129   130    1
   170   129   182    1
   171   129   183    1
   172   130   131    2
   173   130   132    1
   174   132   133    1
   175   132   134    1
   176   133   184    1
   177   133   185    1
   178   133   186    1
   179   134   135    1
   180   134   187    1
   181   134   188    1
   182   135   136    1
   183   135   189    1
   184   135   190    1
   185   136   137    1
   186   136   191    1
   187   136   192    1
   188   137   138    1
   189   137   142    1
   190   137   193    1
   191   138   139    1
   192   138   194    1
   193   138   195    1
   194   139   140    1
   195   139   196    1
   196   139   197    1
   197   140   141    1
   198   140   198    1
   199   140   199    1
   200   141   200    1
   201   141   201    1
   202   141   202    1
   203   142   143    1
   204   142   203    1
   205   142   204    1
   206   143   144    1
   207   143   205    1
   208   143   206    1
   209   144   145    1
   210   144   207    1
   211   144   208    1
   212   145   146    1
   213   145   209    1
   214   145   210    1
   215   146   147    1
   216   146   211    1
   217   146   212    1
   218   147   213    1
   219   147   214    1
   220   147   215    1
   221   216   217    1
   222   216   218    1
   223   219   220    1
   224   219   221    1
@<TRIPOS>SUBSTRUCTURE
     1 RES1      221 GROUP             0 ****  ****    0  
