@<TRIPOS>MOLECULE
ICIGOT_geomtry_0_nunpairedes_0_charge_3 Charge: 3 Unpaired_Electrons: 1 XTB_Unpaired_Electrons: 0 XTB_Charge: 3
   161   164     1     0     0
SMALL
NoCharges
****
Generated from Architector

@<TRIPOS>ATOM
     1 Yb1      -0.0117   -0.0138    0.0133   Yb        1 RES1   0.0000
     2 C1       -2.1876   -5.8991   -4.1212   C.3       1 RES1   0.0000
     3 C2       -3.6670   -5.8494   -4.4845   C.3       1 RES1   0.0000
     4 C3       -4.1929   -4.4335   -4.7335   C.3       1 RES1   0.0000
     5 C4       -3.5910   -3.7807   -5.9785   C.3       1 RES1   0.0000
     6 C5       -4.2750   -2.4704   -6.3831   C.3       1 RES1   0.0000
     7 C6       -4.2639   -1.3371   -5.3468   C.3       1 RES1   0.0000
     8 C7       -3.0229   -0.4347   -5.3779   C.3       1 RES1   0.0000
     9 C8       -1.7099   -1.1814   -5.0814   C.3       1 RES1   0.0000
    10 N1       -0.7577   -0.4027   -4.2952   N.am      1 RES1   0.0000
    11 C9        0.3056    0.2861   -5.0292   C.3       1 RES1   0.0000
    12 C10       1.3554   -0.6620   -5.5981   C.3       1 RES1   0.0000
    13 C11      -0.8660   -0.3025   -2.9878   C.2       1 RES1   0.0000
    14 O1       -0.0525    0.2913   -2.2344   O.2       1 RES1   0.0000
    15 C12      -2.0612   -0.9683   -2.2851   C.3       1 RES1   0.0000
    16 O2       -2.1922   -0.4165   -0.9750   O.3       1 RES1   0.0000
    17 C13      -3.1121    0.6714   -0.8713   C.3       1 RES1   0.0000
    18 C14      -2.5074    1.7998   -0.0276   C.2       1 RES1   0.0000
    19 O3       -1.2924    1.6996    0.3062   O.2       1 RES1   0.0000
    20 N2       -3.2528    2.8234    0.3274   N.am      1 RES1   0.0000
    21 C15      -2.6499    3.9488    1.0539   C.3       1 RES1   0.0000
    22 C16      -3.1570    4.0753    2.4825   C.3       1 RES1   0.0000
    23 C17      -4.6725    2.9652    0.0137   C.3       1 RES1   0.0000
    24 C18      -4.9967    4.0808   -0.9845   C.3       1 RES1   0.0000
    25 C19      -4.3866    3.9146   -2.3788   C.3       1 RES1   0.0000
    26 C20      -2.9096    4.3009   -2.4706   C.3       1 RES1   0.0000
    27 C21      -2.3496    4.1368   -3.8802   C.3       1 RES1   0.0000
    28 C22      -0.9065    4.6275   -3.9541   C.3       1 RES1   0.0000
    29 C23      -0.2517    4.3889   -5.3141   C.3       1 RES1   0.0000
    30 C24      -0.9479    5.1255   -6.4511   C.3       1 RES1   0.0000
    31 H1       -1.8990   -6.9183   -3.8830   H         1 RES1   0.0000
    32 H2       -1.9795   -5.2797   -3.2485   H         1 RES1   0.0000
    33 H3       -1.5670   -5.5622   -4.9465   H         1 RES1   0.0000
    34 H4       -4.2408   -6.3031   -3.6729   H         1 RES1   0.0000
    35 H5       -3.8341   -6.4525   -5.3769   H         1 RES1   0.0000
    36 H6       -4.0009   -3.8262   -3.8424   H         1 RES1   0.0000
    37 H7       -5.2740   -4.4912   -4.8633   H         1 RES1   0.0000
    38 H8       -3.7165   -4.4776   -6.8074   H         1 RES1   0.0000
    39 H9       -2.5185   -3.6439   -5.8467   H         1 RES1   0.0000
    40 H10      -5.3144   -2.7139   -6.6077   H         1 RES1   0.0000
    41 H11      -3.8309   -2.1034   -7.3093   H         1 RES1   0.0000
    42 H12      -4.3977   -1.7586   -4.3480   H         1 RES1   0.0000
    43 H13      -5.1252   -0.6958   -5.5462   H         1 RES1   0.0000
    44 H14      -3.1538    0.3797   -4.6574   H         1 RES1   0.0000
    45 H15      -2.9576    0.0290   -6.3604   H         1 RES1   0.0000
    46 H16      -1.2278   -1.4303   -6.0250   H         1 RES1   0.0000
    47 H17      -1.9191   -2.1096   -4.5508   H         1 RES1   0.0000
    48 H18       0.7847    0.9922   -4.3497   H         1 RES1   0.0000
    49 H19      -0.1631    0.8439   -5.8442   H         1 RES1   0.0000
    50 H20       1.8096   -1.2537   -4.8069   H         1 RES1   0.0000
    51 H21       2.1333   -0.0751   -6.0826   H         1 RES1   0.0000
    52 H22       0.9345   -1.3346   -6.3411   H         1 RES1   0.0000
    53 H23      -1.8554   -2.0374   -2.1514   H         1 RES1   0.0000
    54 H24      -2.9863   -0.8615   -2.8493   H         1 RES1   0.0000
    55 H25      -4.0329    0.2967   -0.4094   H         1 RES1   0.0000
    56 H26      -3.3537    1.0733   -1.8572   H         1 RES1   0.0000
    57 H27      -2.8757    4.8635    0.5038   H         1 RES1   0.0000
    58 H28      -1.5668    3.8115    1.0431   H         1 RES1   0.0000
    59 H29      -4.2120    4.3246    2.5075   H         1 RES1   0.0000
    60 H30      -2.6247    4.8817    2.9760   H         1 RES1   0.0000
    61 H31      -2.9971    3.1581    3.0418   H         1 RES1   0.0000
    62 H32      -5.1852    3.1777    0.9551   H         1 RES1   0.0000
    63 H33      -5.0618    2.0266   -0.3731   H         1 RES1   0.0000
    64 H34      -4.7064    5.0488   -0.5785   H         1 RES1   0.0000
    65 H35      -6.0837    4.0903   -1.0775   H         1 RES1   0.0000
    66 H36      -4.9372    4.5729   -3.0516   H         1 RES1   0.0000
    67 H37      -4.5413    2.8935   -2.7398   H         1 RES1   0.0000
    68 H38      -2.2960    3.7069   -1.7891   H         1 RES1   0.0000
    69 H39      -2.8073    5.3460   -2.1747   H         1 RES1   0.0000
    70 H40      -2.9635    4.7026   -4.5766   H         1 RES1   0.0000
    71 H41      -2.3967    3.0843   -4.1752   H         1 RES1   0.0000
    72 H42      -0.3170    4.1195   -3.1837   H         1 RES1   0.0000
    73 H43      -0.8839    5.6955   -3.7344   H         1 RES1   0.0000
    74 H44      -0.2384    3.3155   -5.5275   H         1 RES1   0.0000
    75 H45       0.7860    4.7254   -5.2602   H         1 RES1   0.0000
    76 H46      -1.9516    4.7426   -6.6133   H         1 RES1   0.0000
    77 H47      -0.3881    5.0063   -7.3743   H         1 RES1   0.0000
    78 H48      -1.0139    6.1873   -6.2314   H         1 RES1   0.0000
    79 C25       0.1199   -6.4069    5.0878   C.3       1 RES1   0.0000
    80 C26      -0.1250   -5.4536    6.2512   C.3       1 RES1   0.0000
    81 C27      -1.3054   -4.5231    5.9749   C.3       1 RES1   0.0000
    82 C28      -1.5844   -3.5724    7.1373   C.3       1 RES1   0.0000
    83 C29      -2.7997   -2.6673    6.9241   C.3       1 RES1   0.0000
    84 C30      -2.5403   -1.3301    6.2264   C.3       1 RES1   0.0000
    85 C31      -2.0616   -1.4106    4.7662   C.3       1 RES1   0.0000
    86 C32      -0.5325   -1.3771    4.5829   C.3       1 RES1   0.0000
    87 N3       -0.0367   -0.0584    4.1723   N.am      1 RES1   0.0000
    88 C33      -0.1147    0.9715    5.2051   C.3       1 RES1   0.0000
    89 C34       0.9786    0.8114    6.2598   C.3       1 RES1   0.0000
    90 C35       0.4824    0.1340    2.9739   C.2       1 RES1   0.0000
    91 O4        0.5861   -0.7729    2.1087   O.2       1 RES1   0.0000
    92 C36       0.9405    1.5377    2.5270   C.3       1 RES1   0.0000
    93 O5        1.5227    1.4487    1.2300   O.3       1 RES1   0.0000
    94 C37       2.8696    0.9608    1.2476   C.3       1 RES1   0.0000
    95 C38       3.0188   -0.2484    0.3269   C.2       1 RES1   0.0000
    96 O6        2.0502   -0.5634   -0.4114   O.2       1 RES1   0.0000
    97 N4        4.1493   -0.9214    0.3386   N.am      1 RES1   0.0000
    98 C39       4.3069   -2.0548   -0.5722   C.3       1 RES1   0.0000
    99 C40       3.6954   -3.3257    0.0042   C.3       1 RES1   0.0000
   100 C41       5.2544   -0.5890    1.2236   C.3       1 RES1   0.0000
   101 C42       6.1070    0.5834    0.7013   C.3       1 RES1   0.0000
   102 C43       6.3277    1.6905    1.7358   C.3       1 RES1   0.0000
   103 C44       6.9085    1.1970    3.0584   C.3       1 RES1   0.0000
   104 C45       7.0222    2.3443    4.0588   C.3       1 RES1   0.0000
   105 C46       7.3599    1.8917    5.4769   C.3       1 RES1   0.0000
   106 C47       6.2401    1.1034    6.1581   C.3       1 RES1   0.0000
   107 C48       6.5569    0.8374    7.6249   C.3       1 RES1   0.0000
   108 H49       0.9679   -7.0510    5.2975   H         1 RES1   0.0000
   109 H50      -0.7509   -7.0354    4.9224   H         1 RES1   0.0000
   110 H51       0.3238   -5.8543    4.1712   H         1 RES1   0.0000
   111 H52      -0.3239   -6.0313    7.1536   H         1 RES1   0.0000
   112 H53       0.7730   -4.8579    6.4370   H         1 RES1   0.0000
   113 H54      -1.0960   -3.9706    5.0562   H         1 RES1   0.0000
   114 H55      -2.1957   -5.1296    5.7964   H         1 RES1   0.0000
   115 H56      -1.7704   -4.1902    8.0150   H         1 RES1   0.0000
   116 H57      -0.6990   -2.9734    7.3595   H         1 RES1   0.0000
   117 H58      -3.5675   -3.2207    6.3831   H         1 RES1   0.0000
   118 H59      -3.2146   -2.4185    7.9005   H         1 RES1   0.0000
   119 H60      -3.4827   -0.7772    6.2447   H         1 RES1   0.0000
   120 H61      -1.8237   -0.7646    6.8218   H         1 RES1   0.0000
   121 H62      -2.4546   -2.3312    4.3336   H         1 RES1   0.0000
   122 H63      -2.4878   -0.5621    4.2230   H         1 RES1   0.0000
   123 H64      -0.0606   -1.6376    5.5278   H         1 RES1   0.0000
   124 H65      -0.2023   -2.0960    3.8357   H         1 RES1   0.0000
   125 H66      -0.0500    1.9622    4.7577   H         1 RES1   0.0000
   126 H67      -1.0945    0.8704    5.6777   H         1 RES1   0.0000
   127 H68       1.9743    0.8439    5.8229   H         1 RES1   0.0000
   128 H69       0.9061    1.6182    6.9836   H         1 RES1   0.0000
   129 H70       0.8638   -0.1222    6.8021   H         1 RES1   0.0000
   130 H71       0.0624    2.1842    2.4149   H         1 RES1   0.0000
   131 H72       1.6297    2.0034    3.2373   H         1 RES1   0.0000
   132 H73       3.5406    1.7607    0.9142   H         1 RES1   0.0000
   133 H74       3.1476    0.6798    2.2637   H         1 RES1   0.0000
   134 H75       3.8222   -1.8020   -1.5175   H         1 RES1   0.0000
   135 H76       5.3702   -2.1992   -0.7532   H         1 RES1   0.0000
   136 H77       2.6214   -3.2061    0.1310   H         1 RES1   0.0000
   137 H78       3.8833   -4.1578   -0.6684   H         1 RES1   0.0000
   138 H79       4.1352   -3.5597    0.9691   H         1 RES1   0.0000
   139 H80       4.8485   -0.3570    2.2090   H         1 RES1   0.0000
   140 H81       5.8724   -1.4783    1.3296   H         1 RES1   0.0000
   141 H82       7.0751    0.2006    0.3825   H         1 RES1   0.0000
   142 H83       5.6228    1.0125   -0.1785   H         1 RES1   0.0000
   143 H84       7.0108    2.4248    1.3076   H         1 RES1   0.0000
   144 H85       5.3882    2.2130    1.9405   H         1 RES1   0.0000
   145 H86       6.2700    0.4200    3.4794   H         1 RES1   0.0000
   146 H87       7.8899    0.7571    2.8861   H         1 RES1   0.0000
   147 H88       7.7908    3.0320    3.7105   H         1 RES1   0.0000
   148 H89       6.0790    2.8957    4.0796   H         1 RES1   0.0000
   149 H90       8.2672    1.2880    5.4662   H         1 RES1   0.0000
   150 H91       7.5604    2.7802    6.0758   H         1 RES1   0.0000
   151 H92       5.3038    1.6685    6.0887   H         1 RES1   0.0000
   152 H93       6.0873    0.1439    5.6545   H         1 RES1   0.0000
   153 H94       6.6766    1.7718    8.1652   H         1 RES1   0.0000
   154 H95       5.7592    0.2675    8.0959   H         1 RES1   0.0000
   155 H96       7.4802    0.2734    7.7148   H         1 RES1   0.0000
   156 O7       -1.9802   -0.8129    1.6437   O.3       1 RES1   0.0000
   157 H97      -2.1450   -1.7563    1.7861   H         1 RES1   0.0000
   158 H98      -2.4665   -0.3740    2.3583   H         1 RES1   0.0000
   159 O8       -0.0159   -2.4348   -0.3341   O.3       1 RES1   0.0000
   160 H99       0.2672   -2.9590    0.4336   H         1 RES1   0.0000
   161 H100      0.4842   -2.8021   -1.0824   H         1 RES1   0.0000
@<TRIPOS>BOND
     1     1    14    1
     2     1    16    1
     3     1    19    1
     4     1    91    1
     5     1    93    1
     6     1    96    1
     7     1   156    1
     8     1   159    1
     9     2     3    1
    10     2    31    1
    11     2    32    1
    12     2    33    1
    13     3     4    1
    14     3    34    1
    15     3    35    1
    16     4     5    1
    17     4    36    1
    18     4    37    1
    19     5     6    1
    20     5    38    1
    21     5    39    1
    22     6     7    1
    23     6    40    1
    24     6    41    1
    25     7     8    1
    26     7    42    1
    27     7    43    1
    28     8     9    1
    29     8    44    1
    30     8    45    1
    31     9    10    1
    32     9    46    1
    33     9    47    1
    34    10    11    1
    35    10    13    1
    36    11    12    1
    37    11    48    1
    38    11    49    1
    39    12    50    1
    40    12    51    1
    41    12    52    1
    42    13    14    2
    43    13    15    1
    44    15    16    1
    45    15    53    1
    46    15    54    1
    47    16    17    1
    48    17    18    1
    49    17    55    1
    50    17    56    1
    51    18    19    2
    52    18    20    1
    53    20    21    1
    54    20    23    1
    55    21    22    1
    56    21    57    1
    57    21    58    1
    58    22    59    1
    59    22    60    1
    60    22    61    1
    61    23    24    1
    62    23    62    1
    63    23    63    1
    64    24    25    1
    65    24    64    1
    66    24    65    1
    67    25    26    1
    68    25    66    1
    69    25    67    1
    70    26    27    1
    71    26    68    1
    72    26    69    1
    73    27    28    1
    74    27    70    1
    75    27    71    1
    76    28    29    1
    77    28    72    1
    78    28    73    1
    79    29    30    1
    80    29    74    1
    81    29    75    1
    82    30    76    1
    83    30    77    1
    84    30    78    1
    85    79    80    1
    86    79   108    1
    87    79   109    1
    88    79   110    1
    89    80    81    1
    90    80   111    1
    91    80   112    1
    92    81    82    1
    93    81   113    1
    94    81   114    1
    95    82    83    1
    96    82   115    1
    97    82   116    1
    98    83    84    1
    99    83   117    1
   100    83   118    1
   101    84    85    1
   102    84   119    1
   103    84   120    1
   104    85    86    1
   105    85   121    1
   106    85   122    1
   107    86    87    1
   108    86   123    1
   109    86   124    1
   110    87    88    1
   111    87    90    1
   112    88    89    1
   113    88   125    1
   114    88   126    1
   115    89   127    1
   116    89   128    1
   117    89   129    1
   118    90    91    2
   119    90    92    1
   120    92    93    1
   121    92   130    1
   122    92   131    1
   123    93    94    1
   124    94    95    1
   125    94   132    1
   126    94   133    1
   127    95    96    2
   128    95    97    1
   129    97    98    1
   130    97   100    1
   131    98    99    1
   132    98   134    1
   133    98   135    1
   134    99   136    1
   135    99   137    1
   136    99   138    1
   137   100   101    1
   138   100   139    1
   139   100   140    1
   140   101   102    1
   141   101   141    1
   142   101   142    1
   143   102   103    1
   144   102   143    1
   145   102   144    1
   146   103   104    1
   147   103   145    1
   148   103   146    1
   149   104   105    1
   150   104   147    1
   151   104   148    1
   152   105   106    1
   153   105   149    1
   154   105   150    1
   155   106   107    1
   156   106   151    1
   157   106   152    1
   158   107   153    1
   159   107   154    1
   160   107   155    1
   161   156   157    1
   162   156   158    1
   163   159   160    1
   164   159   161    1
@<TRIPOS>SUBSTRUCTURE
     1 RES1      161 GROUP             0 ****  ****    0  
