@<TRIPOS>MOLECULE
YEMSEP_geometry_0_nunpairedes_0_charge_3 Charge: 3 Unpaired_Electrons: 1 XTB_Unpaired_Electrons: 0 XTB_Charge: 3
   121   134     1     0     0
SMALL
NoCharges
****
Generated from Architector

@<TRIPOS>ATOM
     1 Yb1       0.0205    0.0118    0.0155   Yb        1 RES1   0.0000
     2 C1        5.9686   -0.5421   -1.3440   C.3       1 RES1   0.0000
     3 C2        4.9265   -0.4027   -2.4499   C.3       1 RES1   0.0000
     4 N1        3.7569    0.3629   -2.0204   N.am      1 RES1   0.0000
     5 C3        2.7515   -0.1216   -1.2853   C.2       1 RES1   0.0000
     6 O1        1.7623    0.6038   -1.0177   O.2       1 RES1   0.0000
     7 C4        2.6576   -1.5249   -0.6970   C.ar      1 RES1   0.0000
     8 C5        3.4754   -2.6452   -0.8343   C.ar      1 RES1   0.0000
     9 C6        3.0950   -3.8252   -0.2050   C.ar      1 RES1   0.0000
    10 C7        1.9330   -3.8928    0.5444   C.ar      1 RES1   0.0000
    11 C8        1.1762   -2.7258    0.6819   C.ar      1 RES1   0.0000
    12 C9       -0.0848   -2.6677    1.4871   C.ar      1 RES1   0.0000
    13 C10      -0.5646   -3.7807    2.1826   C.ar      1 RES1   0.0000
    14 C11      -1.7571   -3.6536    2.8709   C.ar      1 RES1   0.0000
    15 C12      -2.4826   -2.4674    2.8279   C.ar      1 RES1   0.0000
    16 C13      -1.9719   -1.3973    2.0971   C.ar      1 RES1   0.0000
    17 C14      -2.5899   -0.0383    1.7580   C.2       1 RES1   0.0000
    18 O2       -2.0000    0.5522    0.8216   O.2       1 RES1   0.0000
    19 N2       -3.6488    0.5286    2.3575   N.am      1 RES1   0.0000
    20 C15      -4.5896   -0.2153    3.1924   C.3       1 RES1   0.0000
    21 C16      -5.4581   -1.1178    2.3181   C.3       1 RES1   0.0000
    22 C17      -4.0212    1.8933    2.0843   C.ar      1 RES1   0.0000
    23 C18      -3.0637    2.8626    1.7922   C.ar      1 RES1   0.0000
    24 C19      -3.4066    4.1961    1.6469   C.ar      1 RES1   0.0000
    25 C20      -4.7191    4.6078    1.7998   C.ar      1 RES1   0.0000
    26 C21      -5.6828    3.6539    2.0805   C.ar      1 RES1   0.0000
    27 C22      -5.3488    2.3143    2.2072   C.ar      1 RES1   0.0000
    28 N3       -0.7794   -1.5246    1.4830   N.ar      1 RES1   0.0000
    29 N4        1.5564   -1.6090    0.0643   N.ar      1 RES1   0.0000
    30 C23       3.7564    1.7386   -2.4353   C.ar      1 RES1   0.0000
    31 C24       2.5813    2.4337   -2.7088   C.ar      1 RES1   0.0000
    32 C25       2.6254    3.7620   -3.0921   C.ar      1 RES1   0.0000
    33 C26       3.8319    4.4156   -3.2605   C.ar      1 RES1   0.0000
    34 C27       5.0050    3.7115   -3.0519   C.ar      1 RES1   0.0000
    35 C28       4.9745    2.3954   -2.6272   C.ar      1 RES1   0.0000
    36 H1        6.7759   -1.1714   -1.7014   H         1 RES1   0.0000
    37 H2        5.5491   -0.9724   -0.4384   H         1 RES1   0.0000
    38 H3        6.3894    0.4233   -1.0799   H         1 RES1   0.0000
    39 H4        4.5769   -1.3655   -2.8231   H         1 RES1   0.0000
    40 H5        5.3498    0.1243   -3.3105   H         1 RES1   0.0000
    41 H6        4.3834   -2.6557   -1.4069   H         1 RES1   0.0000
    42 H7        3.7278   -4.6912   -0.3114   H         1 RES1   0.0000
    43 H8        1.6393   -4.8251    0.9989   H         1 RES1   0.0000
    44 H9       -0.0344   -4.7198    2.1792   H         1 RES1   0.0000
    45 H10      -2.1554   -4.4981    3.4069   H         1 RES1   0.0000
    46 H11      -3.4302   -2.4399    3.3324   H         1 RES1   0.0000
    47 H12      -5.2028    0.5067    3.7367   H         1 RES1   0.0000
    48 H13      -4.0274   -0.7603    3.9501   H         1 RES1   0.0000
    49 H14      -6.0638   -0.5349    1.6299   H         1 RES1   0.0000
    50 H15      -6.1313   -1.6881    2.9452   H         1 RES1   0.0000
    51 H16      -4.8596   -1.8010    1.7195   H         1 RES1   0.0000
    52 H17      -2.0290    2.5931    1.6860   H         1 RES1   0.0000
    53 H18      -2.6291    4.9143    1.4281   H         1 RES1   0.0000
    54 H19      -4.9949    5.6468    1.6951   H         1 RES1   0.0000
    55 H20      -6.7063    3.9703    2.2094   H         1 RES1   0.0000
    56 H21      -6.1538    1.6252    2.4034   H         1 RES1   0.0000
    57 H22       1.6193    1.9514   -2.6621   H         1 RES1   0.0000
    58 H23       1.6958    4.2755   -3.2760   H         1 RES1   0.0000
    59 H24       3.8692    5.4510   -3.5602   H         1 RES1   0.0000
    60 H25       5.9499    4.1982   -3.2274   H         1 RES1   0.0000
    61 H26       5.9167    1.8993   -2.4647   H         1 RES1   0.0000
    62 C29       1.3736    0.2843    5.4218   C.3       1 RES1   0.0000
    63 C30       2.1898    0.9512    4.3279   C.3       1 RES1   0.0000
    64 N5        1.4268    1.9449    3.5683   N.am      1 RES1   0.0000
    65 C31       1.0925    1.6845    2.3067   C.2       1 RES1   0.0000
    66 O3        1.2411    0.5402    1.8169   O.2       1 RES1   0.0000
    67 C32       0.5900    2.7571    1.3675   C.ar      1 RES1   0.0000
    68 C33       0.8136    4.1294    1.4522   C.ar      1 RES1   0.0000
    69 C34       0.3484    4.9212    0.4117   C.ar      1 RES1   0.0000
    70 C35      -0.3187    4.3529   -0.6669   C.ar      1 RES1   0.0000
    71 C36      -0.4767    2.9679   -0.7043   C.ar      1 RES1   0.0000
    72 C37      -1.1908    2.2318   -1.7899   C.ar      1 RES1   0.0000
    73 C38      -1.9228    2.8821   -2.7856   C.ar      1 RES1   0.0000
    74 C39      -2.6450    2.1007   -3.6693   C.ar      1 RES1   0.0000
    75 C40      -2.6315    0.7140   -3.5718   C.ar      1 RES1   0.0000
    76 C41      -1.8242    0.1234   -2.6042   C.ar      1 RES1   0.0000
    77 C42      -1.5594   -1.3478   -2.3129   C.2       1 RES1   0.0000
    78 O4       -0.7475   -1.5450   -1.3732   O.2       1 RES1   0.0000
    79 N6       -2.0905   -2.3950   -2.9520   N.am      1 RES1   0.0000
    80 C43      -2.9435   -2.3618   -4.1403   C.3       1 RES1   0.0000
    81 C44      -2.1587   -1.9822   -5.3920   C.3       1 RES1   0.0000
    82 C45      -1.7486   -3.7233   -2.5125   C.ar      1 RES1   0.0000
    83 C46      -1.7794   -4.0608   -1.1644   C.ar      1 RES1   0.0000
    84 C47      -1.4697   -5.3507   -0.7671   C.ar      1 RES1   0.0000
    85 C48      -1.1557   -6.3242   -1.7006   C.ar      1 RES1   0.0000
    86 C49      -1.1778   -6.0024   -3.0470   C.ar      1 RES1   0.0000
    87 C50      -1.4626   -4.7101   -3.4534   C.ar      1 RES1   0.0000
    88 N7       -1.1321    0.8974   -1.7527   N.ar      1 RES1   0.0000
    89 N8       -0.0077    2.2243    0.3000   N.ar      1 RES1   0.0000
    90 C51       0.8685    3.0283    4.2987   C.ar      1 RES1   0.0000
    91 C52       1.6153    3.7647    5.2087   C.ar      1 RES1   0.0000
    92 C53       0.9991    4.7664    5.9396   C.ar      1 RES1   0.0000
    93 C54      -0.3433    5.0575    5.7596   C.ar      1 RES1   0.0000
    94 C55      -1.0882    4.3055    4.8665   C.ar      1 RES1   0.0000
    95 C56      -0.4934    3.2798    4.1573   C.ar      1 RES1   0.0000
    96 H27       2.0222   -0.4131    5.9397   H         1 RES1   0.0000
    97 H28       0.5303   -0.2593    5.0045   H         1 RES1   0.0000
    98 H29       1.0075    1.0130    6.1385   H         1 RES1   0.0000
    99 H30       2.5593    0.2081    3.6190   H         1 RES1   0.0000
   100 H31       3.0428    1.4713    4.7666   H         1 RES1   0.0000
   101 H32       1.3369    4.5632    2.2895   H         1 RES1   0.0000
   102 H33       0.5158    5.9845    0.4533   H         1 RES1   0.0000
   103 H34      -0.6718    4.9742   -1.4720   H         1 RES1   0.0000
   104 H35      -1.9420    3.9584   -2.8650   H         1 RES1   0.0000
   105 H36      -3.2301    2.5730   -4.4380   H         1 RES1   0.0000
   106 H37      -3.2442    0.1502   -4.2485   H         1 RES1   0.0000
   107 H38      -3.7752   -1.6855   -3.9395   H         1 RES1   0.0000
   108 H39      -3.3780   -3.3604   -4.2562   H         1 RES1   0.0000
   109 H40      -1.6401   -1.0350   -5.2728   H         1 RES1   0.0000
   110 H41      -2.8429   -1.9152   -6.2293   H         1 RES1   0.0000
   111 H42      -1.4149   -2.7351   -5.6346   H         1 RES1   0.0000
   112 H43      -2.0744   -3.3235   -0.4325   H         1 RES1   0.0000
   113 H44      -1.4993   -5.5994    0.2819   H         1 RES1   0.0000
   114 H45      -0.9093   -7.3283   -1.3917   H         1 RES1   0.0000
   115 H46      -0.9788   -6.7690   -3.7783   H         1 RES1   0.0000
   116 H47      -1.4708   -4.4806   -4.5062   H         1 RES1   0.0000
   117 H48       2.6647    3.5647    5.3536   H         1 RES1   0.0000
   118 H49       1.5750    5.3164    6.6618   H         1 RES1   0.0000
   119 H50      -0.8186    5.8477    6.3188   H         1 RES1   0.0000
   120 H51      -2.1393    4.5065    4.7462   H         1 RES1   0.0000
   121 H52      -1.0716    2.6353    3.5121   H         1 RES1   0.0000
@<TRIPOS>BOND
     1     1     6    1
     2     1    18    1
     3     1    28    1
     4     1    29    1
     5     1    66    1
     6     1    78    1
     7     1    88    1
     8     1    89    1
     9     2     3    1
    10     2    36    1
    11     2    37    1
    12     2    38    1
    13     3     4    1
    14     3    39    1
    15     3    40    1
    16     4     5    1
    17     4    30    1
    18     5     6    2
    19     5     7    1
    20     7     8    1
    21     7    29    2
    22     8     9    2
    23     8    41    1
    24     9    10    1
    25     9    42    1
    26    10    11    2
    27    10    43    1
    28    11    12    1
    29    11    29    1
    30    12    13    1
    31    12    28    2
    32    13    14    2
    33    13    44    1
    34    14    15    1
    35    14    45    1
    36    15    16    2
    37    15    46    1
    38    16    17    1
    39    16    28    1
    40    17    18    2
    41    17    19    1
    42    19    20    1
    43    19    22    1
    44    20    21    1
    45    20    47    1
    46    20    48    1
    47    21    49    1
    48    21    50    1
    49    21    51    1
    50    22    23    1
    51    22    27    2
    52    23    24    2
    53    23    52    1
    54    24    25    1
    55    24    53    1
    56    25    26    2
    57    25    54    1
    58    26    27    1
    59    26    55    1
    60    27    56    1
    61    30    31    1
    62    30    35    2
    63    31    32    2
    64    31    57    1
    65    32    33    1
    66    32    58    1
    67    33    34    2
    68    33    59    1
    69    34    35    1
    70    34    60    1
    71    35    61    1
    72    62    63    1
    73    62    96    1
    74    62    97    1
    75    62    98    1
    76    63    64    1
    77    63    99    1
    78    63   100    1
    79    64    65    1
    80    64    90    1
    81    65    66    2
    82    65    67    1
    83    67    68    1
    84    67    89    2
    85    68    69    2
    86    68   101    1
    87    69    70    1
    88    69   102    1
    89    70    71    2
    90    70   103    1
    91    71    72    1
    92    71    89    1
    93    72    73    1
    94    72    88    2
    95    73    74    2
    96    73   104    1
    97    74    75    1
    98    74   105    1
    99    75    76    2
   100    75   106    1
   101    76    77    1
   102    76    88    1
   103    77    78    2
   104    77    79    1
   105    79    80    1
   106    79    82    1
   107    80    81    1
   108    80   107    1
   109    80   108    1
   110    81   109    1
   111    81   110    1
   112    81   111    1
   113    82    83    1
   114    82    87    2
   115    83    84    2
   116    83   112    1
   117    84    85    1
   118    84   113    1
   119    85    86    2
   120    85   114    1
   121    86    87    1
   122    86   115    1
   123    87   116    1
   124    90    91    1
   125    90    95    2
   126    91    92    2
   127    91   117    1
   128    92    93    1
   129    92   118    1
   130    93    94    2
   131    93   119    1
   132    94    95    1
   133    94   120    1
   134    95   121    1
@<TRIPOS>SUBSTRUCTURE
     1 RES1      121 GROUP             0 ****  ****    0  
