@<TRIPOS>MOLECULE
ICIGOT_geomtry_0_nunpairedes_0_charge_3 Charge: 3 Unpaired_Electrons: 1 XTB_Unpaired_Electrons: 0 XTB_Charge: 3
   149   152     1     0     0
SMALL
NoCharges
****
Generated from Architector

@<TRIPOS>ATOM
     1 Yb1       0.0467    0.1318   -0.0166   Yb        1 RES1   0.0000
     2 C1       -1.3553    4.3140   -2.5616   C.3       1 RES1   0.0000
     3 C2       -2.3528    4.1484   -3.7009   C.3       1 RES1   0.0000
     4 C3       -2.3781    2.7234   -4.2486   C.3       1 RES1   0.0000
     5 C4       -1.1273    2.3472   -5.0393   C.3       1 RES1   0.0000
     6 C5       -1.2311    0.9660   -5.6865   C.3       1 RES1   0.0000
     7 C6       -0.1893    0.7939   -6.8092   C.3       1 RES1   0.0000
     8 C7        1.2825    0.8778   -6.4039   C.3       1 RES1   0.0000
     9 C8       -1.0799   -0.1871   -4.6791   C.3       1 RES1   0.0000
    10 N1       -2.1371   -0.3378   -3.6708   N.am      1 RES1   0.0000
    11 C9       -3.4344   -0.6917   -4.2058   C.3       1 RES1   0.0000
    12 C10      -1.9154   -0.0921   -2.3974   C.2       1 RES1   0.0000
    13 O1       -0.8137    0.3279   -1.9657   O.2       1 RES1   0.0000
    14 C11      -3.0088   -0.4036   -1.3462   C.3       1 RES1   0.0000
    15 O2       -2.3792   -0.3366   -0.0664   O.3       1 RES1   0.0000
    16 C12      -3.0964    0.2672    1.0121   C.3       1 RES1   0.0000
    17 C13      -2.3205    1.5255    1.4252   C.2       1 RES1   0.0000
    18 O3       -1.1012    1.5625    1.1118   O.2       1 RES1   0.0000
    19 N2       -2.9216    2.5108    2.0529   N.am      1 RES1   0.0000
    20 C14      -2.2075    3.7575    2.2702   C.3       1 RES1   0.0000
    21 C15      -4.2745    2.4536    2.5744   C.3       1 RES1   0.0000
    22 C16      -4.4432    1.5890    3.8376   C.3       1 RES1   0.0000
    23 C17      -5.9590    1.4710    4.0591   C.3       1 RES1   0.0000
    24 C18      -6.3685    0.5081    5.1696   C.3       1 RES1   0.0000
    25 C19      -3.7359    2.1750    5.0643   C.3       1 RES1   0.0000
    26 C20      -2.2617    1.7906    5.1419   C.3       1 RES1   0.0000
    27 C21      -1.5656    2.3362    6.3905   C.3       1 RES1   0.0000
    28 C22      -1.4315    3.8568    6.4189   C.3       1 RES1   0.0000
    29 H1       -1.4389    5.3126   -2.1425   H         1 RES1   0.0000
    30 H2       -0.3447    4.1831   -2.9360   H         1 RES1   0.0000
    31 H3       -1.5261    3.5841   -1.7628   H         1 RES1   0.0000
    32 H4       -2.0964    4.8461   -4.4984   H         1 RES1   0.0000
    33 H5       -3.3510    4.4001   -3.3389   H         1 RES1   0.0000
    34 H6       -3.2522    2.6161   -4.8914   H         1 RES1   0.0000
    35 H7       -2.4921    2.0490   -3.3975   H         1 RES1   0.0000
    36 H8       -0.2572    2.3700   -4.3855   H         1 RES1   0.0000
    37 H9       -0.9731    3.0840   -5.8286   H         1 RES1   0.0000
    38 H10      -2.2020    0.8863   -6.1809   H         1 RES1   0.0000
    39 H11      -0.3737    1.5801   -7.5420   H         1 RES1   0.0000
    40 H12      -0.3557   -0.1604   -7.3139   H         1 RES1   0.0000
    41 H13       1.5106    1.8193   -5.9084   H         1 RES1   0.0000
    42 H14       1.8884    0.8225   -7.3065   H         1 RES1   0.0000
    43 H15       1.5850    0.0534   -5.7575   H         1 RES1   0.0000
    44 H16      -0.1380   -0.0678   -4.1458   H         1 RES1   0.0000
    45 H17      -1.0571   -1.1216   -5.2450   H         1 RES1   0.0000
    46 H18      -3.7527    0.1040   -4.8783   H         1 RES1   0.0000
    47 H19      -4.1885   -0.8133   -3.4362   H         1 RES1   0.0000
    48 H20      -3.3670   -1.6175   -4.7769   H         1 RES1   0.0000
    49 H21      -3.3650   -1.4351   -1.4843   H         1 RES1   0.0000
    50 H22      -3.8481    0.2972   -1.4458   H         1 RES1   0.0000
    51 H23      -3.0758   -0.4450    1.8456   H         1 RES1   0.0000
    52 H24      -4.1321    0.4749    0.7395   H         1 RES1   0.0000
    53 H25      -1.1879    3.6439    1.9063   H         1 RES1   0.0000
    54 H26      -2.1933    4.0239    3.3273   H         1 RES1   0.0000
    55 H27      -2.7155    4.5465    1.7118   H         1 RES1   0.0000
    56 H28      -4.9632    2.0901    1.8074   H         1 RES1   0.0000
    57 H29      -4.5824    3.4704    2.8177   H         1 RES1   0.0000
    58 H30      -4.0370    0.5890    3.6484   H         1 RES1   0.0000
    59 H31      -6.4230    1.1399    3.1252   H         1 RES1   0.0000
    60 H32      -6.3486    2.4629    4.2896   H         1 RES1   0.0000
    61 H33      -5.9427   -0.4816    5.0104   H         1 RES1   0.0000
    62 H34      -7.4533    0.4225    5.1847   H         1 RES1   0.0000
    63 H35      -6.0516    0.8710    6.1440   H         1 RES1   0.0000
    64 H36      -4.2207    1.7980    5.9650   H         1 RES1   0.0000
    65 H37      -3.8467    3.2573    5.0722   H         1 RES1   0.0000
    66 H38      -1.7181    2.1292    4.2587   H         1 RES1   0.0000
    67 H39      -2.1955    0.7029    5.1691   H         1 RES1   0.0000
    68 H40      -0.5647    1.9014    6.4473   H         1 RES1   0.0000
    69 H41      -2.1130    2.0167    7.2781   H         1 RES1   0.0000
    70 H42      -0.8857    4.2240    5.5485   H         1 RES1   0.0000
    71 H43      -0.8844    4.1556    7.3107   H         1 RES1   0.0000
    72 H44      -2.4053    4.3400    6.4513   H         1 RES1   0.0000
    73 C23       1.6898    4.9797   -5.5590   C.3       1 RES1   0.0000
    74 C24       2.2765    4.4521   -4.2520   C.3       1 RES1   0.0000
    75 C25       2.7130    5.6050   -3.3488   C.3       1 RES1   0.0000
    76 C26       3.0972    5.1742   -1.9319   C.3       1 RES1   0.0000
    77 C27       1.9331    4.8845   -0.9768   C.3       1 RES1   0.0000
    78 C28       1.1224    6.1636   -0.7178   C.3       1 RES1   0.0000
    79 C29      -0.0177    6.0374    0.2911   C.3       1 RES1   0.0000
    80 C30       2.4735    4.3537    0.3601   C.3       1 RES1   0.0000
    81 N3        3.2101    3.0900    0.2876   N.am      1 RES1   0.0000
    82 C31       4.6572    3.0916    0.3818   C.3       1 RES1   0.0000
    83 C32       2.5546    1.9552    0.1488   C.2       1 RES1   0.0000
    84 O4        1.3330    1.8890   -0.1338   O.2       1 RES1   0.0000
    85 C33       3.2897    0.6239    0.3906   C.3       1 RES1   0.0000
    86 O5        2.2513   -0.2729    0.7703   O.3       1 RES1   0.0000
    87 C34       2.5897   -1.2930    1.6958   C.3       1 RES1   0.0000
    88 C35       1.2392   -1.6903    2.3227   C.2       1 RES1   0.0000
    89 O6        0.2141   -1.0996    1.8876   O.2       1 RES1   0.0000
    90 N4        1.2013   -2.6462    3.2257   N.am      1 RES1   0.0000
    91 C36       2.3746   -3.2953    3.7666   C.3       1 RES1   0.0000
    92 C37      -0.0671   -3.0960    3.7927   C.3       1 RES1   0.0000
    93 C38      -0.3396   -2.6530    5.2384   C.3       1 RES1   0.0000
    94 C39      -0.2030   -1.1394    5.4353   C.3       1 RES1   0.0000
    95 C40       1.2281   -0.6243    5.5877   C.3       1 RES1   0.0000
    96 C41      -1.7231   -3.1711    5.6831   C.3       1 RES1   0.0000
    97 C42      -3.0006   -2.5863    5.0626   C.3       1 RES1   0.0000
    98 C43      -3.3752   -3.0821    3.6620   C.3       1 RES1   0.0000
    99 C44      -4.8116   -2.7152    3.2925   C.3       1 RES1   0.0000
   100 H45       1.4089    4.1634   -6.2215   H         1 RES1   0.0000
   101 H46       0.8055    5.5871   -5.3720   H         1 RES1   0.0000
   102 H47       2.4237    5.5971   -6.0711   H         1 RES1   0.0000
   103 H48       1.5330    3.8329   -3.7377   H         1 RES1   0.0000
   104 H49       3.1358    3.8130   -4.4739   H         1 RES1   0.0000
   105 H50       3.5792    6.0895   -3.8001   H         1 RES1   0.0000
   106 H51       1.9208    6.3511   -3.3200   H         1 RES1   0.0000
   107 H52       3.7304    4.2887   -2.0044   H         1 RES1   0.0000
   108 H53       3.6906    5.9730   -1.4904   H         1 RES1   0.0000
   109 H54       1.2719    4.1204   -1.3951   H         1 RES1   0.0000
   110 H55       1.7928    6.9583   -0.3900   H         1 RES1   0.0000
   111 H56       0.6886    6.4743   -1.6664   H         1 RES1   0.0000
   112 H57       0.3441    5.9149    1.3100   H         1 RES1   0.0000
   113 H58      -0.6125    6.9487    0.2681   H         1 RES1   0.0000
   114 H59      -0.6612    5.1974    0.0379   H         1 RES1   0.0000
   115 H60       3.1376    5.0948    0.8063   H         1 RES1   0.0000
   116 H61       1.6272    4.1814    1.0267   H         1 RES1   0.0000
   117 H62       5.0371    4.1095    0.3807   H         1 RES1   0.0000
   118 H63       5.0078    2.6139    1.2989   H         1 RES1   0.0000
   119 H64       5.0906    2.5720   -0.4734   H         1 RES1   0.0000
   120 H65       3.7690    0.2768   -0.5346   H         1 RES1   0.0000
   121 H66       4.0376    0.7140    1.1853   H         1 RES1   0.0000
   122 H67       3.0107   -2.1531    1.1538   H         1 RES1   0.0000
   123 H68       3.2892   -0.9351    2.4666   H         1 RES1   0.0000
   124 H69       3.2928   -2.9424    3.3120   H         1 RES1   0.0000
   125 H70       2.4186   -3.1097    4.8399   H         1 RES1   0.0000
   126 H71       2.3086   -4.3719    3.6104   H         1 RES1   0.0000
   127 H72      -0.8473   -2.7065    3.1447   H         1 RES1   0.0000
   128 H73      -0.0827   -4.1879    3.7577   H         1 RES1   0.0000
   129 H74       0.3791   -3.1460    5.8998   H         1 RES1   0.0000
   130 H75      -0.6626   -0.6234    4.5911   H         1 RES1   0.0000
   131 H76      -0.7438   -0.8689    6.3434   H         1 RES1   0.0000
   132 H77       1.7927   -0.7187    4.6634   H         1 RES1   0.0000
   133 H78       1.2081    0.4328    5.8448   H         1 RES1   0.0000
   134 H79       1.7540   -1.1501    6.3808   H         1 RES1   0.0000
   135 H80      -1.7432   -4.2533    5.5565   H         1 RES1   0.0000
   136 H81      -1.7873   -2.9787    6.7530   H         1 RES1   0.0000
   137 H82      -3.8189   -2.8708    5.7286   H         1 RES1   0.0000
   138 H83      -2.9634   -1.4965    5.0656   H         1 RES1   0.0000
   139 H84      -2.7095   -2.6529    2.9034   H         1 RES1   0.0000
   140 H85      -3.2787   -4.1683    3.6286   H         1 RES1   0.0000
   141 H86      -4.9494   -1.6344    3.2812   H         1 RES1   0.0000
   142 H87      -5.0705   -3.1028    2.3081   H         1 RES1   0.0000
   143 H88      -5.4980   -3.1431    4.0176   H         1 RES1   0.0000
   144 O7       -0.5358   -2.2579   -0.5287   O.3       1 RES1   0.0000
   145 H89      -0.8486   -2.7991    0.2117   H         1 RES1   0.0000
   146 H90      -0.7773   -2.7570   -1.3219   H         1 RES1   0.0000
   147 O8        1.5863   -0.7779   -1.8798   O.3       1 RES1   0.0000
   148 H91       1.3660   -1.5331   -2.4454   H         1 RES1   0.0000
   149 H92       1.8725   -0.0816   -2.4901   H         1 RES1   0.0000
@<TRIPOS>BOND
     1     1    13    1
     2     1    15    1
     3     1    18    1
     4     1    84    1
     5     1    86    1
     6     1    89    1
     7     1   144    1
     8     1   147    1
     9     2     3    1
    10     2    29    1
    11     2    30    1
    12     2    31    1
    13     3     4    1
    14     3    32    1
    15     3    33    1
    16     4     5    1
    17     4    34    1
    18     4    35    1
    19     5     6    1
    20     5    36    1
    21     5    37    1
    22     6     7    1
    23     6     9    1
    24     6    38    1
    25     7     8    1
    26     7    39    1
    27     7    40    1
    28     8    41    1
    29     8    42    1
    30     8    43    1
    31     9    10    1
    32     9    44    1
    33     9    45    1
    34    10    11    1
    35    10    12    1
    36    11    46    1
    37    11    47    1
    38    11    48    1
    39    12    13    2
    40    12    14    1
    41    14    15    1
    42    14    49    1
    43    14    50    1
    44    15    16    1
    45    16    17    1
    46    16    51    1
    47    16    52    1
    48    17    18    2
    49    17    19    1
    50    19    20    1
    51    19    21    1
    52    20    53    1
    53    20    54    1
    54    20    55    1
    55    21    22    1
    56    21    56    1
    57    21    57    1
    58    22    23    1
    59    22    25    1
    60    22    58    1
    61    23    24    1
    62    23    59    1
    63    23    60    1
    64    24    61    1
    65    24    62    1
    66    24    63    1
    67    25    26    1
    68    25    64    1
    69    25    65    1
    70    26    27    1
    71    26    66    1
    72    26    67    1
    73    27    28    1
    74    27    68    1
    75    27    69    1
    76    28    70    1
    77    28    71    1
    78    28    72    1
    79    73    74    1
    80    73   100    1
    81    73   101    1
    82    73   102    1
    83    74    75    1
    84    74   103    1
    85    74   104    1
    86    75    76    1
    87    75   105    1
    88    75   106    1
    89    76    77    1
    90    76   107    1
    91    76   108    1
    92    77    78    1
    93    77    80    1
    94    77   109    1
    95    78    79    1
    96    78   110    1
    97    78   111    1
    98    79   112    1
    99    79   113    1
   100    79   114    1
   101    80    81    1
   102    80   115    1
   103    80   116    1
   104    81    82    1
   105    81    83    1
   106    82   117    1
   107    82   118    1
   108    82   119    1
   109    83    84    2
   110    83    85    1
   111    85    86    1
   112    85   120    1
   113    85   121    1
   114    86    87    1
   115    87    88    1
   116    87   122    1
   117    87   123    1
   118    88    89    2
   119    88    90    1
   120    90    91    1
   121    90    92    1
   122    91   124    1
   123    91   125    1
   124    91   126    1
   125    92    93    1
   126    92   127    1
   127    92   128    1
   128    93    94    1
   129    93    96    1
   130    93   129    1
   131    94    95    1
   132    94   130    1
   133    94   131    1
   134    95   132    1
   135    95   133    1
   136    95   134    1
   137    96    97    1
   138    96   135    1
   139    96   136    1
   140    97    98    1
   141    97   137    1
   142    97   138    1
   143    98    99    1
   144    98   139    1
   145    98   140    1
   146    99   141    1
   147    99   142    1
   148    99   143    1
   149   144   145    1
   150   144   146    1
   151   147   148    1
   152   147   149    1
@<TRIPOS>SUBSTRUCTURE
     1 RES1      149 GROUP             0 ****  ****    0  
