@<TRIPOS>MOLECULE
ICIGOT_geomtry_0_nunpairedes_0_charge_2 Charge: 2 Unpaired_Electrons: 1 XTB_Unpaired_Electrons: 0 XTB_Charge: 2
    91    99     1     0     0
SMALL
NoCharges
****
Generated from Architector

@<TRIPOS>ATOM
     1 Yb1      -0.2424    0.0439   -0.2047   Yb        1 RES1   0.0000
     2 C1        0.5231    0.3177    5.3414   C.3       1 RES1   0.0000
     3 N1        1.0486    0.7526    4.0548   N.am      1 RES1   0.0000
     4 C2        0.3314    0.5510    2.9500   C.2       1 RES1   0.0000
     5 O1        0.6986    0.7900    1.7837   O.2       1 RES1   0.0000
     6 C3       -1.0900   -0.0211    3.1416   C.3       1 RES1   0.0000
     7 O2       -1.6849   -0.1254    1.8642   O.3       1 RES1   0.0000
     8 C4       -2.9217    0.5501    1.6727   C.3       1 RES1   0.0000
     9 C5       -2.7170    1.5976    0.5464   C.2       1 RES1   0.0000
    10 O3       -1.5302    1.7809    0.1878   O.2       1 RES1   0.0000
    11 N2       -3.7835    2.2084    0.0442   N.am      1 RES1   0.0000
    12 C6       -5.1021    1.9694    0.6134   C.3       1 RES1   0.0000
    13 C7       -3.7715    3.1026   -1.0871   C.ar      1 RES1   0.0000
    14 C8       -4.9317    3.8100   -1.4145   C.ar      1 RES1   0.0000
    15 C9       -4.9745    4.6360   -2.5221   C.ar      1 RES1   0.0000
    16 C10      -3.8609    4.7919   -3.3268   C.ar      1 RES1   0.0000
    17 C11      -2.7098    4.0916   -3.0164   C.ar      1 RES1   0.0000
    18 C12      -2.6566    3.2549   -1.9135   C.ar      1 RES1   0.0000
    19 C13       2.3044    1.4478    4.1188   C.ar      1 RES1   0.0000
    20 C14       3.1430    1.5741    3.0145   C.ar      1 RES1   0.0000
    21 C15       4.3745    2.1952    3.1481   C.ar      1 RES1   0.0000
    22 C16       4.7937    2.6760    4.3768   C.ar      1 RES1   0.0000
    23 C17       3.9447    2.5946    5.4662   C.ar      1 RES1   0.0000
    24 C18       2.7017    2.0039    5.3380   C.ar      1 RES1   0.0000
    25 H1       -0.1321   -0.5405    5.2383   H         1 RES1   0.0000
    26 H2        1.3566    0.0112    5.9717   H         1 RES1   0.0000
    27 H3       -0.0338    1.1218    5.8266   H         1 RES1   0.0000
    28 H4       -1.0831   -1.0308    3.5774   H         1 RES1   0.0000
    29 H5       -1.6655    0.6388    3.8004   H         1 RES1   0.0000
    30 H6       -3.6446   -0.2180    1.3670   H         1 RES1   0.0000
    31 H7       -3.2458    1.0396    2.5987   H         1 RES1   0.0000
    32 H8       -5.0926    1.2065    1.3789   H         1 RES1   0.0000
    33 H9       -5.4718    2.8883    1.0658   H         1 RES1   0.0000
    34 H10      -5.7773    1.6512   -0.1791   H         1 RES1   0.0000
    35 H11      -5.8312    3.7505   -0.8293   H         1 RES1   0.0000
    36 H12      -5.8943    5.1484   -2.7563   H         1 RES1   0.0000
    37 H13      -3.8941    5.4455   -4.1834   H         1 RES1   0.0000
    38 H14      -1.8397    4.1890   -3.6501   H         1 RES1   0.0000
    39 H15      -1.7295    2.7351   -1.7183   H         1 RES1   0.0000
    40 H16       2.8377    1.2072    2.0481   H         1 RES1   0.0000
    41 H17       5.0131    2.3008    2.2832   H         1 RES1   0.0000
    42 H18       5.7678    3.1232    4.4878   H         1 RES1   0.0000
    43 H19       4.2511    2.9925    6.4239   H         1 RES1   0.0000
    44 H20       2.0539    2.0087    6.1990   H         1 RES1   0.0000
    45 C19      -0.9349   -4.4144    1.3815   C.3       1 RES1   0.0000
    46 N3        0.4233   -3.9438    1.6207   N.am      1 RES1   0.0000
    47 C20       0.7716   -2.7869    1.0750   C.2       1 RES1   0.0000
    48 O4       -0.0124   -2.1178    0.3675   O.2       1 RES1   0.0000
    49 C21       2.1762   -2.2241    1.3130   C.3       1 RES1   0.0000
    50 O5        2.3455   -1.0748    0.5097   O.3       1 RES1   0.0000
    51 C22       3.2481   -1.2190   -0.5797   C.3       1 RES1   0.0000
    52 C23       2.5993   -0.5363   -1.7915   C.2       1 RES1   0.0000
    53 O6        1.5174    0.0525   -1.5770   O.2       1 RES1   0.0000
    54 N4        3.1861   -0.6240   -2.9771   N.am      1 RES1   0.0000
    55 C24       4.5260   -1.1516   -3.1842   C.3       1 RES1   0.0000
    56 C25       2.5098   -0.2072   -4.1771   C.ar      1 RES1   0.0000
    57 C26       3.2066    0.3934   -5.2209   C.ar      1 RES1   0.0000
    58 C27       2.5518    0.7059   -6.3995   C.ar      1 RES1   0.0000
    59 C28       1.2023    0.4369   -6.5463   C.ar      1 RES1   0.0000
    60 C29       0.5064   -0.1539   -5.5057   C.ar      1 RES1   0.0000
    61 C30       1.1574   -0.4931   -4.3340   C.ar      1 RES1   0.0000
    62 C31       1.2829   -4.8042    2.3780   C.ar      1 RES1   0.0000
    63 C32       1.3478   -6.1505    2.0301   C.ar      1 RES1   0.0000
    64 C33       2.1138   -7.0231    2.7804   C.ar      1 RES1   0.0000
    65 C34       2.8285   -6.5560    3.8703   C.ar      1 RES1   0.0000
    66 C35       2.7708   -5.2174    4.2177   C.ar      1 RES1   0.0000
    67 C36       1.9882   -4.3426    3.4841   C.ar      1 RES1   0.0000
    68 H21      -1.6385   -3.6234    1.6411   H         1 RES1   0.0000
    69 H22      -1.1203   -5.2896    1.9956   H         1 RES1   0.0000
    70 H23      -1.0799   -4.6637    0.3309   H         1 RES1   0.0000
    71 H24       2.9353   -2.9848    1.1102   H         1 RES1   0.0000
    72 H25       2.2834   -1.9088    2.3553   H         1 RES1   0.0000
    73 H26       3.4118   -2.2807   -0.7923   H         1 RES1   0.0000
    74 H27       4.1983   -0.7406   -0.3099   H         1 RES1   0.0000
    75 H28       4.8776   -1.7346   -2.3401   H         1 RES1   0.0000
    76 H29       5.2307   -0.3368   -3.3555   H         1 RES1   0.0000
    77 H30       4.5192   -1.7837   -4.0712   H         1 RES1   0.0000
    78 H31       4.2552    0.6265   -5.1365   H         1 RES1   0.0000
    79 H32       3.1019    1.1576   -7.2108   H         1 RES1   0.0000
    80 H33       0.6931    0.6808   -7.4651   H         1 RES1   0.0000
    81 H34      -0.5476   -0.3640   -5.6099   H         1 RES1   0.0000
    82 H35       0.6189   -0.9925   -3.5402   H         1 RES1   0.0000
    83 H36       0.7983   -6.5185    1.1775   H         1 RES1   0.0000
    84 H37       2.1428   -8.0678    2.5109   H         1 RES1   0.0000
    85 H38       3.4179   -7.2364    4.4603   H         1 RES1   0.0000
    86 H39       3.3258   -4.8543    5.0704   H         1 RES1   0.0000
    87 H40       1.9058   -3.3121    3.7932   H         1 RES1   0.0000
    88 N5       -2.0503   -0.2940   -1.8946   N.3       1 RES1   0.0000
    89 O7       -2.8894   -0.4372   -2.7189   O.2       1 RES1   0.0000
    90 O8       -1.0137    0.3525   -2.1177   O.co2     1 RES1   0.0000
    91 O9       -2.1641   -0.7740   -0.7486   O.co2     1 RES1   0.0000
@<TRIPOS>BOND
     1     1     5    1
     2     1     7    1
     3     1    10    1
     4     1    48    1
     5     1    50    1
     6     1    53    1
     7     1    90    1
     8     1    91    1
     9     2     3    1
    10     2    25    1
    11     2    26    1
    12     2    27    1
    13     3     4    1
    14     3    19    1
    15     4     5    2
    16     4     6    1
    17     6     7    1
    18     6    28    1
    19     6    29    1
    20     7     8    1
    21     8     9    1
    22     8    30    1
    23     8    31    1
    24     9    10    2
    25     9    11    1
    26    11    12    1
    27    11    13    1
    28    12    32    1
    29    12    33    1
    30    12    34    1
    31    13    14    1
    32    13    18    2
    33    14    15    2
    34    14    35    1
    35    15    16    1
    36    15    36    1
    37    16    17    2
    38    16    37    1
    39    17    18    1
    40    17    38    1
    41    18    39    1
    42    19    20    1
    43    19    24    2
    44    20    21    2
    45    20    40    1
    46    21    22    1
    47    21    41    1
    48    22    23    2
    49    22    42    1
    50    23    24    1
    51    23    43    1
    52    24    44    1
    53    45    46    1
    54    45    68    1
    55    45    69    1
    56    45    70    1
    57    46    47    1
    58    46    62    1
    59    47    48    2
    60    47    49    1
    61    49    50    1
    62    49    71    1
    63    49    72    1
    64    50    51    1
    65    51    52    1
    66    51    73    1
    67    51    74    1
    68    52    53    2
    69    52    54    1
    70    54    55    1
    71    54    56    1
    72    55    75    1
    73    55    76    1
    74    55    77    1
    75    56    57    1
    76    56    61    2
    77    57    58    2
    78    57    78    1
    79    58    59    1
    80    58    79    1
    81    59    60    2
    82    59    80    1
    83    60    61    1
    84    60    81    1
    85    61    82    1
    86    62    63    1
    87    62    67    2
    88    63    64    2
    89    63    83    1
    90    64    65    1
    91    64    84    1
    92    65    66    2
    93    65    85    1
    94    66    67    1
    95    66    86    1
    96    67    87    1
    97    88    89    2
    98    88    90    1
    99    88    91    1
@<TRIPOS>SUBSTRUCTURE
     1 RES1       91 GROUP             0 ****  ****    0  
