@<TRIPOS>MOLECULE
square_prismatic_0_nunpairedes_0_charge_3 Charge: 3 Unpaired_Electrons: 1 XTB_Unpaired_Electrons: 0 XTB_Charge: 3
   145   158     1     0     0
SMALL
NoCharges
****
Generated from Architector

@<TRIPOS>ATOM
     1 Yb1      -0.1668   -0.0495   -0.0446   Yb        1 RES1   0.0000
     2 C1       -1.3198    3.9254    4.8160   C.3       1 RES1   0.0000
     3 C2       -0.8094    4.3198    3.4272   C.3       1 RES1   0.0000
     4 N1        0.1016    3.3163    2.8705   N.am      1 RES1   0.0000
     5 C3       -0.3402    2.2815    2.1296   C.2       1 RES1   0.0000
     6 O1        0.4443    1.4741    1.5737   O.2       1 RES1   0.0000
     7 C4       -1.8232    1.9324    1.8801   C.ar      1 RES1   0.0000
     8 C5       -2.9867    2.4320    2.4692   C.ar      1 RES1   0.0000
     9 C6       -4.1945    1.8113    2.1796   C.ar      1 RES1   0.0000
    10 C7       -4.2598    0.7393    1.3092   C.ar      1 RES1   0.0000
    11 C8       -3.0851    0.3359    0.6697   C.ar      1 RES1   0.0000
    12 C9       -3.1016   -0.7404   -0.3838   C.ar      1 RES1   0.0000
    13 C10      -4.2558   -1.4474   -0.7280   C.ar      1 RES1   0.0000
    14 C11      -4.1639   -2.4724   -1.6601   C.ar      1 RES1   0.0000
    15 C12      -2.9486   -2.8104   -2.2375   C.ar      1 RES1   0.0000
    16 C13      -1.8417   -2.0319   -1.8983   C.ar      1 RES1   0.0000
    17 C14      -0.3993   -2.3077   -2.2711   C.2       1 RES1   0.0000
    18 O2        0.4675   -1.7097   -1.5815   O.2       1 RES1   0.0000
    19 N2       -0.0403   -3.2392   -3.1618   N.am      1 RES1   0.0000
    20 C15       1.3569   -3.6899   -3.1688   C.3       1 RES1   0.0000
    21 C16       2.1823   -3.0441   -4.2713   C.3       1 RES1   0.0000
    22 C17      -0.8166   -3.6642   -4.2831   C.ar      1 RES1   0.0000
    23 C18      -0.7133   -4.9592   -4.7939   C.ar      1 RES1   0.0000
    24 C19      -1.4012   -5.3180   -5.9476   C.ar      1 RES1   0.0000
    25 C20      -1.3040   -6.6825   -6.5471   C.3       1 RES1   0.0000
    26 C21      -2.2109   -4.3712   -6.5703   C.ar      1 RES1   0.0000
    27 C22      -2.3247   -3.0800   -6.0806   C.ar      1 RES1   0.0000
    28 C23      -3.1919   -2.0720   -6.7623   C.3       1 RES1   0.0000
    29 C24      -1.6022   -2.7256   -4.9451   C.ar      1 RES1   0.0000
    30 N3       -1.9548   -1.0387   -1.0046   N.ar      1 RES1   0.0000
    31 N4       -1.9261    0.9261    0.9908   N.ar      1 RES1   0.0000
    32 C25       1.4900    3.5379    3.2269   C.ar      1 RES1   0.0000
    33 C26       2.5464    2.8946    2.5737   C.ar      1 RES1   0.0000
    34 C27       3.8649    3.1079    2.9546   C.ar      1 RES1   0.0000
    35 C28       5.0031    2.3842    2.3031   C.3       1 RES1   0.0000
    36 C29       4.1578    3.9956    3.9813   C.ar      1 RES1   0.0000
    37 C30       3.1426    4.6750    4.6323   C.ar      1 RES1   0.0000
    38 C31       3.4635    5.6294    5.7416   C.3       1 RES1   0.0000
    39 C32       1.8221    4.4365    4.2522   C.ar      1 RES1   0.0000
    40 H1       -2.0465    4.6574    5.1550   H         1 RES1   0.0000
    41 H2       -0.5144    3.9020    5.5444   H         1 RES1   0.0000
    42 H3       -1.7693    2.9349    4.8173   H         1 RES1   0.0000
    43 H4       -0.2506    5.2574    3.4765   H         1 RES1   0.0000
    44 H5       -1.6170    4.4929    2.7154   H         1 RES1   0.0000
    45 H6       -3.0132    3.2609    3.1518   H         1 RES1   0.0000
    46 H7       -5.0886    2.1788    2.6546   H         1 RES1   0.0000
    47 H8       -5.2052    0.2509    1.1414   H         1 RES1   0.0000
    48 H9       -5.2064   -1.2397   -0.2710   H         1 RES1   0.0000
    49 H10      -5.0515   -3.0263   -1.9148   H         1 RES1   0.0000
    50 H11      -2.8718   -3.6525   -2.9101   H         1 RES1   0.0000
    51 H12       1.3388   -4.7700   -3.3178   H         1 RES1   0.0000
    52 H13       1.7800   -3.4750   -2.1850   H         1 RES1   0.0000
    53 H14       1.7973   -3.3068   -5.2521   H         1 RES1   0.0000
    54 H15       3.1993   -3.4122   -4.2013   H         1 RES1   0.0000
    55 H16       2.1914   -1.9634   -4.1692   H         1 RES1   0.0000
    56 H17      -0.1075   -5.7071   -4.3054   H         1 RES1   0.0000
    57 H18      -0.6356   -7.3419   -6.0011   H         1 RES1   0.0000
    58 H19      -0.9504   -6.6019   -7.5740   H         1 RES1   0.0000
    59 H20      -2.2920   -7.1391   -6.5827   H         1 RES1   0.0000
    60 H21      -2.7517   -4.6481   -7.4635   H         1 RES1   0.0000
    61 H22      -3.6759   -2.4986   -7.6355   H         1 RES1   0.0000
    62 H23      -2.5946   -1.2196   -7.0789   H         1 RES1   0.0000
    63 H24      -3.9606   -1.7144   -6.0786   H         1 RES1   0.0000
    64 H25      -1.6355   -1.7100   -4.5739   H         1 RES1   0.0000
    65 H26       2.3642    2.2192    1.7548   H         1 RES1   0.0000
    66 H27       4.6574    1.6723    1.5565   H         1 RES1   0.0000
    67 H28       5.5658    1.8527    3.0705   H         1 RES1   0.0000
    68 H29       5.6797    3.1025    1.8399   H         1 RES1   0.0000
    69 H30       5.1833    4.1493    4.2845   H         1 RES1   0.0000
    70 H31       4.5368    5.6715    5.9151   H         1 RES1   0.0000
    71 H32       2.9833    5.3111    6.6665   H         1 RES1   0.0000
    72 H33       3.1166    6.6353    5.5053   H         1 RES1   0.0000
    73 H34       1.0925    4.9967    4.8123   H         1 RES1   0.0000
    74 C33      -2.6076   -2.7392    3.7115   C.3       1 RES1   0.0000
    75 C34      -1.9250   -3.4583    2.5580   C.3       1 RES1   0.0000
    76 N5       -0.4634   -3.3335    2.6125   N.am      1 RES1   0.0000
    77 C35       0.0611   -2.3492    1.8778   C.2       1 RES1   0.0000
    78 O3       -0.7307   -1.5390    1.3267   O.2       1 RES1   0.0000
    79 C36       1.5100   -2.1590    1.4960   C.ar      1 RES1   0.0000
    80 C37       2.5702   -3.0565    1.6063   C.ar      1 RES1   0.0000
    81 C38       3.7877   -2.6906    1.0445   C.ar      1 RES1   0.0000
    82 C39       3.9139   -1.5031    0.3315   C.ar      1 RES1   0.0000
    83 C40       2.7888   -0.6896    0.1859   C.ar      1 RES1   0.0000
    84 C41       2.7465    0.5687   -0.6334   C.ar      1 RES1   0.0000
    85 C42       3.8865    1.3193   -0.9310   C.ar      1 RES1   0.0000
    86 C43       3.6998    2.5747   -1.4866   C.ar      1 RES1   0.0000
    87 C44       2.4247    3.0493   -1.7830   C.ar      1 RES1   0.0000
    88 C45       1.3378    2.1918   -1.6134   C.ar      1 RES1   0.0000
    89 C46      -0.1645    2.3446   -1.9186   C.2       1 RES1   0.0000
    90 O4       -0.8368    1.4224   -1.3986   O.2       1 RES1   0.0000
    91 N6       -0.7681    3.2749   -2.6749   N.am      1 RES1   0.0000
    92 C47      -0.0098    4.2870   -3.4056   C.3       1 RES1   0.0000
    93 C48      -0.1270    5.6706   -2.7715   C.3       1 RES1   0.0000
    94 C49      -2.2067    3.3260   -2.8923   C.ar      1 RES1   0.0000
    95 C50      -3.1272    2.5324   -2.1904   C.ar      1 RES1   0.0000
    96 C51      -4.4873    2.5764   -2.4695   C.ar      1 RES1   0.0000
    97 C52      -5.4960    1.7144   -1.7730   C.3       1 RES1   0.0000
    98 C53      -4.9671    3.4395   -3.4413   C.ar      1 RES1   0.0000
    99 C54      -4.1000    4.2640   -4.1332   C.ar      1 RES1   0.0000
   100 C55      -4.6481    5.1895   -5.1712   C.3       1 RES1   0.0000
   101 C56      -2.7352    4.2008   -3.8527   C.ar      1 RES1   0.0000
   102 N7        1.5439    0.9972   -1.0250   N.ar      1 RES1   0.0000
   103 N8        1.6526   -1.0182    0.8048   N.ar      1 RES1   0.0000
   104 C57       0.1682   -4.0130    3.6878   C.ar      1 RES1   0.0000
   105 C58      -0.2978   -5.2455    4.1486   C.ar      1 RES1   0.0000
   106 C59       0.2241   -5.8007    5.3100   C.ar      1 RES1   0.0000
   107 C60      -0.2959   -7.0843    5.8718   C.3       1 RES1   0.0000
   108 C61       1.2446   -5.1262    5.9799   C.ar      1 RES1   0.0000
   109 C62       1.7237   -3.9051    5.5303   C.ar      1 RES1   0.0000
   110 C63       2.7914   -3.1496    6.2517   C.3       1 RES1   0.0000
   111 C64       1.1619   -3.3435    4.3902   C.ar      1 RES1   0.0000
   112 H35      -3.6792   -2.8718    3.6129   H         1 RES1   0.0000
   113 H36      -2.3783   -1.6767    3.7021   H         1 RES1   0.0000
   114 H37      -2.2901   -3.1560    4.6628   H         1 RES1   0.0000
   115 H38      -2.2567   -3.0495    1.6008   H         1 RES1   0.0000
   116 H39      -2.1592   -4.5207    2.5878   H         1 RES1   0.0000
   117 H40       2.4413   -4.0128    2.0913   H         1 RES1   0.0000
   118 H41       4.6283   -3.3601    1.1350   H         1 RES1   0.0000
   119 H42       4.8507   -1.2466   -0.1368   H         1 RES1   0.0000
   120 H43       4.8718    0.9524   -0.6833   H         1 RES1   0.0000
   121 H44       4.5561    3.2060   -1.6557   H         1 RES1   0.0000
   122 H45       2.3216    4.0729   -2.0990   H         1 RES1   0.0000
   123 H46      -0.3801    4.3035   -4.4325   H         1 RES1   0.0000
   124 H47       1.0221    3.9612   -3.4714   H         1 RES1   0.0000
   125 H48      -1.1575    6.0124   -2.7348   H         1 RES1   0.0000
   126 H49       0.4392    6.3737   -3.3729   H         1 RES1   0.0000
   127 H50       0.2552    5.6828   -1.7543   H         1 RES1   0.0000
   128 H51      -2.8103    1.8518   -1.4217   H         1 RES1   0.0000
   129 H52      -5.0419    1.0456   -1.0506   H         1 RES1   0.0000
   130 H53      -6.0370    1.1299   -2.5178   H         1 RES1   0.0000
   131 H54      -6.2231    2.3518   -1.2701   H         1 RES1   0.0000
   132 H55      -6.0253    3.4704   -3.6541   H         1 RES1   0.0000
   133 H56      -5.7275    5.0738   -5.2425   H         1 RES1   0.0000
   134 H57      -4.2157    4.9750   -6.1470   H         1 RES1   0.0000
   135 H58      -4.4317    6.2259   -4.9182   H         1 RES1   0.0000
   136 H59      -2.1274    4.8732   -4.4327   H         1 RES1   0.0000
   137 H60      -1.0730   -5.7882    3.6296   H         1 RES1   0.0000
   138 H61      -1.1055   -7.5068    5.2811   H         1 RES1   0.0000
   139 H62      -0.6570   -6.9190    6.8868   H         1 RES1   0.0000
   140 H63       0.5139   -7.8099    5.9293   H         1 RES1   0.0000
   141 H64       1.6480   -5.5535    6.8857   H         1 RES1   0.0000
   142 H65       3.1260   -3.6797    7.1373   H         1 RES1   0.0000
   143 H66       2.4136   -2.1723    6.5497   H         1 RES1   0.0000
   144 H67       3.6405   -2.9974    5.5865   H         1 RES1   0.0000
   145 H68       1.4627   -2.3551    4.0700   H         1 RES1   0.0000
@<TRIPOS>BOND
     1     1     6    1
     2     1    18    1
     3     1    30    1
     4     1    31    1
     5     1    78    1
     6     1    90    1
     7     1   102    1
     8     1   103    1
     9     2     3    1
    10     2    40    1
    11     2    41    1
    12     2    42    1
    13     3     4    1
    14     3    43    1
    15     3    44    1
    16     4     5    1
    17     4    32    1
    18     5     6    2
    19     5     7    1
    20     7     8    1
    21     7    31    2
    22     8     9    2
    23     8    45    1
    24     9    10    1
    25     9    46    1
    26    10    11    2
    27    10    47    1
    28    11    12    1
    29    11    31    1
    30    12    13    1
    31    12    30    2
    32    13    14    2
    33    13    48    1
    34    14    15    1
    35    14    49    1
    36    15    16    2
    37    15    50    1
    38    16    17    1
    39    16    30    1
    40    17    18    2
    41    17    19    1
    42    19    20    1
    43    19    22    1
    44    20    21    1
    45    20    51    1
    46    20    52    1
    47    21    53    1
    48    21    54    1
    49    21    55    1
    50    22    23    1
    51    22    29    2
    52    23    24    2
    53    23    56    1
    54    24    25    1
    55    24    26    1
    56    25    57    1
    57    25    58    1
    58    25    59    1
    59    26    27    2
    60    26    60    1
    61    27    28    1
    62    27    29    1
    63    28    61    1
    64    28    62    1
    65    28    63    1
    66    29    64    1
    67    32    33    1
    68    32    39    2
    69    33    34    2
    70    33    65    1
    71    34    35    1
    72    34    36    1
    73    35    66    1
    74    35    67    1
    75    35    68    1
    76    36    37    2
    77    36    69    1
    78    37    38    1
    79    37    39    1
    80    38    70    1
    81    38    71    1
    82    38    72    1
    83    39    73    1
    84    74    75    1
    85    74   112    1
    86    74   113    1
    87    74   114    1
    88    75    76    1
    89    75   115    1
    90    75   116    1
    91    76    77    1
    92    76   104    1
    93    77    78    2
    94    77    79    1
    95    79    80    1
    96    79   103    2
    97    80    81    2
    98    80   117    1
    99    81    82    1
   100    81   118    1
   101    82    83    2
   102    82   119    1
   103    83    84    1
   104    83   103    1
   105    84    85    1
   106    84   102    2
   107    85    86    2
   108    85   120    1
   109    86    87    1
   110    86   121    1
   111    87    88    2
   112    87   122    1
   113    88    89    1
   114    88   102    1
   115    89    90    2
   116    89    91    1
   117    91    92    1
   118    91    94    1
   119    92    93    1
   120    92   123    1
   121    92   124    1
   122    93   125    1
   123    93   126    1
   124    93   127    1
   125    94    95    1
   126    94   101    2
   127    95    96    2
   128    95   128    1
   129    96    97    1
   130    96    98    1
   131    97   129    1
   132    97   130    1
   133    97   131    1
   134    98    99    2
   135    98   132    1
   136    99   100    1
   137    99   101    1
   138   100   133    1
   139   100   134    1
   140   100   135    1
   141   101   136    1
   142   104   105    1
   143   104   111    2
   144   105   106    2
   145   105   137    1
   146   106   107    1
   147   106   108    1
   148   107   138    1
   149   107   139    1
   150   107   140    1
   151   108   109    2
   152   108   141    1
   153   109   110    1
   154   109   111    1
   155   110   142    1
   156   110   143    1
   157   110   144    1
   158   111   145    1
@<TRIPOS>SUBSTRUCTURE
     1 RES1      145 GROUP             0 ****  ****    0  
