@<TRIPOS>MOLECULE
ICIGOT_geomtry_0_nunpairedes_0_charge_3 Charge: 3 Unpaired_Electrons: 1 XTB_Unpaired_Electrons: 0 XTB_Charge: 3
   245   248     1     0     0
SMALL
NoCharges
****
Generated from Architector

@<TRIPOS>ATOM
     1 Yb1      -0.1947    0.0115    0.0401   Yb        1 RES1   0.0000
     2 C1        1.9783    2.3560   -4.8864   C.3       1 RES1   0.0000
     3 C2        3.4145    2.4029   -4.3809   C.3       1 RES1   0.0000
     4 C3        3.5137    2.3800   -2.8550   C.3       1 RES1   0.0000
     5 C4        4.9757    2.1730   -2.4506   C.3       1 RES1   0.0000
     6 C5        5.2227    1.8791   -0.9646   C.3       1 RES1   0.0000
     7 C6        5.4740    0.3960   -0.6443   C.3       1 RES1   0.0000
     8 C7        4.2105   -0.3063   -0.1360   C.3       1 RES1   0.0000
     9 C8        4.3633   -1.8242   -0.2135   C.3       1 RES1   0.0000
    10 N1        3.1691   -2.6473    0.0410   N.am      1 RES1   0.0000
    11 C9        3.4492   -4.0875   -0.0313   C.3       1 RES1   0.0000
    12 C10       3.1887   -4.7490   -1.4045   C.3       1 RES1   0.0000
    13 C11       1.8968   -5.5723   -1.6630   C.3       1 RES1   0.0000
    14 C12       1.4804   -6.4195   -0.4585   C.3       1 RES1   0.0000
    15 C13       2.2333   -6.4799   -2.8706   C.3       1 RES1   0.0000
    16 C14       1.1429   -7.2571   -3.6579   C.3       1 RES1   0.0000
    17 C15      -0.0414   -7.7459   -2.8260   C.3       1 RES1   0.0000
    18 C16       0.5838   -6.4281   -4.8175   C.3       1 RES1   0.0000
    19 C17       1.8336   -8.4909   -4.2525   C.3       1 RES1   0.0000
    20 C18       1.9795   -2.1647    0.3160   C.2       1 RES1   0.0000
    21 O1        1.6986   -0.9403    0.3937   O.2       1 RES1   0.0000
    22 C19       0.8252   -3.1409    0.5799   C.3       1 RES1   0.0000
    23 O2       -0.3556   -2.3881    0.8595   O.3       1 RES1   0.0000
    24 C20      -0.9186   -2.5271    2.1650   C.3       1 RES1   0.0000
    25 C21      -1.1947   -1.1249    2.7120   C.2       1 RES1   0.0000
    26 O3       -0.6975   -0.1487    2.0908   O.2       1 RES1   0.0000
    27 N2       -1.9444   -0.9413    3.7803   N.am      1 RES1   0.0000
    28 C22      -2.1919    0.4484    4.1611   C.3       1 RES1   0.0000
    29 C23      -1.0117    1.1148    4.8872   C.3       1 RES1   0.0000
    30 C24      -0.9146    2.5916    4.4988   C.3       1 RES1   0.0000
    31 C25      -2.0589    3.4272    5.0875   C.3       1 RES1   0.0000
    32 C26      -1.8176    3.8247    6.5459   C.3       1 RES1   0.0000
    33 C27      -0.7324    4.8928    6.6855   C.3       1 RES1   0.0000
    34 C28      -0.7809    5.6215    8.0270   C.3       1 RES1   0.0000
    35 C29      -0.4954    4.7097    9.2126   C.3       1 RES1   0.0000
    36 C30      -2.5375   -1.9974    4.5879   C.3       1 RES1   0.0000
    37 C31      -1.8804   -2.1579    5.9622   C.3       1 RES1   0.0000
    38 C32      -0.4425   -2.7033    5.9388   C.3       1 RES1   0.0000
    39 C33       0.2338   -2.3469    7.2614   C.3       1 RES1   0.0000
    40 C34      -0.4867   -4.2204    5.6865   C.3       1 RES1   0.0000
    41 C35       0.8266   -5.0114    5.4723   C.3       1 RES1   0.0000
    42 C36       0.4461   -6.3516    4.8259   C.3       1 RES1   0.0000
    43 C37       1.5479   -5.3186    6.7869   C.3       1 RES1   0.0000
    44 C38       1.7906   -4.2824    4.5330   C.3       1 RES1   0.0000
    45 H1        1.9706    2.3318   -5.9743   H         1 RES1   0.0000
    46 H2        1.4268    3.2361   -4.5544   H         1 RES1   0.0000
    47 H3        1.4857    1.4536   -4.5202   H         1 RES1   0.0000
    48 H4        3.9108    3.2975   -4.7603   H         1 RES1   0.0000
    49 H5        3.9484    1.5400   -4.7791   H         1 RES1   0.0000
    50 H6        2.8673    1.5908   -2.4455   H         1 RES1   0.0000
    51 H7        3.1522    3.3308   -2.4534   H         1 RES1   0.0000
    52 H8        5.5212    3.0747   -2.7249   H         1 RES1   0.0000
    53 H9        5.3940    1.3628   -3.0485   H         1 RES1   0.0000
    54 H10       4.3724    2.2376   -0.3808   H         1 RES1   0.0000
    55 H11       6.0974    2.4443   -0.6493   H         1 RES1   0.0000
    56 H12       6.2542    0.3150    0.1115   H         1 RES1   0.0000
    57 H13       5.8322   -0.1089   -1.5439   H         1 RES1   0.0000
    58 H14       3.3635    0.0223   -0.7412   H         1 RES1   0.0000
    59 H15       4.0223   -0.0192    0.9018   H         1 RES1   0.0000
    60 H16       5.1239   -2.1351    0.5092   H         1 RES1   0.0000
    61 H17       4.7234   -2.1038   -1.2070   H         1 RES1   0.0000
    62 H18       2.9143   -4.6031    0.7654   H         1 RES1   0.0000
    63 H19       4.5119   -4.1958    0.1945   H         1 RES1   0.0000
    64 H20       4.0234   -5.4321   -1.5711   H         1 RES1   0.0000
    65 H21       3.2658   -3.9738   -2.1694   H         1 RES1   0.0000
    66 H22       1.0858   -4.8860   -1.9350   H         1 RES1   0.0000
    67 H23       2.0498   -7.3430   -0.4468   H         1 RES1   0.0000
    68 H24       0.4283   -6.6710   -0.5086   H         1 RES1   0.0000
    69 H25       1.6474   -5.9250    0.4926   H         1 RES1   0.0000
    70 H26       2.9416   -7.2221   -2.4992   H         1 RES1   0.0000
    71 H27       2.7722   -5.8738   -3.6042   H         1 RES1   0.0000
    72 H28      -0.6229   -6.9167   -2.4266   H         1 RES1   0.0000
    73 H29       0.2872   -8.3917   -2.0182   H         1 RES1   0.0000
    74 H30      -0.7017   -8.3249   -3.4677   H         1 RES1   0.0000
    75 H31      -0.1103   -5.6694   -4.4635   H         1 RES1   0.0000
    76 H32       0.0347   -7.0790   -5.4925   H         1 RES1   0.0000
    77 H33       1.3821   -5.9590   -5.3862   H         1 RES1   0.0000
    78 H34       2.1633   -9.1653   -3.4649   H         1 RES1   0.0000
    79 H35       2.6975   -8.2039   -4.8474   H         1 RES1   0.0000
    80 H36       1.1427   -9.0317   -4.8943   H         1 RES1   0.0000
    81 H37       1.0767   -3.8076    1.4089   H         1 RES1   0.0000
    82 H38       0.6380   -3.7410   -0.3181   H         1 RES1   0.0000
    83 H39      -0.2422   -3.0468    2.8566   H         1 RES1   0.0000
    84 H40      -1.8481   -3.1062    2.0797   H         1 RES1   0.0000
    85 H41      -3.0943    0.4754    4.7678   H         1 RES1   0.0000
    86 H42      -2.3718    0.9963    3.2280   H         1 RES1   0.0000
    87 H43      -0.0832    0.6045    4.6223   H         1 RES1   0.0000
    88 H44      -1.1341    1.0385    5.9668   H         1 RES1   0.0000
    89 H45      -0.9194    2.6654    3.4017   H         1 RES1   0.0000
    90 H46       0.0291    3.0016    4.8605   H         1 RES1   0.0000
    91 H47      -2.9923    2.8658    5.0166   H         1 RES1   0.0000
    92 H48      -2.1814    4.3407    4.4989   H         1 RES1   0.0000
    93 H49      -1.5517    2.9457    7.1338   H         1 RES1   0.0000
    94 H50      -2.7497    4.2175    6.9538   H         1 RES1   0.0000
    95 H51      -0.8652    5.6271    5.8878   H         1 RES1   0.0000
    96 H52       0.2569    4.4462    6.5647   H         1 RES1   0.0000
    97 H53      -1.7619    6.0811    8.1523   H         1 RES1   0.0000
    98 H54      -0.0410    6.4232    8.0097   H         1 RES1   0.0000
    99 H55      -1.2797    3.9676    9.3377   H         1 RES1   0.0000
   100 H56      -0.4386    5.2909   10.1284   H         1 RES1   0.0000
   101 H57       0.4535    4.1949    9.0775   H         1 RES1   0.0000
   102 H58      -2.4952   -2.9404    4.0455   H         1 RES1   0.0000
   103 H59      -3.5895   -1.7409    4.7369   H         1 RES1   0.0000
   104 H60      -2.5098   -2.8280    6.5495   H         1 RES1   0.0000
   105 H61      -1.8858   -1.1949    6.4678   H         1 RES1   0.0000
   106 H62       0.1003   -2.2000    5.1276   H         1 RES1   0.0000
   107 H63      -0.1798   -2.9421    8.0699   H         1 RES1   0.0000
   108 H64       0.0854   -1.2958    7.5003   H         1 RES1   0.0000
   109 H65       1.3028   -2.5233    7.2159   H         1 RES1   0.0000
   110 H66      -1.1073   -4.3916    4.8008   H         1 RES1   0.0000
   111 H67      -1.0109   -4.6843    6.5241   H         1 RES1   0.0000
   112 H68      -0.2432   -6.8976    5.4640   H         1 RES1   0.0000
   113 H69       1.3344   -6.9622    4.6835   H         1 RES1   0.0000
   114 H70      -0.0295   -6.2064    3.8555   H         1 RES1   0.0000
   115 H71       0.8482   -5.6583    7.5440   H         1 RES1   0.0000
   116 H72       2.0779   -4.4551    7.1723   H         1 RES1   0.0000
   117 H73       2.2785   -6.1076    6.6311   H         1 RES1   0.0000
   118 H74       1.3374   -4.1516    3.5478   H         1 RES1   0.0000
   119 H75       2.6941   -4.8738    4.4101   H         1 RES1   0.0000
   120 H76       2.0759   -3.3101    4.9253   H         1 RES1   0.0000
   121 C39       3.7491    7.6088    3.4142   C.3       1 RES1   0.0000
   122 C40       3.8583    6.1775    3.9247   C.3       1 RES1   0.0000
   123 C41       2.5116    5.5254    4.2413   C.3       1 RES1   0.0000
   124 C42       1.6033    5.3184    3.0206   C.3       1 RES1   0.0000
   125 C43       0.6034    6.4537    2.7931   C.3       1 RES1   0.0000
   126 C44      -0.5576    6.0355    1.8909   C.3       1 RES1   0.0000
   127 C45      -0.1196    5.7661    0.4526   C.3       1 RES1   0.0000
   128 C46      -1.2865    5.3635   -0.4543   C.3       1 RES1   0.0000
   129 N3       -1.8045    4.0487   -0.1047   N.am      1 RES1   0.0000
   130 C47      -2.9600    3.9367    0.7885   C.3       1 RES1   0.0000
   131 C48      -4.1360    3.1577    0.1726   C.3       1 RES1   0.0000
   132 C49      -5.2527    4.0169   -0.4465   C.3       1 RES1   0.0000
   133 C50      -6.4501    3.1149   -0.7462   C.3       1 RES1   0.0000
   134 C51      -4.8486    4.9299   -1.6214   C.3       1 RES1   0.0000
   135 C52      -4.5645    4.4174   -3.0516   C.3       1 RES1   0.0000
   136 C53      -3.8870    5.5736   -3.8009   C.3       1 RES1   0.0000
   137 C54      -5.8385    4.0489   -3.8106   C.3       1 RES1   0.0000
   138 C55      -3.6090    3.2246   -3.0765   C.3       1 RES1   0.0000
   139 C56      -1.1793    2.9371   -0.4324   C.2       1 RES1   0.0000
   140 O4       -1.4945    1.8167    0.0517   O.2       1 RES1   0.0000
   141 C57      -0.0812    2.9161   -1.5022   C.3       1 RES1   0.0000
   142 O5        0.1309    1.5538   -1.8744   O.3       1 RES1   0.0000
   143 C58      -0.8312    1.1109   -2.8435   C.3       1 RES1   0.0000
   144 C59      -0.7269   -0.4074   -2.9166   C.2       1 RES1   0.0000
   145 O6       -0.3289   -0.9952   -1.8720   O.2       1 RES1   0.0000
   146 N4       -1.0647   -1.0669   -4.0064   N.am      1 RES1   0.0000
   147 C60      -0.8534   -2.5165   -4.0140   C.3       1 RES1   0.0000
   148 C61       0.5890   -2.8342   -4.4187   C.3       1 RES1   0.0000
   149 C62       0.8364   -2.8818   -5.9340   C.3       1 RES1   0.0000
   150 C63       2.2088   -2.3297   -6.3141   C.3       1 RES1   0.0000
   151 C64       3.3917   -3.1138   -5.7286   C.3       1 RES1   0.0000
   152 C65       4.6478   -2.2376   -5.5994   C.3       1 RES1   0.0000
   153 C66       4.8762   -1.6367   -4.2082   C.3       1 RES1   0.0000
   154 C67       3.6088   -1.1366   -3.5186   C.3       1 RES1   0.0000
   155 C68      -1.5927   -0.4507   -5.2180   C.3       1 RES1   0.0000
   156 C69      -3.0560   -0.0278   -5.0777   C.3       1 RES1   0.0000
   157 C70      -4.0222   -1.1916   -4.8131   C.3       1 RES1   0.0000
   158 C71      -4.1345   -2.0861   -6.0459   C.3       1 RES1   0.0000
   159 C72      -5.3994   -0.6237   -4.4211   C.3       1 RES1   0.0000
   160 C73      -6.1674   -1.3640   -3.3091   C.3       1 RES1   0.0000
   161 C74      -5.4188   -1.2625   -1.9733   C.3       1 RES1   0.0000
   162 C75      -7.5297   -0.6801   -3.1603   C.3       1 RES1   0.0000
   163 C76      -6.3971   -2.8382   -3.6429   C.3       1 RES1   0.0000
   164 H77       4.7311    8.0734    3.3924   H         1 RES1   0.0000
   165 H78       3.1146    8.1998    4.0695   H         1 RES1   0.0000
   166 H79       3.3433    7.6381    2.4057   H         1 RES1   0.0000
   167 H80       4.4500    6.1760    4.8411   H         1 RES1   0.0000
   168 H81       4.3912    5.5688    3.1886   H         1 RES1   0.0000
   169 H82       1.9910    6.1272    4.9879   H         1 RES1   0.0000
   170 H83       2.7128    4.5514    4.6976   H         1 RES1   0.0000
   171 H84       1.0211    4.4041    3.1753   H         1 RES1   0.0000
   172 H85       2.2291    5.1747    2.1359   H         1 RES1   0.0000
   173 H86       1.0983    7.3246    2.3685   H         1 RES1   0.0000
   174 H87       0.1905    6.7533    3.7579   H         1 RES1   0.0000
   175 H88      -1.2975    6.8352    1.8855   H         1 RES1   0.0000
   176 H89      -1.0299    5.1460    2.3150   H         1 RES1   0.0000
   177 H90       0.6389    4.9828    0.4401   H         1 RES1   0.0000
   178 H91       0.3237    6.6719    0.0388   H         1 RES1   0.0000
   179 H92      -0.9666    5.3771   -1.4980   H         1 RES1   0.0000
   180 H93      -2.0935    6.0881   -0.3451   H         1 RES1   0.0000
   181 H94      -3.2779    4.9420    1.0601   H         1 RES1   0.0000
   182 H95      -2.6287    3.4170    1.6930   H         1 RES1   0.0000
   183 H96      -4.6029    2.5866    0.9779   H         1 RES1   0.0000
   184 H97      -3.7567    2.4384   -0.5514   H         1 RES1   0.0000
   185 H98      -5.5725    4.7158    0.3379   H         1 RES1   0.0000
   186 H99      -6.1700    2.2697   -1.3719   H         1 RES1   0.0000
   187 H100     -7.2273    3.6790   -1.2501   H         1 RES1   0.0000
   188 H101     -6.8689    2.7270    0.1799   H         1 RES1   0.0000
   189 H102     -3.9679    5.4914   -1.3038   H         1 RES1   0.0000
   190 H103     -5.6589    5.6540   -1.7207   H         1 RES1   0.0000
   191 H104     -4.5210    6.4548   -3.7936   H         1 RES1   0.0000
   192 H105     -3.7061    5.2977   -4.8369   H         1 RES1   0.0000
   193 H106     -2.9336    5.8378   -3.3446   H         1 RES1   0.0000
   194 H107     -6.5661    4.8510   -3.7483   H         1 RES1   0.0000
   195 H108     -6.2931    3.1438   -3.4243   H         1 RES1   0.0000
   196 H109     -5.6107    3.8856   -4.8610   H         1 RES1   0.0000
   197 H110     -2.7392    3.4416   -2.4627   H         1 RES1   0.0000
   198 H111     -3.2815    3.0468   -4.0989   H         1 RES1   0.0000
   199 H112     -4.1019    2.3252   -2.7130   H         1 RES1   0.0000
   200 H113      0.8698    3.2967   -1.1147   H         1 RES1   0.0000
   201 H114     -0.3583    3.5037   -2.3835   H         1 RES1   0.0000
   202 H115     -0.6287    1.5932   -3.8052   H         1 RES1   0.0000
   203 H116     -1.8481    1.3685   -2.5158   H         1 RES1   0.0000
   204 H117     -1.5612   -2.9746   -4.7029   H         1 RES1   0.0000
   205 H118     -1.0464   -2.8845   -3.0017   H         1 RES1   0.0000
   206 H119      0.8654   -3.7888   -3.9761   H         1 RES1   0.0000
   207 H120      1.2179   -2.0686   -3.9682   H         1 RES1   0.0000
   208 H121      0.0908   -2.2864   -6.4602   H         1 RES1   0.0000
   209 H122      0.7385   -3.9056   -6.2933   H         1 RES1   0.0000
   210 H123      2.2569   -1.2838   -6.0031   H         1 RES1   0.0000
   211 H124      2.2956   -2.3340   -7.4014   H         1 RES1   0.0000
   212 H125      3.6076   -3.9503   -6.3934   H         1 RES1   0.0000
   213 H126      3.1440   -3.5449   -4.7571   H         1 RES1   0.0000
   214 H127      4.5872   -1.4325   -6.3321   H         1 RES1   0.0000
   215 H128      5.5284   -2.8277   -5.8500   H         1 RES1   0.0000
   216 H129      5.5825   -0.8089   -4.3074   H         1 RES1   0.0000
   217 H130      5.3593   -2.3794   -3.5695   H         1 RES1   0.0000
   218 H131      2.9663   -0.6098   -4.2188   H         1 RES1   0.0000
   219 H132      3.8557   -0.4411   -2.7271   H         1 RES1   0.0000
   220 H133      3.0555   -1.9633   -3.0767   H         1 RES1   0.0000
   221 H134     -1.5145   -1.1794   -6.0221   H         1 RES1   0.0000
   222 H135     -0.9822    0.4081   -5.5064   H         1 RES1   0.0000
   223 H136     -3.3477    0.4657   -6.0044   H         1 RES1   0.0000
   224 H137     -3.1381    0.7046   -4.2761   H         1 RES1   0.0000
   225 H138     -3.6219   -1.7780   -3.9796   H         1 RES1   0.0000
   226 H139     -4.4856   -1.5087   -6.8964   H         1 RES1   0.0000
   227 H140     -4.8427   -2.8875   -5.8727   H         1 RES1   0.0000
   228 H141     -3.1836   -2.5418   -6.3113   H         1 RES1   0.0000
   229 H142     -6.0359   -0.6035   -5.3046   H         1 RES1   0.0000
   230 H143     -5.2843    0.4160   -4.1011   H         1 RES1   0.0000
   231 H144     -5.2313   -0.2183   -1.7231   H         1 RES1   0.0000
   232 H145     -4.4702   -1.7985   -2.0221   H         1 RES1   0.0000
   233 H146     -6.0252   -1.7083   -1.1889   H         1 RES1   0.0000
   234 H147     -7.4141    0.3742   -2.9182   H         1 RES1   0.0000
   235 H148     -8.1093   -1.1536   -2.3726   H         1 RES1   0.0000
   236 H149     -8.0959   -0.7546   -4.0841   H         1 RES1   0.0000
   237 H150     -5.4655   -3.3995   -3.6487   H         1 RES1   0.0000
   238 H151     -6.8770   -2.9395   -4.6117   H         1 RES1   0.0000
   239 H152     -7.0538   -3.2867   -2.9017   H         1 RES1   0.0000
   240 O7       -2.5476   -0.7854   -0.0220   O.3       1 RES1   0.0000
   241 H153     -3.3068   -0.2469    0.2521   H         1 RES1   0.0000
   242 H154     -2.9230   -1.5792   -0.4333   H         1 RES1   0.0000
   243 O8        1.2965    1.7936    0.9766   O.3       1 RES1   0.0000
   244 H155      2.2341    1.5530    0.9417   H         1 RES1   0.0000
   245 H156      1.1381    2.1053    1.8812   H         1 RES1   0.0000
@<TRIPOS>BOND
     1     1    21    1
     2     1    23    1
     3     1    26    1
     4     1   140    1
     5     1   142    1
     6     1   145    1
     7     1   240    1
     8     1   243    1
     9     2     3    1
    10     2    45    1
    11     2    46    1
    12     2    47    1
    13     3     4    1
    14     3    48    1
    15     3    49    1
    16     4     5    1
    17     4    50    1
    18     4    51    1
    19     5     6    1
    20     5    52    1
    21     5    53    1
    22     6     7    1
    23     6    54    1
    24     6    55    1
    25     7     8    1
    26     7    56    1
    27     7    57    1
    28     8     9    1
    29     8    58    1
    30     8    59    1
    31     9    10    1
    32     9    60    1
    33     9    61    1
    34    10    11    1
    35    10    20    1
    36    11    12    1
    37    11    62    1
    38    11    63    1
    39    12    13    1
    40    12    64    1
    41    12    65    1
    42    13    14    1
    43    13    15    1
    44    13    66    1
    45    14    67    1
    46    14    68    1
    47    14    69    1
    48    15    16    1
    49    15    70    1
    50    15    71    1
    51    16    17    1
    52    16    18    1
    53    16    19    1
    54    17    72    1
    55    17    73    1
    56    17    74    1
    57    18    75    1
    58    18    76    1
    59    18    77    1
    60    19    78    1
    61    19    79    1
    62    19    80    1
    63    20    21    2
    64    20    22    1
    65    22    23    1
    66    22    81    1
    67    22    82    1
    68    23    24    1
    69    24    25    1
    70    24    83    1
    71    24    84    1
    72    25    26    2
    73    25    27    1
    74    27    28    1
    75    27    36    1
    76    28    29    1
    77    28    85    1
    78    28    86    1
    79    29    30    1
    80    29    87    1
    81    29    88    1
    82    30    31    1
    83    30    89    1
    84    30    90    1
    85    31    32    1
    86    31    91    1
    87    31    92    1
    88    32    33    1
    89    32    93    1
    90    32    94    1
    91    33    34    1
    92    33    95    1
    93    33    96    1
    94    34    35    1
    95    34    97    1
    96    34    98    1
    97    35    99    1
    98    35   100    1
    99    35   101    1
   100    36    37    1
   101    36   102    1
   102    36   103    1
   103    37    38    1
   104    37   104    1
   105    37   105    1
   106    38    39    1
   107    38    40    1
   108    38   106    1
   109    39   107    1
   110    39   108    1
   111    39   109    1
   112    40    41    1
   113    40   110    1
   114    40   111    1
   115    41    42    1
   116    41    43    1
   117    41    44    1
   118    42   112    1
   119    42   113    1
   120    42   114    1
   121    43   115    1
   122    43   116    1
   123    43   117    1
   124    44   118    1
   125    44   119    1
   126    44   120    1
   127   121   122    1
   128   121   164    1
   129   121   165    1
   130   121   166    1
   131   122   123    1
   132   122   167    1
   133   122   168    1
   134   123   124    1
   135   123   169    1
   136   123   170    1
   137   124   125    1
   138   124   171    1
   139   124   172    1
   140   125   126    1
   141   125   173    1
   142   125   174    1
   143   126   127    1
   144   126   175    1
   145   126   176    1
   146   127   128    1
   147   127   177    1
   148   127   178    1
   149   128   129    1
   150   128   179    1
   151   128   180    1
   152   129   130    1
   153   129   139    1
   154   130   131    1
   155   130   181    1
   156   130   182    1
   157   131   132    1
   158   131   183    1
   159   131   184    1
   160   132   133    1
   161   132   134    1
   162   132   185    1
   163   133   186    1
   164   133   187    1
   165   133   188    1
   166   134   135    1
   167   134   189    1
   168   134   190    1
   169   135   136    1
   170   135   137    1
   171   135   138    1
   172   136   191    1
   173   136   192    1
   174   136   193    1
   175   137   194    1
   176   137   195    1
   177   137   196    1
   178   138   197    1
   179   138   198    1
   180   138   199    1
   181   139   140    2
   182   139   141    1
   183   141   142    1
   184   141   200    1
   185   141   201    1
   186   142   143    1
   187   143   144    1
   188   143   202    1
   189   143   203    1
   190   144   145    2
   191   144   146    1
   192   146   147    1
   193   146   155    1
   194   147   148    1
   195   147   204    1
   196   147   205    1
   197   148   149    1
   198   148   206    1
   199   148   207    1
   200   149   150    1
   201   149   208    1
   202   149   209    1
   203   150   151    1
   204   150   210    1
   205   150   211    1
   206   151   152    1
   207   151   212    1
   208   151   213    1
   209   152   153    1
   210   152   214    1
   211   152   215    1
   212   153   154    1
   213   153   216    1
   214   153   217    1
   215   154   218    1
   216   154   219    1
   217   154   220    1
   218   155   156    1
   219   155   221    1
   220   155   222    1
   221   156   157    1
   222   156   223    1
   223   156   224    1
   224   157   158    1
   225   157   159    1
   226   157   225    1
   227   158   226    1
   228   158   227    1
   229   158   228    1
   230   159   160    1
   231   159   229    1
   232   159   230    1
   233   160   161    1
   234   160   162    1
   235   160   163    1
   236   161   231    1
   237   161   232    1
   238   161   233    1
   239   162   234    1
   240   162   235    1
   241   162   236    1
   242   163   237    1
   243   163   238    1
   244   163   239    1
   245   240   241    1
   246   240   242    1
   247   243   244    1
   248   243   245    1
@<TRIPOS>SUBSTRUCTURE
     1 RES1      245 GROUP             0 ****  ****    0  
