@<TRIPOS>MOLECULE
ICIGOT_geomtry_0_nunpairedes_0_charge_2 Charge: 2 Unpaired_Electrons: 1 XTB_Unpaired_Electrons: 0 XTB_Charge: 2
   267   271     1     0     0
SMALL
NoCharges
****
Generated from Architector

@<TRIPOS>ATOM
     1 Yb1      -0.2243   -0.1286    0.0365   Yb        1 RES1   0.0000
     2 C1        4.7067   -4.9504    7.7526   C.3       1 RES1   0.0000
     3 C2        5.4749   -4.3284    6.5949   C.3       1 RES1   0.0000
     4 C3        5.8019   -5.3426    5.5007   C.3       1 RES1   0.0000
     5 C4        6.6754   -4.7533    4.3889   C.3       1 RES1   0.0000
     6 C5        5.9506   -3.6655    3.5822   C.3       1 RES1   0.0000
     7 C6        6.4045   -2.2339    3.8944   C.3       1 RES1   0.0000
     8 C7        5.2760   -1.2092    3.7964   C.3       1 RES1   0.0000
     9 C8        4.9879   -0.7529    2.3717   C.3       1 RES1   0.0000
    10 N1        3.7532    0.0339    2.3010   N.am      1 RES1   0.0000
    11 C9        4.0260    1.4354    2.7486   C.3       1 RES1   0.0000
    12 C10       2.9891    2.2627    3.5513   C.3       1 RES1   0.0000
    13 C11       3.4791    2.8450    4.9210   C.3       1 RES1   0.0000
    14 C12       2.8115    2.4906    6.2835   C.3       1 RES1   0.0000
    15 C13       1.6851    3.3998    6.8240   C.3       1 RES1   0.0000
    16 C14       0.4994    2.7090    7.5246   C.3       1 RES1   0.0000
    17 C15       0.8384    1.9561    8.8098   C.3       1 RES1   0.0000
    18 C16      -0.3494    1.1509    9.3301   C.3       1 RES1   0.0000
    19 C17       2.7000   -0.3538    1.5772   C.2       1 RES1   0.0000
    20 O1        1.7977    0.4272    1.2235   O.2       1 RES1   0.0000
    21 C18       2.6138   -1.8214    1.0466   C.3       1 RES1   0.0000
    22 C19       2.5792   -2.9346    2.1095   C.3       1 RES1   0.0000
    23 C20       1.2598   -2.9596    2.8811   C.3       1 RES1   0.0000
    24 C21       1.1860   -4.1467    3.8343   C.3       1 RES1   0.0000
    25 O2        1.4202   -1.9052    0.2524   O.3       1 RES1   0.0000
    26 C22       1.4188   -2.8237   -0.8525   C.3       1 RES1   0.0000
    27 C23       0.1530   -3.7092   -0.7701   C.3       1 RES1   0.0000
    28 C24      -1.0739   -3.0624   -1.4317   C.3       1 RES1   0.0000
    29 C25      -2.3462   -3.8920   -1.2881   C.3       1 RES1   0.0000
    30 C26       1.3542   -1.9353   -2.1064   C.2       1 RES1   0.0000
    31 O3        1.0916   -0.7377   -1.8737   O.2       1 RES1   0.0000
    32 N2        1.5540   -2.3946   -3.3346   N.am      1 RES1   0.0000
    33 C27       1.7072   -3.7902   -3.7217   C.3       1 RES1   0.0000
    34 C28       0.5207   -4.2673   -4.5700   C.3       1 RES1   0.0000
    35 C29       0.5973   -5.7507   -4.9303   C.3       1 RES1   0.0000
    36 C30      -0.5713   -6.1609   -5.8351   C.3       1 RES1   0.0000
    37 C31      -1.9260   -6.1720   -5.1218   C.3       1 RES1   0.0000
    38 C32      -3.1054   -6.4825   -6.0573   C.3       1 RES1   0.0000
    39 C33      -3.8769   -5.2463   -6.5248   C.3       1 RES1   0.0000
    40 C34      -3.0868   -4.3502   -7.4707   C.3       1 RES1   0.0000
    41 C35       1.5591   -1.4288   -4.4305   C.3       1 RES1   0.0000
    42 C36       2.9032   -1.3871   -5.1649   C.3       1 RES1   0.0000
    43 C37       4.0830   -1.2538   -4.2032   C.3       1 RES1   0.0000
    44 C38       5.4295   -1.2795   -4.9271   C.3       1 RES1   0.0000
    45 C39       6.6079   -1.0691   -3.9737   C.3       1 RES1   0.0000
    46 C40       6.8165   -2.2360   -3.0098   C.3       1 RES1   0.0000
    47 C41       7.9915   -2.0223   -2.0547   C.3       1 RES1   0.0000
    48 C42       7.7118   -0.9574   -0.9983   C.3       1 RES1   0.0000
    49 H1        4.5102   -4.2065    8.5200   H         1 RES1   0.0000
    50 H2        5.2796   -5.7561    8.2014   H         1 RES1   0.0000
    51 H3        3.7557   -5.3550    7.4143   H         1 RES1   0.0000
    52 H4        6.4067   -3.8981    6.9675   H         1 RES1   0.0000
    53 H5        4.8782   -3.5170    6.1739   H         1 RES1   0.0000
    54 H6        4.8717   -5.7280    5.0703   H         1 RES1   0.0000
    55 H7        6.3287   -6.1890    5.9470   H         1 RES1   0.0000
    56 H8        6.9759   -5.5597    3.7212   H         1 RES1   0.0000
    57 H9        7.5832   -4.3479    4.8325   H         1 RES1   0.0000
    58 H10       4.8889   -3.7597    3.8080   H         1 RES1   0.0000
    59 H11       6.0640   -3.8550    2.5139   H         1 RES1   0.0000
    60 H12       7.2222   -1.9513    3.2286   H         1 RES1   0.0000
    61 H13       6.7883   -2.1943    4.9113   H         1 RES1   0.0000
    62 H14       5.5198   -0.3408    4.4085   H         1 RES1   0.0000
    63 H15       4.3607   -1.6419    4.1939   H         1 RES1   0.0000
    64 H16       4.9305   -1.6075    1.7032   H         1 RES1   0.0000
    65 H17       5.7968   -0.1105    2.0072   H         1 RES1   0.0000
    66 H18       4.3159    1.9854    1.8447   H         1 RES1   0.0000
    67 H19       4.9149    1.3456    3.3685   H         1 RES1   0.0000
    68 H20       2.0694    1.7001    3.6140   H         1 RES1   0.0000
    69 H21       2.7607    3.1290    2.9439   H         1 RES1   0.0000
    70 H22       3.4742    3.9346    4.8415   H         1 RES1   0.0000
    71 H23       4.5280    2.5645    5.0290   H         1 RES1   0.0000
    72 H24       3.6176    2.5387    7.0141   H         1 RES1   0.0000
    73 H25       2.4677    1.4652    6.2750   H         1 RES1   0.0000
    74 H26       1.2815    3.9748    5.9965   H         1 RES1   0.0000
    75 H27       2.1035    4.1189    7.5314   H         1 RES1   0.0000
    76 H28       0.0022    2.0149    6.8459   H         1 RES1   0.0000
    77 H29      -0.2306    3.4838    7.7752   H         1 RES1   0.0000
    78 H30       1.1697    2.6572    9.5759   H         1 RES1   0.0000
    79 H31       1.6630    1.2731    8.6198   H         1 RES1   0.0000
    80 H32      -1.1773    1.8017    9.5997   H         1 RES1   0.0000
    81 H33      -0.0638    0.5828   10.2118   H         1 RES1   0.0000
    82 H34      -0.7029    0.4450    8.5791   H         1 RES1   0.0000
    83 H35       3.4764   -1.9442    0.3758   H         1 RES1   0.0000
    84 H36       2.7149   -3.8938    1.5986   H         1 RES1   0.0000
    85 H37       3.4006   -2.8165    2.8116   H         1 RES1   0.0000
    86 H38       0.4238   -3.0082    2.1852   H         1 RES1   0.0000
    87 H39       1.1540   -2.0326    3.4423   H         1 RES1   0.0000
    88 H40       1.2324   -5.0916    3.2979   H         1 RES1   0.0000
    89 H41       0.2503   -4.1233    4.3856   H         1 RES1   0.0000
    90 H42       1.9994   -4.1309    4.5573   H         1 RES1   0.0000
    91 H43       2.3369   -3.4213   -0.8401   H         1 RES1   0.0000
    92 H44       0.3416   -4.6805   -1.2332   H         1 RES1   0.0000
    93 H45      -0.0608   -3.8814    0.2879   H         1 RES1   0.0000
    94 H46      -0.8811   -2.9175   -2.4981   H         1 RES1   0.0000
    95 H47      -1.2506   -2.0619   -0.9969   H         1 RES1   0.0000
    96 H48      -2.2766   -4.8216   -1.8465   H         1 RES1   0.0000
    97 H49      -3.1849   -3.3253   -1.6798   H         1 RES1   0.0000
    98 H50      -2.5504   -4.1295   -0.2494   H         1 RES1   0.0000
    99 H51       1.7995   -4.4087   -2.8299   H         1 RES1   0.0000
   100 H52       2.6272   -3.8879   -4.3053   H         1 RES1   0.0000
   101 H53       0.4898   -3.7069   -5.5051   H         1 RES1   0.0000
   102 H54      -0.4050   -4.0792   -4.0274   H         1 RES1   0.0000
   103 H55       0.5942   -6.3677   -4.0286   H         1 RES1   0.0000
   104 H56       1.5361   -5.9400   -5.4566   H         1 RES1   0.0000
   105 H57      -0.3763   -7.1667   -6.2103   H         1 RES1   0.0000
   106 H58      -0.6069   -5.4870   -6.6923   H         1 RES1   0.0000
   107 H59      -2.1126   -5.2105   -4.6402   H         1 RES1   0.0000
   108 H60      -1.8845   -6.9257   -4.3327   H         1 RES1   0.0000
   109 H61      -3.8087   -7.1337   -5.5348   H         1 RES1   0.0000
   110 H62      -2.7494   -7.0330   -6.9295   H         1 RES1   0.0000
   111 H63      -4.1988   -4.6739   -5.6503   H         1 RES1   0.0000
   112 H64      -4.7778   -5.5853   -7.0390   H         1 RES1   0.0000
   113 H65      -2.2721   -3.8480   -6.9537   H         1 RES1   0.0000
   114 H66      -3.7388   -3.5924   -7.8977   H         1 RES1   0.0000
   115 H67      -2.6730   -4.9396   -8.2851   H         1 RES1   0.0000
   116 H68       1.3388   -0.4573   -3.9866   H         1 RES1   0.0000
   117 H69       0.7551   -1.6723   -5.1269   H         1 RES1   0.0000
   118 H70       2.8877   -0.5369   -5.8494   H         1 RES1   0.0000
   119 H71       3.0299   -2.2828   -5.7746   H         1 RES1   0.0000
   120 H72       4.0527   -2.0719   -3.4784   H         1 RES1   0.0000
   121 H73       3.9944   -0.3152   -3.6519   H         1 RES1   0.0000
   122 H74       5.4382   -0.4894   -5.6809   H         1 RES1   0.0000
   123 H75       5.5489   -2.2334   -5.4466   H         1 RES1   0.0000
   124 H76       6.4523   -0.1445   -3.4144   H         1 RES1   0.0000
   125 H77       7.5152   -0.9496   -4.5674   H         1 RES1   0.0000
   126 H78       6.9953   -3.1388   -3.5972   H         1 RES1   0.0000
   127 H79       5.9137   -2.4020   -2.4154   H         1 RES1   0.0000
   128 H80       8.8776   -1.7419   -2.6255   H         1 RES1   0.0000
   129 H81       8.2074   -2.9684   -1.5531   H         1 RES1   0.0000
   130 H82       7.6297    0.0296   -1.4480   H         1 RES1   0.0000
   131 H83       8.5205   -0.9310   -0.2720   H         1 RES1   0.0000
   132 H84       6.7831   -1.1804   -0.4710   H         1 RES1   0.0000
   133 C43       4.6250    8.4866    4.1655   C.3       1 RES1   0.0000
   134 C44       3.1363    8.1683    4.0924   C.3       1 RES1   0.0000
   135 C45       2.4688    8.8868    2.9202   C.3       1 RES1   0.0000
   136 C46       0.9398    8.8142    2.9261   C.3       1 RES1   0.0000
   137 C47       0.3983    7.4033    2.6585   C.3       1 RES1   0.0000
   138 C48       0.0655    6.6025    3.9236   C.3       1 RES1   0.0000
   139 C49       0.2685    5.0878    3.7857   C.3       1 RES1   0.0000
   140 C50      -0.9458    4.3460    3.2254   C.3       1 RES1   0.0000
   141 N3       -0.7077    2.9168    2.9848   N.am      1 RES1   0.0000
   142 C51      -1.0907    2.0770    4.1708   C.3       1 RES1   0.0000
   143 C52      -0.7613    0.5784    4.3984   C.3       1 RES1   0.0000
   144 C53       0.6662    0.2144    4.8591   C.3       1 RES1   0.0000
   145 C54       0.7685   -0.7138    6.0911   C.3       1 RES1   0.0000
   146 C55       2.0776   -1.5160    6.2942   C.3       1 RES1   0.0000
   147 C56       3.4606   -0.8651    6.4881   C.3       1 RES1   0.0000
   148 C57       3.8415   -0.3323    7.8703   C.3       1 RES1   0.0000
   149 C58       5.2331    0.3080    7.8540   C.3       1 RES1   0.0000
   150 C59      -0.5515    2.4096    1.7729   C.2       1 RES1   0.0000
   151 O4       -0.6196    1.1765    1.5973   O.2       1 RES1   0.0000
   152 C60      -0.4075    3.2533    0.4612   C.3       1 RES1   0.0000
   153 C61       0.5939    4.4188    0.4101   C.3       1 RES1   0.0000
   154 C62       2.0402    3.9306    0.4662   C.3       1 RES1   0.0000
   155 C63       3.0511    5.0246    0.7893   C.3       1 RES1   0.0000
   156 O5       -0.0693    2.2606   -0.5266   O.3       1 RES1   0.0000
   157 C64      -0.2317    2.6049   -1.9067   C.3       1 RES1   0.0000
   158 C65       1.1313    2.8296   -2.6109   C.3       1 RES1   0.0000
   159 C66       2.2415    1.8471   -2.2173   C.3       1 RES1   0.0000
   160 C67       3.6281    2.3949   -2.5498   C.3       1 RES1   0.0000
   161 C68      -1.1057    1.4758   -2.5008   C.2       1 RES1   0.0000
   162 O6       -1.2032    0.4179   -1.8521   O.2       1 RES1   0.0000
   163 N4       -1.8504    1.6958   -3.5802   N.am      1 RES1   0.0000
   164 C69      -1.5474    2.6279   -4.6513   C.3       1 RES1   0.0000
   165 C70      -0.9131    1.8515   -5.8131   C.3       1 RES1   0.0000
   166 C71      -0.4992    2.7377   -6.9866   C.3       1 RES1   0.0000
   167 C72      -0.0999    1.8997   -8.2068   C.3       1 RES1   0.0000
   168 C73       1.1957    1.1095   -8.0054   C.3       1 RES1   0.0000
   169 C74       1.5338    0.1751   -9.1780   C.3       1 RES1   0.0000
   170 C75       1.1464   -1.2872   -8.9485   C.3       1 RES1   0.0000
   171 C76      -0.3576   -1.5290   -8.9136   C.3       1 RES1   0.0000
   172 C77      -3.0544    0.8875   -3.7551   C.3       1 RES1   0.0000
   173 C78      -4.2996    1.7793   -3.6654   C.3       1 RES1   0.0000
   174 C79      -4.2366    2.7200   -2.4613   C.3       1 RES1   0.0000
   175 C80      -5.4469    3.6516   -2.3989   C.3       1 RES1   0.0000
   176 C81      -5.3446    4.6926   -1.2809   C.3       1 RES1   0.0000
   177 C82      -4.2859    5.7650   -1.5440   C.3       1 RES1   0.0000
   178 C83      -4.3078    6.8943   -0.5115   C.3       1 RES1   0.0000
   179 C84      -3.8339    6.4529    0.8700   C.3       1 RES1   0.0000
   180 H85       5.0833    7.9826    5.0121   H         1 RES1   0.0000
   181 H86       4.7762    9.5561    4.2839   H         1 RES1   0.0000
   182 H87       5.1331    8.1680    3.2581   H         1 RES1   0.0000
   183 H88       2.6563    8.4830    5.0215   H         1 RES1   0.0000
   184 H89       3.0029    7.0875    3.9965   H         1 RES1   0.0000
   185 H90       2.8509    8.4774    1.9798   H         1 RES1   0.0000
   186 H91       2.7614    9.9379    2.9549   H         1 RES1   0.0000
   187 H92       0.5716    9.4850    2.1502   H         1 RES1   0.0000
   188 H93       0.5678    9.1908    3.8775   H         1 RES1   0.0000
   189 H94       1.1622    6.8767    2.0873   H         1 RES1   0.0000
   190 H95      -0.4937    7.4662    2.0337   H         1 RES1   0.0000
   191 H96      -0.9622    6.8078    4.2270   H         1 RES1   0.0000
   192 H97       0.7049    6.9495    4.7324   H         1 RES1   0.0000
   193 H98       0.4607    4.6795    4.7741   H         1 RES1   0.0000
   194 H99       1.1484    4.8842    3.1780   H         1 RES1   0.0000
   195 H100     -1.3053    4.8023    2.3039   H         1 RES1   0.0000
   196 H101     -1.7535    4.4313    3.9552   H         1 RES1   0.0000
   197 H102     -2.1829    2.1322    4.1852   H         1 RES1   0.0000
   198 H103     -0.7100    2.6382    5.0253   H         1 RES1   0.0000
   199 H104     -1.0251   -0.0037    3.5239   H         1 RES1   0.0000
   200 H105     -1.4731    0.2822    5.1732   H         1 RES1   0.0000
   201 H106      1.1540    1.1451    5.1044   H         1 RES1   0.0000
   202 H107      1.2054   -0.2434    4.0281   H         1 RES1   0.0000
   203 H108     -0.0158   -1.4733    6.0208   H         1 RES1   0.0000
   204 H109      0.5662   -0.1324    6.9867   H         1 RES1   0.0000
   205 H110      2.1837   -2.1604    5.4223   H         1 RES1   0.0000
   206 H111      1.9064   -2.1687    7.1532   H         1 RES1   0.0000
   207 H112      3.6175   -0.0892    5.7415   H         1 RES1   0.0000
   208 H113      4.1877   -1.6577    6.2932   H         1 RES1   0.0000
   209 H114      3.8319   -1.1556    8.5872   H         1 RES1   0.0000
   210 H115      3.1337    0.4136    8.2226   H         1 RES1   0.0000
   211 H116      5.9959   -0.4014    7.5363   H         1 RES1   0.0000
   212 H117      5.4995    0.6616    8.8489   H         1 RES1   0.0000
   213 H118      5.2609    1.1618    7.1754   H         1 RES1   0.0000
   214 H119     -1.4258    3.6253    0.2489   H         1 RES1   0.0000
   215 H120      0.4296    4.9697   -0.5203   H         1 RES1   0.0000
   216 H121      0.4048    5.1189    1.2153   H         1 RES1   0.0000
   217 H122      2.3110    3.5308   -0.4993   H         1 RES1   0.0000
   218 H123      2.1011    3.1125    1.1820   H         1 RES1   0.0000
   219 H124      3.0120    5.8218    0.0499   H         1 RES1   0.0000
   220 H125      4.0607    4.6170    0.7767   H         1 RES1   0.0000
   221 H126      2.8878    5.4739    1.7646   H         1 RES1   0.0000
   222 H127     -0.8245    3.5257   -1.9782   H         1 RES1   0.0000
   223 H128      0.9896    2.7582   -3.6898   H         1 RES1   0.0000
   224 H129      1.4589    3.8505   -2.3930   H         1 RES1   0.0000
   225 H130      2.1060    0.9247   -2.7727   H         1 RES1   0.0000
   226 H131      2.1805    1.5901   -1.1532   H         1 RES1   0.0000
   227 H132      4.3879    1.6808   -2.2385   H         1 RES1   0.0000
   228 H133      3.8309    3.3371   -2.0447   H         1 RES1   0.0000
   229 H134      3.7303    2.5663   -3.6200   H         1 RES1   0.0000
   230 H135     -0.8742    3.4075   -4.2961   H         1 RES1   0.0000
   231 H136     -2.4744    3.0983   -4.9819   H         1 RES1   0.0000
   232 H137     -1.6364    1.1251   -6.1873   H         1 RES1   0.0000
   233 H138     -0.0518    1.3005   -5.4283   H         1 RES1   0.0000
   234 H139      0.3302    3.3902   -6.7035   H         1 RES1   0.0000
   235 H140     -1.3438    3.3742   -7.2607   H         1 RES1   0.0000
   236 H141      0.0367    2.5710   -9.0559   H         1 RES1   0.0000
   237 H142     -0.9163    1.2184   -8.4507   H         1 RES1   0.0000
   238 H143      1.1306    0.5141   -7.0923   H         1 RES1   0.0000
   239 H144      2.0087    1.8263   -7.8680   H         1 RES1   0.0000
   240 H145      2.6098    0.2091   -9.3590   H         1 RES1   0.0000
   241 H146      1.0470    0.5341  -10.0853   H         1 RES1   0.0000
   242 H147      1.6026   -1.6345   -8.0168   H         1 RES1   0.0000
   243 H148      1.5735   -1.8795   -9.7592   H         1 RES1   0.0000
   244 H149     -0.8109   -1.1014   -8.0219   H         1 RES1   0.0000
   245 H150     -0.5663   -2.5959   -8.9257   H         1 RES1   0.0000
   246 H151     -0.8277   -1.0842   -9.7865   H         1 RES1   0.0000
   247 H152     -3.0632    0.1594   -2.9429   H         1 RES1   0.0000
   248 H153     -3.0247    0.3606   -4.7094   H         1 RES1   0.0000
   249 H154     -5.1700    1.1294   -3.5818   H         1 RES1   0.0000
   250 H155     -4.4238    2.3655   -4.5779   H         1 RES1   0.0000
   251 H156     -3.3312    3.3300   -2.5290   H         1 RES1   0.0000
   252 H157     -4.1790    2.1277   -1.5436   H         1 RES1   0.0000
   253 H158     -6.3451    3.0511   -2.2449   H         1 RES1   0.0000
   254 H159     -5.5555    4.1685   -3.3556   H         1 RES1   0.0000
   255 H160     -5.1388    4.1831   -0.3378   H         1 RES1   0.0000
   256 H161     -6.3120    5.1895   -1.1890   H         1 RES1   0.0000
   257 H162     -4.4668    6.1937   -2.5325   H         1 RES1   0.0000
   258 H163     -3.2852    5.3210   -1.5550   H         1 RES1   0.0000
   259 H164     -5.3213    7.2913   -0.4363   H         1 RES1   0.0000
   260 H165     -3.6631    7.7031   -0.8649   H         1 RES1   0.0000
   261 H166     -4.5085    5.7145    1.2973   H         1 RES1   0.0000
   262 H167     -3.7954    7.3063    1.5432   H         1 RES1   0.0000
   263 H168     -2.8335    6.0202    0.8076   H         1 RES1   0.0000
   264 N5       -2.1208   -0.7061    1.4117   N.3       1 RES1   0.0000
   265 O7       -2.7539   -0.5536    2.4025   O.2       1 RES1   0.0000
   266 O8       -2.4322   -0.1921    0.3363   O.co2     1 RES1   0.0000
   267 O9       -1.1026   -1.4272    1.3905   O.co2     1 RES1   0.0000
@<TRIPOS>BOND
     1     1    20    1
     2     1    25    1
     3     1    31    1
     4     1   151    1
     5     1   156    1
     6     1   162    1
     7     1   266    1
     8     1   267    1
     9     2     3    1
    10     2    49    1
    11     2    50    1
    12     2    51    1
    13     3     4    1
    14     3    52    1
    15     3    53    1
    16     4     5    1
    17     4    54    1
    18     4    55    1
    19     5     6    1
    20     5    56    1
    21     5    57    1
    22     6     7    1
    23     6    58    1
    24     6    59    1
    25     7     8    1
    26     7    60    1
    27     7    61    1
    28     8     9    1
    29     8    62    1
    30     8    63    1
    31     9    10    1
    32     9    64    1
    33     9    65    1
    34    10    11    1
    35    10    19    1
    36    11    12    1
    37    11    66    1
    38    11    67    1
    39    12    13    1
    40    12    68    1
    41    12    69    1
    42    13    14    1
    43    13    70    1
    44    13    71    1
    45    14    15    1
    46    14    72    1
    47    14    73    1
    48    15    16    1
    49    15    74    1
    50    15    75    1
    51    16    17    1
    52    16    76    1
    53    16    77    1
    54    17    18    1
    55    17    78    1
    56    17    79    1
    57    18    80    1
    58    18    81    1
    59    18    82    1
    60    19    20    2
    61    19    21    1
    62    21    22    1
    63    21    25    1
    64    21    83    1
    65    22    23    1
    66    22    84    1
    67    22    85    1
    68    23    24    1
    69    23    86    1
    70    23    87    1
    71    24    88    1
    72    24    89    1
    73    24    90    1
    74    25    26    1
    75    26    27    1
    76    26    30    1
    77    26    91    1
    78    27    28    1
    79    27    92    1
    80    27    93    1
    81    28    29    1
    82    28    94    1
    83    28    95    1
    84    29    96    1
    85    29    97    1
    86    29    98    1
    87    30    31    2
    88    30    32    1
    89    32    33    1
    90    32    41    1
    91    33    34    1
    92    33    99    1
    93    33   100    1
    94    34    35    1
    95    34   101    1
    96    34   102    1
    97    35    36    1
    98    35   103    1
    99    35   104    1
   100    36    37    1
   101    36   105    1
   102    36   106    1
   103    37    38    1
   104    37   107    1
   105    37   108    1
   106    38    39    1
   107    38   109    1
   108    38   110    1
   109    39    40    1
   110    39   111    1
   111    39   112    1
   112    40   113    1
   113    40   114    1
   114    40   115    1
   115    41    42    1
   116    41   116    1
   117    41   117    1
   118    42    43    1
   119    42   118    1
   120    42   119    1
   121    43    44    1
   122    43   120    1
   123    43   121    1
   124    44    45    1
   125    44   122    1
   126    44   123    1
   127    45    46    1
   128    45   124    1
   129    45   125    1
   130    46    47    1
   131    46   126    1
   132    46   127    1
   133    47    48    1
   134    47   128    1
   135    47   129    1
   136    48   130    1
   137    48   131    1
   138    48   132    1
   139   133   134    1
   140   133   180    1
   141   133   181    1
   142   133   182    1
   143   134   135    1
   144   134   183    1
   145   134   184    1
   146   135   136    1
   147   135   185    1
   148   135   186    1
   149   136   137    1
   150   136   187    1
   151   136   188    1
   152   137   138    1
   153   137   189    1
   154   137   190    1
   155   138   139    1
   156   138   191    1
   157   138   192    1
   158   139   140    1
   159   139   193    1
   160   139   194    1
   161   140   141    1
   162   140   195    1
   163   140   196    1
   164   141   142    1
   165   141   150    1
   166   142   143    1
   167   142   197    1
   168   142   198    1
   169   143   144    1
   170   143   199    1
   171   143   200    1
   172   144   145    1
   173   144   201    1
   174   144   202    1
   175   145   146    1
   176   145   203    1
   177   145   204    1
   178   146   147    1
   179   146   205    1
   180   146   206    1
   181   147   148    1
   182   147   207    1
   183   147   208    1
   184   148   149    1
   185   148   209    1
   186   148   210    1
   187   149   211    1
   188   149   212    1
   189   149   213    1
   190   150   151    2
   191   150   152    1
   192   152   153    1
   193   152   156    1
   194   152   214    1
   195   153   154    1
   196   153   215    1
   197   153   216    1
   198   154   155    1
   199   154   217    1
   200   154   218    1
   201   155   219    1
   202   155   220    1
   203   155   221    1
   204   156   157    1
   205   157   158    1
   206   157   161    1
   207   157   222    1
   208   158   159    1
   209   158   223    1
   210   158   224    1
   211   159   160    1
   212   159   225    1
   213   159   226    1
   214   160   227    1
   215   160   228    1
   216   160   229    1
   217   161   162    2
   218   161   163    1
   219   163   164    1
   220   163   172    1
   221   164   165    1
   222   164   230    1
   223   164   231    1
   224   165   166    1
   225   165   232    1
   226   165   233    1
   227   166   167    1
   228   166   234    1
   229   166   235    1
   230   167   168    1
   231   167   236    1
   232   167   237    1
   233   168   169    1
   234   168   238    1
   235   168   239    1
   236   169   170    1
   237   169   240    1
   238   169   241    1
   239   170   171    1
   240   170   242    1
   241   170   243    1
   242   171   244    1
   243   171   245    1
   244   171   246    1
   245   172   173    1
   246   172   247    1
   247   172   248    1
   248   173   174    1
   249   173   249    1
   250   173   250    1
   251   174   175    1
   252   174   251    1
   253   174   252    1
   254   175   176    1
   255   175   253    1
   256   175   254    1
   257   176   177    1
   258   176   255    1
   259   176   256    1
   260   177   178    1
   261   177   257    1
   262   177   258    1
   263   178   179    1
   264   178   259    1
   265   178   260    1
   266   179   261    1
   267   179   262    1
   268   179   263    1
   269   264   265    2
   270   264   266    1
   271   264   267    1
@<TRIPOS>SUBSTRUCTURE
     1 RES1      267 GROUP             0 ****  ****    0  
