@<TRIPOS>MOLECULE
ICIGOT_geomtry_0_nunpairedes_0_charge_3 Charge: 3 Unpaired_Electrons: 1 XTB_Unpaired_Electrons: 0 XTB_Charge: 3
   281   284     1     0     0
SMALL
NoCharges
****
Generated from Architector

@<TRIPOS>ATOM
     1 Yb1      -0.1736    0.1051    0.2335   Yb        1 RES1   0.0000
     2 C1       -2.6071   -0.1717   -6.2986   C.3       1 RES1   0.0000
     3 C2       -3.0580    0.7480   -7.4340   C.3       1 RES1   0.0000
     4 C3       -4.5215    1.1975   -7.3397   C.3       1 RES1   0.0000
     5 C4       -4.7229    2.5248   -6.6015   C.3       1 RES1   0.0000
     6 C5       -4.2404    2.4818   -5.1561   C.3       1 RES1   0.0000
     7 C6       -4.5566    3.7521   -4.3691   C.3       1 RES1   0.0000
     8 C7       -3.8646    3.7808   -3.0056   C.3       1 RES1   0.0000
     9 C8       -4.4074    2.6496   -2.1288   C.3       1 RES1   0.0000
    10 N1       -3.5856    2.3959   -0.9619   N.am      1 RES1   0.0000
    11 C9       -3.9826    3.0308    0.2905   C.3       1 RES1   0.0000
    12 C10      -4.9971    2.2234    1.1052   C.3       1 RES1   0.0000
    13 C11      -4.4402    0.8734    1.5471   C.3       1 RES1   0.0000
    14 C12      -5.2726    0.1480    2.6157   C.3       1 RES1   0.0000
    15 C13      -4.4952   -1.0519    3.1847   C.3       1 RES1   0.0000
    16 C14      -3.3996   -0.5496    4.1252   C.3       1 RES1   0.0000
    17 C15      -5.3555   -2.1007    3.9016   C.3       1 RES1   0.0000
    18 C16      -4.5274   -3.3082    4.3770   C.3       1 RES1   0.0000
    19 C17      -3.8149   -4.0625    3.2523   C.3       1 RES1   0.0000
    20 C18      -2.8416   -5.1463    3.7338   C.3       1 RES1   0.0000
    21 C19      -1.5980   -4.5571    4.4025   C.3       1 RES1   0.0000
    22 C20      -2.4143   -6.0089    2.5447   C.3       1 RES1   0.0000
    23 C21      -2.4438    1.7354   -1.0234   C.2       1 RES1   0.0000
    24 O1       -1.6980    1.5573   -0.0304   O.2       1 RES1   0.0000
    25 C22      -2.0382    1.1275   -2.3597   C.3       1 RES1   0.0000
    26 O2       -0.8730    0.3061   -2.2433   O.3       1 RES1   0.0000
    27 C23      -1.0609   -0.9555   -2.8993   C.3       1 RES1   0.0000
    28 C24      -1.7325   -1.9048   -1.9022   C.2       1 RES1   0.0000
    29 O3       -1.5944   -1.5915   -0.6970   O.2       1 RES1   0.0000
    30 N2       -2.4239   -2.9615   -2.2678   N.am      1 RES1   0.0000
    31 C25      -2.4013   -3.5376   -3.6000   C.3       1 RES1   0.0000
    32 C26      -1.7650   -4.9381   -3.6377   C.3       1 RES1   0.0000
    33 C27      -0.2583   -4.9981   -3.3581   C.3       1 RES1   0.0000
    34 C28       0.1294   -5.0186   -1.8776   C.3       1 RES1   0.0000
    35 C29       1.6489   -4.9801   -1.7209   C.3       1 RES1   0.0000
    36 C30       2.1179   -4.8575   -0.2732   C.3       1 RES1   0.0000
    37 C31       3.6310   -4.6662   -0.1948   C.3       1 RES1   0.0000
    38 C32       4.1168   -4.4709    1.2342   C.3       1 RES1   0.0000
    39 C33      -3.2278   -3.6511   -1.2541   C.3       1 RES1   0.0000
    40 C34      -4.3256   -2.7776   -0.6270   C.3       1 RES1   0.0000
    41 C35      -5.3096   -2.1384   -1.6126   C.3       1 RES1   0.0000
    42 C36      -6.6052   -1.7468   -0.8881   C.3       1 RES1   0.0000
    43 C37      -7.6942   -1.0798   -1.7579   C.3       1 RES1   0.0000
    44 C38      -7.7404   -1.6765   -3.1663   C.3       1 RES1   0.0000
    45 C39      -7.5648    0.4542   -1.8296   C.3       1 RES1   0.0000
    46 C40      -8.2320    1.1792   -0.6559   C.3       1 RES1   0.0000
    47 C41      -8.1946    2.6988   -0.8225   C.3       1 RES1   0.0000
    48 C42      -8.9674    3.4950    0.2380   C.3       1 RES1   0.0000
    49 C43      -8.8021    4.9921   -0.0288   C.3       1 RES1   0.0000
    50 C44      -8.5293    3.1956    1.6699   C.3       1 RES1   0.0000
    51 H1       -3.2142   -1.0744   -6.2886   H         1 RES1   0.0000
    52 H2       -2.7059    0.3178   -5.3322   H         1 RES1   0.0000
    53 H3       -1.5630   -0.4535   -6.4282   H         1 RES1   0.0000
    54 H4       -2.9070    0.2086   -8.3683   H         1 RES1   0.0000
    55 H5       -2.4274    1.6352   -7.4691   H         1 RES1   0.0000
    56 H6       -5.1096    0.4109   -6.8607   H         1 RES1   0.0000
    57 H7       -4.9094    1.3330   -8.3498   H         1 RES1   0.0000
    58 H8       -5.7854    2.7667   -6.6068   H         1 RES1   0.0000
    59 H9       -4.2024    3.3205   -7.1357   H         1 RES1   0.0000
    60 H10      -3.1590    2.3451   -5.1499   H         1 RES1   0.0000
    61 H11      -4.7120    1.6178   -4.6822   H         1 RES1   0.0000
    62 H12      -5.6307    3.8504   -4.2205   H         1 RES1   0.0000
    63 H13      -4.2270    4.6181   -4.9370   H         1 RES1   0.0000
    64 H14      -4.0464    4.7312   -2.5034   H         1 RES1   0.0000
    65 H15      -2.7824    3.6849   -3.1289   H         1 RES1   0.0000
    66 H16      -4.4855    1.7351   -2.7157   H         1 RES1   0.0000
    67 H17      -5.4169    2.9091   -1.8036   H         1 RES1   0.0000
    68 H18      -4.3994    4.0110    0.0564   H         1 RES1   0.0000
    69 H19      -3.0789    3.1664    0.8802   H         1 RES1   0.0000
    70 H20      -5.9062    2.0770    0.5322   H         1 RES1   0.0000
    71 H21      -5.2544    2.8131    1.9874   H         1 RES1   0.0000
    72 H22      -3.4395    1.0656    1.9384   H         1 RES1   0.0000
    73 H23      -4.3520    0.2298    0.6615   H         1 RES1   0.0000
    74 H24      -6.2114   -0.1971    2.1839   H         1 RES1   0.0000
    75 H25      -5.5239    0.8349    3.4245   H         1 RES1   0.0000
    76 H26      -4.0736   -1.5882    2.3253   H         1 RES1   0.0000
    77 H27      -3.8499   -0.2094    5.0527   H         1 RES1   0.0000
    78 H28      -2.8518    0.2829    3.6976   H         1 RES1   0.0000
    79 H29      -2.6937   -1.3327    4.3831   H         1 RES1   0.0000
    80 H30      -6.1360   -2.4466    3.2213   H         1 RES1   0.0000
    81 H31      -5.8488   -1.6457    4.7624   H         1 RES1   0.0000
    82 H32      -5.2012   -4.0038    4.8756   H         1 RES1   0.0000
    83 H33      -3.8064   -2.9784    5.1238   H         1 RES1   0.0000
    84 H34      -3.2443   -3.3745    2.6218   H         1 RES1   0.0000
    85 H35      -4.5746   -4.5286    2.6229   H         1 RES1   0.0000
    86 H36      -3.3507   -5.7854    4.4591   H         1 RES1   0.0000
    87 H37      -1.0596   -3.9002    3.7154   H         1 RES1   0.0000
    88 H38      -0.9226   -5.3579    4.6923   H         1 RES1   0.0000
    89 H39      -1.8442   -3.9958    5.2998   H         1 RES1   0.0000
    90 H40      -1.8966   -5.4029    1.7986   H         1 RES1   0.0000
    91 H41      -3.2775   -6.4744    2.0758   H         1 RES1   0.0000
    92 H42      -1.7397   -6.7982    2.8650   H         1 RES1   0.0000
    93 H43      -1.8361    1.9280   -3.0791   H         1 RES1   0.0000
    94 H44      -2.8766    0.5283   -2.7191   H         1 RES1   0.0000
    95 H45      -0.0640   -1.3182   -3.1584   H         1 RES1   0.0000
    96 H46      -1.6571   -0.8278   -3.8034   H         1 RES1   0.0000
    97 H47      -1.8518   -2.8766   -4.2727   H         1 RES1   0.0000
    98 H48      -3.4403   -3.6095   -3.9331   H         1 RES1   0.0000
    99 H49      -1.9362   -5.2913   -4.6553   H         1 RES1   0.0000
   100 H50      -2.2867   -5.6122   -2.9545   H         1 RES1   0.0000
   101 H51       0.2424   -4.1671   -3.8630   H         1 RES1   0.0000
   102 H52       0.1190   -5.9187   -3.8052   H         1 RES1   0.0000
   103 H53      -0.2551   -5.9317   -1.4229   H         1 RES1   0.0000
   104 H54      -0.3263   -4.1758   -1.3487   H         1 RES1   0.0000
   105 H55       2.0518   -4.1577   -2.3207   H         1 RES1   0.0000
   106 H56       2.0640   -5.8938   -2.1413   H         1 RES1   0.0000
   107 H57       1.8427   -5.7611    0.2698   H         1 RES1   0.0000
   108 H58       1.6126   -4.0226    0.2322   H         1 RES1   0.0000
   109 H59       3.9288   -3.8065   -0.8022   H         1 RES1   0.0000
   110 H60       4.1197   -5.5413   -0.6201   H         1 RES1   0.0000
   111 H61       3.6403   -3.6017    1.6890   H         1 RES1   0.0000
   112 H62       5.1930   -4.3261    1.2507   H         1 RES1   0.0000
   113 H63       3.8849   -5.3419    1.8403   H         1 RES1   0.0000
   114 H64      -2.5658   -4.0032   -0.4554   H         1 RES1   0.0000
   115 H65      -3.6873   -4.5122   -1.7366   H         1 RES1   0.0000
   116 H66      -3.8740   -1.9944   -0.0141   H         1 RES1   0.0000
   117 H67      -4.8867   -3.4280    0.0462   H         1 RES1   0.0000
   118 H68      -5.5517   -2.8513   -2.3996   H         1 RES1   0.0000
   119 H69      -4.8441   -1.2635   -2.0784   H         1 RES1   0.0000
   120 H70      -6.3588   -1.0843   -0.0569   H         1 RES1   0.0000
   121 H71      -7.0204   -2.6615   -0.4600   H         1 RES1   0.0000
   122 H72      -8.6563   -1.2945   -1.2808   H         1 RES1   0.0000
   123 H73      -6.8428   -1.4250   -3.7331   H         1 RES1   0.0000
   124 H74      -8.6032   -1.2842   -3.7001   H         1 RES1   0.0000
   125 H75      -7.8403   -2.7592   -3.1175   H         1 RES1   0.0000
   126 H76      -8.0435    0.8019   -2.7483   H         1 RES1   0.0000
   127 H77      -6.5078    0.7292   -1.8854   H         1 RES1   0.0000
   128 H78      -7.7527    0.8906    0.2812   H         1 RES1   0.0000
   129 H79      -9.2739    0.8636   -0.5991   H         1 RES1   0.0000
   130 H80      -8.6201    2.9441   -1.7959   H         1 RES1   0.0000
   131 H81      -7.1595    3.0516   -0.8322   H         1 RES1   0.0000
   132 H82     -10.0251    3.2373    0.1469   H         1 RES1   0.0000
   133 H83      -7.7547    5.2781    0.0718   H         1 RES1   0.0000
   134 H84      -9.3794    5.5693    0.6886   H         1 RES1   0.0000
   135 H85      -9.1419    5.2569   -1.0272   H         1 RES1   0.0000
   136 H86      -7.4897    3.4768    1.8208   H         1 RES1   0.0000
   137 H87      -8.6555    2.1475    1.9266   H         1 RES1   0.0000
   138 H88      -9.1341    3.7797    2.3576   H         1 RES1   0.0000
   139 C45       6.9785   -0.1999    1.1872   C.3       1 RES1   0.0000
   140 C46       8.0810   -1.0717    1.7903   C.3       1 RES1   0.0000
   141 C47       8.2240   -0.9756    3.3144   C.3       1 RES1   0.0000
   142 C48       7.2899   -1.8772    4.1249   C.3       1 RES1   0.0000
   143 C49       5.8126   -1.5442    3.9394   C.3       1 RES1   0.0000
   144 C50       4.9249   -2.1947    4.9974   C.3       1 RES1   0.0000
   145 C51       3.4318   -2.0013    4.7210   C.3       1 RES1   0.0000
   146 C52       3.0582   -0.5125    4.7857   C.3       1 RES1   0.0000
   147 N3        1.7777   -0.2452    4.1522   N.am      1 RES1   0.0000
   148 C53       0.5661   -0.3827    4.9710   C.3       1 RES1   0.0000
   149 C54      -0.4223    0.7856    4.8917   C.3       1 RES1   0.0000
   150 C55       0.1616    2.1378    5.2955   C.3       1 RES1   0.0000
   151 C56      -0.8601    3.2877    5.3079   C.3       1 RES1   0.0000
   152 C57      -0.9890    4.0579    3.9839   C.3       1 RES1   0.0000
   153 C58      -1.3806    3.1382    2.8287   C.3       1 RES1   0.0000
   154 C59      -2.0195    5.1919    4.1528   C.3       1 RES1   0.0000
   155 C60      -2.4436    5.9168    2.8662   C.3       1 RES1   0.0000
   156 C61      -1.2816    6.4395    2.0240   C.3       1 RES1   0.0000
   157 C62      -1.7103    7.2086    0.7673   C.3       1 RES1   0.0000
   158 C63      -2.6264    6.3899   -0.1428   C.3       1 RES1   0.0000
   159 C64      -0.4666    7.6191   -0.0209   C.3       1 RES1   0.0000
   160 C65       1.6621   -0.1852    2.8432   C.2       1 RES1   0.0000
   161 O4        0.5488   -0.1679    2.2619   O.2       1 RES1   0.0000
   162 C66       2.8911   -0.1684    1.9320   C.3       1 RES1   0.0000
   163 O5        2.4325   -0.1896    0.5744   O.3       1 RES1   0.0000
   164 C67       3.0364    0.7990   -0.2646   C.3       1 RES1   0.0000
   165 C68       2.4092    2.1441    0.1003   C.2       1 RES1   0.0000
   166 O6        1.1515    2.1110    0.1474   O.2       1 RES1   0.0000
   167 N4        3.1409    3.2069    0.3661   N.am      1 RES1   0.0000
   168 C69       4.5926    3.2926    0.2529   C.3       1 RES1   0.0000
   169 C70       5.0614    4.1114   -0.9564   C.3       1 RES1   0.0000
   170 C71       4.7277    3.4906   -2.3141   C.3       1 RES1   0.0000
   171 C72       3.2816    3.7003   -2.7636   C.3       1 RES1   0.0000
   172 C73       2.9772    2.9311   -4.0425   C.3       1 RES1   0.0000
   173 C74       1.5187    3.0589   -4.4580   C.3       1 RES1   0.0000
   174 C75       1.2262    2.2528   -5.7158   C.3       1 RES1   0.0000
   175 C76      -0.2052    2.4357   -6.1869   C.3       1 RES1   0.0000
   176 C77       2.4630    4.4407    0.7605   C.3       1 RES1   0.0000
   177 C78       2.0643    4.4401    2.2386   C.3       1 RES1   0.0000
   178 C79       3.2206    4.2188    3.2154   C.3       1 RES1   0.0000
   179 C80       2.9065    4.7806    4.6051   C.3       1 RES1   0.0000
   180 C81       3.9823    4.4739    5.6657   C.3       1 RES1   0.0000
   181 C82       5.3951    4.6041    5.0912   C.3       1 RES1   0.0000
   182 C83       3.7877    3.0950    6.3223   C.3       1 RES1   0.0000
   183 C84       2.7904    3.1250    7.4822   C.3       1 RES1   0.0000
   184 C85       2.5898    1.7415    8.0973   C.3       1 RES1   0.0000
   185 C86       1.6962    1.7093    9.3442   C.3       1 RES1   0.0000
   186 C87       1.6590    0.2903    9.9136   C.3       1 RES1   0.0000
   187 C88       0.2668    2.1755    9.0741   C.3       1 RES1   0.0000
   188 H89       7.0685   -0.1871    0.1024   H         1 RES1   0.0000
   189 H90       7.0663    0.8245    1.5453   H         1 RES1   0.0000
   190 H91       5.9863   -0.5681    1.4373   H         1 RES1   0.0000
   191 H92       9.0209   -0.7476    1.3420   H         1 RES1   0.0000
   192 H93       7.9247   -2.1136    1.5017   H         1 RES1   0.0000
   193 H94       8.0972    0.0649    3.6271   H         1 RES1   0.0000
   194 H95       9.2419   -1.2660    3.5739   H         1 RES1   0.0000
   195 H96       7.5398   -1.7597    5.1801   H         1 RES1   0.0000
   196 H97       7.4657   -2.9217    3.8633   H         1 RES1   0.0000
   197 H98       5.4855   -1.8906    2.9575   H         1 RES1   0.0000
   198 H99       5.7105   -0.4578    3.9818   H         1 RES1   0.0000
   199 H100      5.1646   -1.7951    5.9819   H         1 RES1   0.0000
   200 H101      5.1334   -3.2621    5.0283   H         1 RES1   0.0000
   201 H102      2.8478   -2.5508    5.4603   H         1 RES1   0.0000
   202 H103      3.1780   -2.4115    3.7367   H         1 RES1   0.0000
   203 H104      3.8235    0.0789    4.2853   H         1 RES1   0.0000
   204 H105      3.0132   -0.1944    5.8283   H         1 RES1   0.0000
   205 H106      0.8784   -0.5124    6.0032   H         1 RES1   0.0000
   206 H107      0.0445   -1.2931    4.6577   H         1 RES1   0.0000
   207 H108     -1.2470    0.5500    5.5688   H         1 RES1   0.0000
   208 H109     -0.8154    0.8224    3.8814   H         1 RES1   0.0000
   209 H110      0.9933    2.3998    4.6387   H         1 RES1   0.0000
   210 H111      0.5537    2.0258    6.3025   H         1 RES1   0.0000
   211 H112     -0.5592    4.0117    6.0686   H         1 RES1   0.0000
   212 H113     -1.8366    2.9034    5.6120   H         1 RES1   0.0000
   213 H114     -0.0219    4.5191    3.7674   H         1 RES1   0.0000
   214 H115     -2.3220    2.6546    3.0690   H         1 RES1   0.0000
   215 H116     -0.6352    2.3652    2.6186   H         1 RES1   0.0000
   216 H117     -1.5082    3.7229    1.9246   H         1 RES1   0.0000
   217 H118     -1.6064    5.9185    4.8554   H         1 RES1   0.0000
   218 H119     -2.9210    4.7809    4.6160   H         1 RES1   0.0000
   219 H120     -3.0671    6.7619    3.1600   H         1 RES1   0.0000
   220 H121     -3.0680    5.2480    2.2706   H         1 RES1   0.0000
   221 H122     -0.6481    5.6075    1.7117   H         1 RES1   0.0000
   222 H123     -0.6779    7.1028    2.6446   H         1 RES1   0.0000
   223 H124     -2.2504    8.1097    1.0698   H         1 RES1   0.0000
   224 H125     -2.1579    5.4408   -0.4047   H         1 RES1   0.0000
   225 H126     -2.8124    6.9374   -1.0634   H         1 RES1   0.0000
   226 H127     -3.5858    6.1980    0.3300   H         1 RES1   0.0000
   227 H128      0.0763    6.7331   -0.3534   H         1 RES1   0.0000
   228 H129      0.1988    8.2252    0.5874   H         1 RES1   0.0000
   229 H130     -0.7412    8.1982   -0.8985   H         1 RES1   0.0000
   230 H131      3.4928   -1.0657    2.1077   H         1 RES1   0.0000
   231 H132      3.4916    0.7194    2.1334   H         1 RES1   0.0000
   232 H133      2.7063    0.5641   -1.2843   H         1 RES1   0.0000
   233 H134      4.1213    0.7441   -0.1955   H         1 RES1   0.0000
   234 H135      5.0387    2.2990    0.2006   H         1 RES1   0.0000
   235 H136      4.9509    3.7772    1.1645   H         1 RES1   0.0000
   236 H137      6.1467    4.1882   -0.8607   H         1 RES1   0.0000
   237 H138      4.6488    5.1207   -0.9067   H         1 RES1   0.0000
   238 H139      4.9709    2.4240   -2.3004   H         1 RES1   0.0000
   239 H140      5.3756    3.9598   -3.0534   H         1 RES1   0.0000
   240 H141      3.1136    4.7646   -2.9281   H         1 RES1   0.0000
   241 H142      2.5803    3.3781   -1.9937   H         1 RES1   0.0000
   242 H143      3.2264    1.8773   -3.8933   H         1 RES1   0.0000
   243 H144      3.6107    3.2972   -4.8466   H         1 RES1   0.0000
   244 H145      1.2845    4.1073   -4.6439   H         1 RES1   0.0000
   245 H146      0.8753    2.7177   -3.6396   H         1 RES1   0.0000
   246 H147      1.4118    1.1917   -5.5308   H         1 RES1   0.0000
   247 H148      1.9007    2.5672   -6.5109   H         1 RES1   0.0000
   248 H149     -0.9094    2.0949   -5.4290   H         1 RES1   0.0000
   249 H150     -0.3611    1.8582   -7.0916   H         1 RES1   0.0000
   250 H151     -0.4133    3.4805   -6.4005   H         1 RES1   0.0000
   251 H152      1.5652    4.5439    0.1453   H         1 RES1   0.0000
   252 H153      3.1215    5.2815    0.5501   H         1 RES1   0.0000
   253 H154      1.2997    3.6776    2.3846   H         1 RES1   0.0000
   254 H155      1.6133    5.4124    2.4411   H         1 RES1   0.0000
   255 H156      4.1070    4.7337    2.8471   H         1 RES1   0.0000
   256 H157      3.4439    3.1490    3.2783   H         1 RES1   0.0000
   257 H158      1.9482    4.3959    4.9518   H         1 RES1   0.0000
   258 H159      2.8025    5.8624    4.5052   H         1 RES1   0.0000
   259 H160      3.8801    5.2226    6.4572   H         1 RES1   0.0000
   260 H161      5.6017    3.8145    4.3671   H         1 RES1   0.0000
   261 H162      6.1267    4.5307    5.8922   H         1 RES1   0.0000
   262 H163      5.5224    5.5727    4.6111   H         1 RES1   0.0000
   263 H164      4.7469    2.7490    6.7132   H         1 RES1   0.0000
   264 H165      3.4580    2.3722    5.5696   H         1 RES1   0.0000
   265 H166      1.8397    3.5244    7.1324   H         1 RES1   0.0000
   266 H167      3.1645    3.8016    8.2501   H         1 RES1   0.0000
   267 H168      3.5689    1.3496    8.3755   H         1 RES1   0.0000
   268 H169      2.1726    1.0638    7.3463   H         1 RES1   0.0000
   269 H170      2.1375    2.3739   10.0917   H         1 RES1   0.0000
   270 H171      1.2141   -0.3959    9.1922   H         1 RES1   0.0000
   271 H172      1.0580    0.2621   10.8183   H         1 RES1   0.0000
   272 H173      2.6577   -0.0620   10.1604   H         1 RES1   0.0000
   273 H174     -0.2328    1.5068    8.3745   H         1 RES1   0.0000
   274 H175      0.2367    3.1872    8.6796   H         1 RES1   0.0000
   275 H176     -0.2994    2.1665   10.0012   H         1 RES1   0.0000
   276 O7       -1.8719   -0.8395    1.6259   O.3       1 RES1   0.0000
   277 H177     -1.8180   -1.6466    2.1601   H         1 RES1   0.0000
   278 H178     -2.8205   -0.7559    1.4133   H         1 RES1   0.0000
   279 O8        1.1730   -1.6992   -1.1970   O.3       1 RES1   0.0000
   280 H179      1.0563   -2.6410   -0.9785   H         1 RES1   0.0000
   281 H180      2.0307   -1.6674   -1.6473   H         1 RES1   0.0000
@<TRIPOS>BOND
     1     1    24    1
     2     1    26    1
     3     1    29    1
     4     1   161    1
     5     1   163    1
     6     1   166    1
     7     1   276    1
     8     1   279    1
     9     2     3    1
    10     2    51    1
    11     2    52    1
    12     2    53    1
    13     3     4    1
    14     3    54    1
    15     3    55    1
    16     4     5    1
    17     4    56    1
    18     4    57    1
    19     5     6    1
    20     5    58    1
    21     5    59    1
    22     6     7    1
    23     6    60    1
    24     6    61    1
    25     7     8    1
    26     7    62    1
    27     7    63    1
    28     8     9    1
    29     8    64    1
    30     8    65    1
    31     9    10    1
    32     9    66    1
    33     9    67    1
    34    10    11    1
    35    10    23    1
    36    11    12    1
    37    11    68    1
    38    11    69    1
    39    12    13    1
    40    12    70    1
    41    12    71    1
    42    13    14    1
    43    13    72    1
    44    13    73    1
    45    14    15    1
    46    14    74    1
    47    14    75    1
    48    15    16    1
    49    15    17    1
    50    15    76    1
    51    16    77    1
    52    16    78    1
    53    16    79    1
    54    17    18    1
    55    17    80    1
    56    17    81    1
    57    18    19    1
    58    18    82    1
    59    18    83    1
    60    19    20    1
    61    19    84    1
    62    19    85    1
    63    20    21    1
    64    20    22    1
    65    20    86    1
    66    21    87    1
    67    21    88    1
    68    21    89    1
    69    22    90    1
    70    22    91    1
    71    22    92    1
    72    23    24    2
    73    23    25    1
    74    25    26    1
    75    25    93    1
    76    25    94    1
    77    26    27    1
    78    27    28    1
    79    27    95    1
    80    27    96    1
    81    28    29    2
    82    28    30    1
    83    30    31    1
    84    30    39    1
    85    31    32    1
    86    31    97    1
    87    31    98    1
    88    32    33    1
    89    32    99    1
    90    32   100    1
    91    33    34    1
    92    33   101    1
    93    33   102    1
    94    34    35    1
    95    34   103    1
    96    34   104    1
    97    35    36    1
    98    35   105    1
    99    35   106    1
   100    36    37    1
   101    36   107    1
   102    36   108    1
   103    37    38    1
   104    37   109    1
   105    37   110    1
   106    38   111    1
   107    38   112    1
   108    38   113    1
   109    39    40    1
   110    39   114    1
   111    39   115    1
   112    40    41    1
   113    40   116    1
   114    40   117    1
   115    41    42    1
   116    41   118    1
   117    41   119    1
   118    42    43    1
   119    42   120    1
   120    42   121    1
   121    43    44    1
   122    43    45    1
   123    43   122    1
   124    44   123    1
   125    44   124    1
   126    44   125    1
   127    45    46    1
   128    45   126    1
   129    45   127    1
   130    46    47    1
   131    46   128    1
   132    46   129    1
   133    47    48    1
   134    47   130    1
   135    47   131    1
   136    48    49    1
   137    48    50    1
   138    48   132    1
   139    49   133    1
   140    49   134    1
   141    49   135    1
   142    50   136    1
   143    50   137    1
   144    50   138    1
   145   139   140    1
   146   139   188    1
   147   139   189    1
   148   139   190    1
   149   140   141    1
   150   140   191    1
   151   140   192    1
   152   141   142    1
   153   141   193    1
   154   141   194    1
   155   142   143    1
   156   142   195    1
   157   142   196    1
   158   143   144    1
   159   143   197    1
   160   143   198    1
   161   144   145    1
   162   144   199    1
   163   144   200    1
   164   145   146    1
   165   145   201    1
   166   145   202    1
   167   146   147    1
   168   146   203    1
   169   146   204    1
   170   147   148    1
   171   147   160    1
   172   148   149    1
   173   148   205    1
   174   148   206    1
   175   149   150    1
   176   149   207    1
   177   149   208    1
   178   150   151    1
   179   150   209    1
   180   150   210    1
   181   151   152    1
   182   151   211    1
   183   151   212    1
   184   152   153    1
   185   152   154    1
   186   152   213    1
   187   153   214    1
   188   153   215    1
   189   153   216    1
   190   154   155    1
   191   154   217    1
   192   154   218    1
   193   155   156    1
   194   155   219    1
   195   155   220    1
   196   156   157    1
   197   156   221    1
   198   156   222    1
   199   157   158    1
   200   157   159    1
   201   157   223    1
   202   158   224    1
   203   158   225    1
   204   158   226    1
   205   159   227    1
   206   159   228    1
   207   159   229    1
   208   160   161    2
   209   160   162    1
   210   162   163    1
   211   162   230    1
   212   162   231    1
   213   163   164    1
   214   164   165    1
   215   164   232    1
   216   164   233    1
   217   165   166    2
   218   165   167    1
   219   167   168    1
   220   167   176    1
   221   168   169    1
   222   168   234    1
   223   168   235    1
   224   169   170    1
   225   169   236    1
   226   169   237    1
   227   170   171    1
   228   170   238    1
   229   170   239    1
   230   171   172    1
   231   171   240    1
   232   171   241    1
   233   172   173    1
   234   172   242    1
   235   172   243    1
   236   173   174    1
   237   173   244    1
   238   173   245    1
   239   174   175    1
   240   174   246    1
   241   174   247    1
   242   175   248    1
   243   175   249    1
   244   175   250    1
   245   176   177    1
   246   176   251    1
   247   176   252    1
   248   177   178    1
   249   177   253    1
   250   177   254    1
   251   178   179    1
   252   178   255    1
   253   178   256    1
   254   179   180    1
   255   179   257    1
   256   179   258    1
   257   180   181    1
   258   180   182    1
   259   180   259    1
   260   181   260    1
   261   181   261    1
   262   181   262    1
   263   182   183    1
   264   182   263    1
   265   182   264    1
   266   183   184    1
   267   183   265    1
   268   183   266    1
   269   184   185    1
   270   184   267    1
   271   184   268    1
   272   185   186    1
   273   185   187    1
   274   185   269    1
   275   186   270    1
   276   186   271    1
   277   186   272    1
   278   187   273    1
   279   187   274    1
   280   187   275    1
   281   276   277    1
   282   276   278    1
   283   279   280    1
   284   279   281    1
@<TRIPOS>SUBSTRUCTURE
     1 RES1      281 GROUP             0 ****  ****    0  
