@<TRIPOS>MOLECULE
ICIGOT_geomtry_0_nunpairedes_0_charge_3 Charge: 3 Unpaired_Electrons: 1 XTB_Unpaired_Electrons: 0 XTB_Charge: 3
   253   264     1     0     0
SMALL
NoCharges
****
Generated from Architector

@<TRIPOS>ATOM
     1 Yb1      -0.0969   -0.0564    0.0656   Yb        1 RES1   0.0000
     2 C1        8.1123    1.8008    3.0028   C.3       1 RES1   0.0000
     3 C2        7.8988    1.7538    1.4955   C.3       1 RES1   0.0000
     4 C3        8.8436    0.7510    0.8366   C.3       1 RES1   0.0000
     5 C4        8.7315    0.6970   -0.6894   C.3       1 RES1   0.0000
     6 C5        7.3575    0.2941   -1.2220   C.3       1 RES1   0.0000
     7 C6        6.9636   -1.1249   -0.8200   C.3       1 RES1   0.0000
     8 C7        5.5292   -1.4013   -1.2480   C.3       1 RES1   0.0000
     9 C8        4.9521   -2.6871   -0.6412   C.3       1 RES1   0.0000
    10 N1        3.5035   -2.6532   -0.7360   N.am      1 RES1   0.0000
    11 C9        2.8333   -3.7392   -1.4565   C.3       1 RES1   0.0000
    12 C10       3.2802   -4.0840   -2.8759   C.3       1 RES1   0.0000
    13 C11       2.9680   -3.0411   -3.9508   C.3       1 RES1   0.0000
    14 C12       3.1481   -3.6215   -5.3690   C.3       1 RES1   0.0000
    15 C13       1.8853   -4.1784   -6.0429   C.3       1 RES1   0.0000
    16 C14       1.1819   -5.3156   -5.3048   C.3       1 RES1   0.0000
    17 C15      -0.0283   -5.8290   -6.0867   C.3       1 RES1   0.0000
    18 C16      -0.8754   -6.7969   -5.2729   C.3       1 RES1   0.0000
    19 C17       2.7484   -1.6789   -0.2366   C.2       1 RES1   0.0000
    20 O1        1.5879   -1.4870   -0.6888   O.2       1 RES1   0.0000
    21 C18       3.0811   -0.8071    0.9535   C.ar      1 RES1   0.0000
    22 C19       4.2911   -0.5718    1.6235   C.ar      1 RES1   0.0000
    23 C20       4.3247    0.3061    2.6888   C.ar      1 RES1   0.0000
    24 C21       3.1431    0.9100    3.1528   C.ar      1 RES1   0.0000
    25 C22       3.0832    1.8377    4.2369   C.ar      1 RES1   0.0000
    26 C23       1.8957    2.3613    4.6419   C.ar      1 RES1   0.0000
    27 C24       0.6742    2.0002    3.9953   C.ar      1 RES1   0.0000
    28 C25      -0.5721    2.5714    4.3021   C.ar      1 RES1   0.0000
    29 C26      -1.6798    2.2941    3.5303   C.ar      1 RES1   0.0000
    30 C27      -1.5675    1.3897    2.4625   C.ar      1 RES1   0.0000
    31 C28      -2.6236    0.9221    1.5017   C.2       1 RES1   0.0000
    32 O2       -2.2133    0.3446    0.4638   O.2       1 RES1   0.0000
    33 N2       -3.9265    0.9546    1.7839   N.am      1 RES1   0.0000
    34 C29      -4.6359    2.0975    2.3169   C.3       1 RES1   0.0000
    35 C30      -4.3442    3.3673    1.5196   C.3       1 RES1   0.0000
    36 C31      -5.0922    4.5075    2.1977   C.3       1 RES1   0.0000
    37 C32      -4.9688    5.8483    1.4870   C.3       1 RES1   0.0000
    38 C33      -5.6535    6.9495    2.2971   C.3       1 RES1   0.0000
    39 C34      -7.1660    6.7623    2.4156   C.3       1 RES1   0.0000
    40 C35      -7.8393    7.9124    3.1616   C.3       1 RES1   0.0000
    41 C36      -7.4614    7.9799    4.6348   C.3       1 RES1   0.0000
    42 C37      -4.7608   -0.1282    1.2879   C.3       1 RES1   0.0000
    43 C38      -5.5854   -0.7051    2.4482   C.3       1 RES1   0.0000
    44 C39      -4.7735   -1.3928    3.5564   C.3       1 RES1   0.0000
    45 C40      -3.8517   -0.5721    4.4681   C.3       1 RES1   0.0000
    46 C41      -4.5012    0.3945    5.4619   C.3       1 RES1   0.0000
    47 C42      -3.4050    1.0408    6.3161   C.3       1 RES1   0.0000
    48 C43      -3.8606    2.2717    7.0922   C.3       1 RES1   0.0000
    49 C44      -2.6881    2.9788    7.7596   C.3       1 RES1   0.0000
    50 N3       -0.4089    0.7751    2.2143   N.ar      1 RES1   0.0000
    51 C45       0.6894    1.0887    2.9146   C.ar      1 RES1   0.0000
    52 C46       1.9542    0.5513    2.4729   C.ar      1 RES1   0.0000
    53 N4        1.9528   -0.2366    1.3918   N.ar      1 RES1   0.0000
    54 H1        7.4443    2.5210    3.4708   H         1 RES1   0.0000
    55 H2        9.1330    2.0955    3.2280   H         1 RES1   0.0000
    56 H3        7.9426    0.8221    3.4492   H         1 RES1   0.0000
    57 H4        8.0779    2.7449    1.0770   H         1 RES1   0.0000
    58 H5        6.8586    1.4891    1.2868   H         1 RES1   0.0000
    59 H6        8.6840   -0.2406    1.2655   H         1 RES1   0.0000
    60 H7        9.8675    1.0348    1.0803   H         1 RES1   0.0000
    61 H8        9.4688   -0.0098   -1.0760   H         1 RES1   0.0000
    62 H9        8.9747    1.6818   -1.0902   H         1 RES1   0.0000
    63 H10       7.3597    0.3599   -2.3131   H         1 RES1   0.0000
    64 H11       6.5967    0.9912   -0.8596   H         1 RES1   0.0000
    65 H12       7.0456   -1.2430    0.2613   H         1 RES1   0.0000
    66 H13       7.6409   -1.8451   -1.2769   H         1 RES1   0.0000
    67 H14       5.4780   -1.4604   -2.3352   H         1 RES1   0.0000
    68 H15       4.9043   -0.5537   -0.9492   H         1 RES1   0.0000
    69 H16       5.2661   -2.8250    0.3970   H         1 RES1   0.0000
    70 H17       5.3050   -3.5527   -1.2006   H         1 RES1   0.0000
    71 H18       2.9746   -4.6278   -0.8302   H         1 RES1   0.0000
    72 H19       1.7695   -3.4972   -1.4891   H         1 RES1   0.0000
    73 H20       2.7462   -5.0041   -3.1140   H         1 RES1   0.0000
    74 H21       4.3436   -4.3152   -2.9066   H         1 RES1   0.0000
    75 H22       3.6416   -2.1905   -3.8263   H         1 RES1   0.0000
    76 H23       1.9509   -2.6617   -3.8249   H         1 RES1   0.0000
    77 H24       3.9010   -4.4114   -5.3303   H         1 RES1   0.0000
    78 H25       3.5353   -2.8393   -6.0281   H         1 RES1   0.0000
    79 H26       2.1762   -4.5496   -7.0283   H         1 RES1   0.0000
    80 H27       1.1749   -3.3631   -6.2078   H         1 RES1   0.0000
    81 H28       0.8565   -4.9697   -4.3201   H         1 RES1   0.0000
    82 H29       1.8833   -6.1381   -5.1580   H         1 RES1   0.0000
    83 H30       0.3156   -6.3290   -6.9905   H         1 RES1   0.0000
    84 H31      -0.6510   -4.9908   -6.4091   H         1 RES1   0.0000
    85 H32      -0.2977   -7.6769   -5.0047   H         1 RES1   0.0000
    86 H33      -1.7381   -7.1201   -5.8480   H         1 RES1   0.0000
    87 H34      -1.2342   -6.3278   -4.3570   H         1 RES1   0.0000
    88 H35       5.2132   -1.0330    1.3246   H         1 RES1   0.0000
    89 H36       5.2717    0.5269    3.1627   H         1 RES1   0.0000
    90 H37       4.0047    2.1190    4.7277   H         1 RES1   0.0000
    91 H38       1.8581    3.0863    5.4438   H         1 RES1   0.0000
    92 H39      -0.6558    3.2620    5.1270   H         1 RES1   0.0000
    93 H40      -2.6022    2.8036    3.7425   H         1 RES1   0.0000
    94 H41      -4.4245    2.2499    3.3757   H         1 RES1   0.0000
    95 H42      -5.7012    1.8872    2.2177   H         1 RES1   0.0000
    96 H43      -4.6915    3.2346    0.4927   H         1 RES1   0.0000
    97 H44      -3.2691    3.5609    1.4801   H         1 RES1   0.0000
    98 H45      -4.7218    4.6055    3.2214   H         1 RES1   0.0000
    99 H46      -6.1441    4.2292    2.2517   H         1 RES1   0.0000
   100 H47      -5.4182    5.7788    0.4933   H         1 RES1   0.0000
   101 H48      -3.9076    6.0907    1.3648   H         1 RES1   0.0000
   102 H49      -5.4543    7.9076    1.8175   H         1 RES1   0.0000
   103 H50      -5.2062    6.9784    3.2923   H         1 RES1   0.0000
   104 H51      -7.3908    5.8323    2.9410   H         1 RES1   0.0000
   105 H52      -7.5897    6.6906    1.4112   H         1 RES1   0.0000
   106 H53      -8.9197    7.7846    3.0868   H         1 RES1   0.0000
   107 H54      -7.5871    8.8561    2.6765   H         1 RES1   0.0000
   108 H55      -7.6744    7.0370    5.1340   H         1 RES1   0.0000
   109 H56      -8.0335    8.7592    5.1290   H         1 RES1   0.0000
   110 H57      -6.4069    8.2087    4.7651   H         1 RES1   0.0000
   111 H58      -4.1026   -0.8969    0.8749   H         1 RES1   0.0000
   112 H59      -5.4090    0.2283    0.4802   H         1 RES1   0.0000
   113 H60      -6.2322   -1.4654    2.0076   H         1 RES1   0.0000
   114 H61      -6.2393    0.0516    2.8787   H         1 RES1   0.0000
   115 H62      -4.1376   -2.1393    3.0808   H         1 RES1   0.0000
   116 H63      -5.4810   -1.9132    4.2051   H         1 RES1   0.0000
   117 H64      -3.1187   -0.0309    3.8670   H         1 RES1   0.0000
   118 H65      -3.2898   -1.2932    5.0698   H         1 RES1   0.0000
   119 H66      -5.1981   -0.1431    6.1049   H         1 RES1   0.0000
   120 H67      -5.0794    1.1656    4.9506   H         1 RES1   0.0000
   121 H68      -2.5709    1.3195    5.6660   H         1 RES1   0.0000
   122 H69      -3.0184    0.2983    7.0138   H         1 RES1   0.0000
   123 H70      -4.5802    1.9667    7.8494   H         1 RES1   0.0000
   124 H71      -4.3707    2.9619    6.4168   H         1 RES1   0.0000
   125 H72      -2.1711    2.3032    8.4350   H         1 RES1   0.0000
   126 H73      -3.0296    3.8365    8.3295   H         1 RES1   0.0000
   127 H74      -1.9748    3.3342    7.0177   H         1 RES1   0.0000
   128 C47      -5.7360   -6.4614   -6.7879   C.3       1 RES1   0.0000
   129 C48      -5.0620   -6.0513   -5.4881   C.3       1 RES1   0.0000
   130 C49      -6.0762   -5.8469   -4.3630   C.3       1 RES1   0.0000
   131 C50      -5.4692   -5.2072   -3.1150   C.3       1 RES1   0.0000
   132 C51      -4.4395   -6.1092   -2.4355   C.3       1 RES1   0.0000
   133 C52      -3.5821   -5.3308   -1.4423   C.3       1 RES1   0.0000
   134 C53      -2.4502   -6.1982   -0.8765   C.3       1 RES1   0.0000
   135 C54      -1.1700   -5.4358   -0.4890   C.3       1 RES1   0.0000
   136 N5       -1.3849   -4.1865    0.2199   N.am      1 RES1   0.0000
   137 C55      -1.7096   -4.3467    1.6456   C.3       1 RES1   0.0000
   138 C56      -3.2199   -4.5231    1.8838   C.3       1 RES1   0.0000
   139 C57      -3.6382   -4.6781    3.3602   C.3       1 RES1   0.0000
   140 C58      -3.8948   -6.1122    3.8420   C.3       1 RES1   0.0000
   141 C59      -2.6660   -6.9800    4.1087   C.3       1 RES1   0.0000
   142 C60      -1.8192   -6.4988    5.2876   C.3       1 RES1   0.0000
   143 C61      -0.7997   -7.5435    5.7420   C.3       1 RES1   0.0000
   144 C62       0.2229   -7.8924    4.6691   C.3       1 RES1   0.0000
   145 C63      -1.1497   -2.9543   -0.2363   C.2       1 RES1   0.0000
   146 O3       -1.0329   -2.0072    0.5798   O.2       1 RES1   0.0000
   147 C64      -1.0052   -2.5600   -1.6985   C.ar      1 RES1   0.0000
   148 C65      -1.1114   -3.3469   -2.8589   C.ar      1 RES1   0.0000
   149 C66      -0.8864   -2.7889   -4.0987   C.ar      1 RES1   0.0000
   150 C67      -0.5140   -1.4417   -4.2168   C.ar      1 RES1   0.0000
   151 C68      -0.1694   -0.8204   -5.4549   C.ar      1 RES1   0.0000
   152 C69       0.1790    0.4918   -5.4991   C.ar      1 RES1   0.0000
   153 C70       0.1923    1.2857   -4.3142   C.ar      1 RES1   0.0000
   154 C71       0.5343    2.6489   -4.3122   C.ar      1 RES1   0.0000
   155 C72       0.5044    3.3652   -3.1373   C.ar      1 RES1   0.0000
   156 C73       0.1896    2.7065   -1.9427   C.ar      1 RES1   0.0000
   157 C74       0.1744    3.2521   -0.5427   C.2       1 RES1   0.0000
   158 O4        0.4302    2.3897    0.3351   O.2       1 RES1   0.0000
   159 N6       -0.1645    4.4903   -0.2006   N.am      1 RES1   0.0000
   160 C75      -0.5286    4.7011    1.2008   C.3       1 RES1   0.0000
   161 C76       0.6138    4.9220    2.1988   C.3       1 RES1   0.0000
   162 C77       1.5103    6.1373    1.9434   C.3       1 RES1   0.0000
   163 C78       2.7264    5.7731    1.0912   C.3       1 RES1   0.0000
   164 C79       3.5609    6.9927    0.6921   C.3       1 RES1   0.0000
   165 C80       2.9157    7.8396   -0.4056   C.3       1 RES1   0.0000
   166 C81       2.9271    7.1551   -1.7702   C.3       1 RES1   0.0000
   167 C82       2.1864    7.9746   -2.8164   C.3       1 RES1   0.0000
   168 C83      -0.5190    5.5659   -1.1141   C.3       1 RES1   0.0000
   169 C84      -1.8881    5.3261   -1.7582   C.3       1 RES1   0.0000
   170 C85      -2.2465    6.4412   -2.7369   C.3       1 RES1   0.0000
   171 C86      -2.5913    7.7624   -2.0480   C.3       1 RES1   0.0000
   172 C87      -2.8398    8.8792   -3.0643   C.3       1 RES1   0.0000
   173 C88      -1.5675    9.2983   -3.7967   C.3       1 RES1   0.0000
   174 C89      -1.7961   10.4529   -4.7624   C.3       1 RES1   0.0000
   175 C90      -0.5077   10.8414   -5.4695   C.3       1 RES1   0.0000
   176 N7       -0.0970    1.4001   -1.9198   N.ar      1 RES1   0.0000
   177 C91      -0.1333    0.7009   -3.0656   C.ar      1 RES1   0.0000
   178 C92      -0.4882   -0.7011   -3.0105   C.ar      1 RES1   0.0000
   179 N8       -0.7573   -1.2523   -1.8183   N.ar      1 RES1   0.0000
   180 H75      -4.9962   -6.6096   -7.5697   H         1 RES1   0.0000
   181 H76      -6.4352   -5.6991   -7.1196   H         1 RES1   0.0000
   182 H77      -6.2803   -7.3914   -6.6547   H         1 RES1   0.0000
   183 H78      -4.5011   -5.1270   -5.6494   H         1 RES1   0.0000
   184 H79      -4.3503   -6.8299   -5.2127   H         1 RES1   0.0000
   185 H80      -6.5280   -6.8028   -4.0966   H         1 RES1   0.0000
   186 H81      -6.8742   -5.1966   -4.7225   H         1 RES1   0.0000
   187 H82      -6.2592   -4.9690   -2.3974   H         1 RES1   0.0000
   188 H83      -4.9935   -4.2632   -3.4028   H         1 RES1   0.0000
   189 H84      -3.7843   -6.5500   -3.1864   H         1 RES1   0.0000
   190 H85      -4.9483   -6.9265   -1.9235   H         1 RES1   0.0000
   191 H86      -4.2220   -4.9655   -0.6400   H         1 RES1   0.0000
   192 H87      -3.1854   -4.4494   -1.9477   H         1 RES1   0.0000
   193 H88      -2.1577   -6.9496   -1.6131   H         1 RES1   0.0000
   194 H89      -2.8211   -6.7539   -0.0157   H         1 RES1   0.0000
   195 H90      -0.5445   -5.2474   -1.3610   H         1 RES1   0.0000
   196 H91      -0.5881   -6.0697    0.1900   H         1 RES1   0.0000
   197 H92      -1.3573   -3.4541    2.1678   H         1 RES1   0.0000
   198 H93      -1.1637   -5.2150    2.0177   H         1 RES1   0.0000
   199 H94      -3.5719   -5.4020    1.3502   H         1 RES1   0.0000
   200 H95      -3.7193   -3.6456    1.4586   H         1 RES1   0.0000
   201 H96      -4.5931   -4.1630    3.4776   H         1 RES1   0.0000
   202 H97      -2.9144   -4.1897    4.0136   H         1 RES1   0.0000
   203 H98      -4.5363   -6.6146    3.1124   H         1 RES1   0.0000
   204 H99      -4.4622   -6.0401    4.7735   H         1 RES1   0.0000
   205 H100     -2.0582   -7.0460    3.2047   H         1 RES1   0.0000
   206 H101     -3.0224   -7.9862    4.3367   H         1 RES1   0.0000
   207 H102     -2.4798   -6.2775    6.1287   H         1 RES1   0.0000
   208 H103     -1.2979   -5.5745    5.0232   H         1 RES1   0.0000
   209 H104     -1.3255   -8.4498    6.0434   H         1 RES1   0.0000
   210 H105     -0.2755   -7.1611    6.6189   H         1 RES1   0.0000
   211 H106     -0.2530   -8.3624    3.8128   H         1 RES1   0.0000
   212 H107      0.9556   -8.5888    5.0654   H         1 RES1   0.0000
   213 H108      0.7469   -6.9987    4.3334   H         1 RES1   0.0000
   214 H109     -1.3721   -4.3880   -2.8404   H         1 RES1   0.0000
   215 H110     -0.9798   -3.3925   -4.9887   H         1 RES1   0.0000
   216 H111     -0.1992   -1.4141   -6.3583   H         1 RES1   0.0000
   217 H112      0.4576    0.9649   -6.4298   H         1 RES1   0.0000
   218 H113      0.8215    3.1345   -5.2338   H         1 RES1   0.0000
   219 H114      0.7556    4.4095   -3.1636   H         1 RES1   0.0000
   220 H115     -1.0725    3.8046    1.5244   H         1 RES1   0.0000
   221 H116     -1.2057    5.5555    1.2305   H         1 RES1   0.0000
   222 H117      1.2354    4.0255    2.2260   H         1 RES1   0.0000
   223 H118      0.1258    5.0310    3.1712   H         1 RES1   0.0000
   224 H119      1.8629    6.5168    2.9041   H         1 RES1   0.0000
   225 H120      0.9374    6.9403    1.4791   H         1 RES1   0.0000
   226 H121      2.3963    5.2393    0.1977   H         1 RES1   0.0000
   227 H122      3.3521    5.0849    1.6670   H         1 RES1   0.0000
   228 H123      4.5409    6.6606    0.3422   H         1 RES1   0.0000
   229 H124      3.7248    7.6058    1.5809   H         1 RES1   0.0000
   230 H125      3.4627    8.7786   -0.4862   H         1 RES1   0.0000
   231 H126      1.8910    8.0935   -0.1274   H         1 RES1   0.0000
   232 H127      2.4731    6.1629   -1.6992   H         1 RES1   0.0000
   233 H128      3.9592    7.0116   -2.0892   H         1 RES1   0.0000
   234 H129      1.1493    8.1321   -2.5256   H         1 RES1   0.0000
   235 H130      2.2073    7.4779   -3.7837   H         1 RES1   0.0000
   236 H131      2.6539    8.9477   -2.9300   H         1 RES1   0.0000
   237 H132      0.2545    5.7017   -1.8691   H         1 RES1   0.0000
   238 H133     -0.5335    6.4810   -0.5216   H         1 RES1   0.0000
   239 H134     -2.6454    5.2677   -0.9735   H         1 RES1   0.0000
   240 H135     -1.8781    4.3633   -2.2796   H         1 RES1   0.0000
   241 H136     -3.1080    6.1207   -3.3235   H         1 RES1   0.0000
   242 H137     -1.4096    6.5821   -3.4227   H         1 RES1   0.0000
   243 H138     -1.7789    8.0716   -1.3852   H         1 RES1   0.0000
   244 H139     -3.4861    7.6219   -1.4343   H         1 RES1   0.0000
   245 H140     -3.2447    9.7455   -2.5400   H         1 RES1   0.0000
   246 H141     -3.5930    8.5540   -3.7846   H         1 RES1   0.0000
   247 H142     -1.1678    8.4555   -4.3636   H         1 RES1   0.0000
   248 H143     -0.8126    9.5926   -3.0640   H         1 RES1   0.0000
   249 H144     -2.1880   11.3136   -4.2202   H         1 RES1   0.0000
   250 H145     -2.5451   10.1629   -5.5002   H         1 RES1   0.0000
   251 H146      0.2458   11.1529   -4.7496   H         1 RES1   0.0000
   252 H147     -0.6813   11.6617   -6.1578   H         1 RES1   0.0000
   253 H148     -0.1094   10.0011   -6.0345   H         1 RES1   0.0000
@<TRIPOS>BOND
     1     1    20    1
     2     1    32    1
     3     1    50    1
     4     1    53    1
     5     1   146    1
     6     1   158    1
     7     1   176    1
     8     1   179    1
     9     2     3    1
    10     2    54    1
    11     2    55    1
    12     2    56    1
    13     3     4    1
    14     3    57    1
    15     3    58    1
    16     4     5    1
    17     4    59    1
    18     4    60    1
    19     5     6    1
    20     5    61    1
    21     5    62    1
    22     6     7    1
    23     6    63    1
    24     6    64    1
    25     7     8    1
    26     7    65    1
    27     7    66    1
    28     8     9    1
    29     8    67    1
    30     8    68    1
    31     9    10    1
    32     9    69    1
    33     9    70    1
    34    10    11    1
    35    10    19    1
    36    11    12    1
    37    11    71    1
    38    11    72    1
    39    12    13    1
    40    12    73    1
    41    12    74    1
    42    13    14    1
    43    13    75    1
    44    13    76    1
    45    14    15    1
    46    14    77    1
    47    14    78    1
    48    15    16    1
    49    15    79    1
    50    15    80    1
    51    16    17    1
    52    16    81    1
    53    16    82    1
    54    17    18    1
    55    17    83    1
    56    17    84    1
    57    18    85    1
    58    18    86    1
    59    18    87    1
    60    19    20    2
    61    19    21    1
    62    21    22    1
    63    21    53    2
    64    22    23    2
    65    22    88    1
    66    23    24    1
    67    23    89    1
    68    24    25    1
    69    24    52    2
    70    25    26    2
    71    25    90    1
    72    26    27    1
    73    26    91    1
    74    27    28    1
    75    27    51    2
    76    28    29    2
    77    28    92    1
    78    29    30    1
    79    29    93    1
    80    30    31    1
    81    30    50    2
    82    31    32    2
    83    31    33    1
    84    33    34    1
    85    33    42    1
    86    34    35    1
    87    34    94    1
    88    34    95    1
    89    35    36    1
    90    35    96    1
    91    35    97    1
    92    36    37    1
    93    36    98    1
    94    36    99    1
    95    37    38    1
    96    37   100    1
    97    37   101    1
    98    38    39    1
    99    38   102    1
   100    38   103    1
   101    39    40    1
   102    39   104    1
   103    39   105    1
   104    40    41    1
   105    40   106    1
   106    40   107    1
   107    41   108    1
   108    41   109    1
   109    41   110    1
   110    42    43    1
   111    42   111    1
   112    42   112    1
   113    43    44    1
   114    43   113    1
   115    43   114    1
   116    44    45    1
   117    44   115    1
   118    44   116    1
   119    45    46    1
   120    45   117    1
   121    45   118    1
   122    46    47    1
   123    46   119    1
   124    46   120    1
   125    47    48    1
   126    47   121    1
   127    47   122    1
   128    48    49    1
   129    48   123    1
   130    48   124    1
   131    49   125    1
   132    49   126    1
   133    49   127    1
   134    50    51    1
   135    51    52    1
   136    52    53    1
   137   128   129    1
   138   128   180    1
   139   128   181    1
   140   128   182    1
   141   129   130    1
   142   129   183    1
   143   129   184    1
   144   130   131    1
   145   130   185    1
   146   130   186    1
   147   131   132    1
   148   131   187    1
   149   131   188    1
   150   132   133    1
   151   132   189    1
   152   132   190    1
   153   133   134    1
   154   133   191    1
   155   133   192    1
   156   134   135    1
   157   134   193    1
   158   134   194    1
   159   135   136    1
   160   135   195    1
   161   135   196    1
   162   136   137    1
   163   136   145    1
   164   137   138    1
   165   137   197    1
   166   137   198    1
   167   138   139    1
   168   138   199    1
   169   138   200    1
   170   139   140    1
   171   139   201    1
   172   139   202    1
   173   140   141    1
   174   140   203    1
   175   140   204    1
   176   141   142    1
   177   141   205    1
   178   141   206    1
   179   142   143    1
   180   142   207    1
   181   142   208    1
   182   143   144    1
   183   143   209    1
   184   143   210    1
   185   144   211    1
   186   144   212    1
   187   144   213    1
   188   145   146    2
   189   145   147    1
   190   147   148    1
   191   147   179    2
   192   148   149    2
   193   148   214    1
   194   149   150    1
   195   149   215    1
   196   150   151    1
   197   150   178    2
   198   151   152    2
   199   151   216    1
   200   152   153    1
   201   152   217    1
   202   153   154    1
   203   153   177    2
   204   154   155    2
   205   154   218    1
   206   155   156    1
   207   155   219    1
   208   156   157    1
   209   156   176    2
   210   157   158    2
   211   157   159    1
   212   159   160    1
   213   159   168    1
   214   160   161    1
   215   160   220    1
   216   160   221    1
   217   161   162    1
   218   161   222    1
   219   161   223    1
   220   162   163    1
   221   162   224    1
   222   162   225    1
   223   163   164    1
   224   163   226    1
   225   163   227    1
   226   164   165    1
   227   164   228    1
   228   164   229    1
   229   165   166    1
   230   165   230    1
   231   165   231    1
   232   166   167    1
   233   166   232    1
   234   166   233    1
   235   167   234    1
   236   167   235    1
   237   167   236    1
   238   168   169    1
   239   168   237    1
   240   168   238    1
   241   169   170    1
   242   169   239    1
   243   169   240    1
   244   170   171    1
   245   170   241    1
   246   170   242    1
   247   171   172    1
   248   171   243    1
   249   171   244    1
   250   172   173    1
   251   172   245    1
   252   172   246    1
   253   173   174    1
   254   173   247    1
   255   173   248    1
   256   174   175    1
   257   174   249    1
   258   174   250    1
   259   175   251    1
   260   175   252    1
   261   175   253    1
   262   176   177    1
   263   177   178    1
   264   178   179    1
@<TRIPOS>SUBSTRUCTURE
     1 RES1      253 GROUP             0 ****  ****    0  
