@<TRIPOS>MOLECULE
ICIGOT_geomtry_0_nunpairedes_0_charge_3 Charge: 3 Unpaired_Electrons: 1 XTB_Unpaired_Electrons: 0 XTB_Charge: 3
   233   236     1     0     0
SMALL
NoCharges
****
Generated from Architector

@<TRIPOS>ATOM
     1 Yb1      -0.2145    0.0550    0.0215   Yb        1 RES1   0.0000
     2 C1       -2.6575    4.0489    5.9869   C.3       1 RES1   0.0000
     3 C2       -3.1194    2.9473    6.9322   C.3       1 RES1   0.0000
     4 C3       -2.6062    1.5624    6.5313   C.3       1 RES1   0.0000
     5 C4       -3.0618    1.0919    5.1460   C.3       1 RES1   0.0000
     6 C5       -4.5716    0.8669    5.0808   C.3       1 RES1   0.0000
     7 C6       -5.0643    0.4316    3.7006   C.3       1 RES1   0.0000
     8 C7       -5.1930    1.5893    2.7100   C.3       1 RES1   0.0000
     9 C8       -5.6534    1.1416    1.3147   C.3       1 RES1   0.0000
    10 N1       -4.7065    0.2510    0.6514   N.am      1 RES1   0.0000
    11 C9       -5.1158   -1.1170    0.3303   C.3       1 RES1   0.0000
    12 C10      -4.8204   -2.1165    1.4479   C.3       1 RES1   0.0000
    13 C11      -4.7182   -3.5648    0.9566   C.3       1 RES1   0.0000
    14 C12      -3.8044   -4.4220    1.8421   C.3       1 RES1   0.0000
    15 C13      -2.4178   -3.8274    2.1288   C.3       1 RES1   0.0000
    16 C14      -1.6929   -3.2657    0.8971   C.3       1 RES1   0.0000
    17 C15      -0.9421   -4.3405    0.0951   C.3       1 RES1   0.0000
    18 C16       0.5744   -4.1829    0.1856   C.3       1 RES1   0.0000
    19 C17      -3.4578    0.5916    0.3916   C.2       1 RES1   0.0000
    20 O1       -2.5685   -0.2541    0.0992   O.2       1 RES1   0.0000
    21 C18      -3.0261    2.0534    0.2805   C.3       1 RES1   0.0000
    22 O2       -1.8838    2.0748   -0.5742   O.3       1 RES1   0.0000
    23 C19      -2.2645    2.1489   -1.9531   C.3       1 RES1   0.0000
    24 C20      -1.0729    1.6892   -2.7991   C.2       1 RES1   0.0000
    25 O3       -0.1662    1.0525   -2.2058   O.2       1 RES1   0.0000
    26 N2       -1.0655    1.9730   -4.0896   N.am      1 RES1   0.0000
    27 C21       0.1209    1.6813   -4.8997   C.3       1 RES1   0.0000
    28 C22       0.4361    0.2103   -5.1974   C.3       1 RES1   0.0000
    29 C23      -0.1829   -0.4526   -6.4396   C.3       1 RES1   0.0000
    30 C24       0.8647   -1.3894   -7.0612   C.3       1 RES1   0.0000
    31 C25       0.2979   -2.5212   -7.9127   C.3       1 RES1   0.0000
    32 C26       1.3861   -3.5523   -8.2624   C.3       1 RES1   0.0000
    33 C27       0.8760   -4.9925   -8.1384   C.3       1 RES1   0.0000
    34 C28       1.9932   -6.0190   -8.2733   C.3       1 RES1   0.0000
    35 C29      -2.0527    2.8430   -4.7254   C.3       1 RES1   0.0000
    36 C30      -1.5741    4.3012   -4.8515   C.3       1 RES1   0.0000
    37 C31      -1.3053    5.0575   -3.5400   C.3       1 RES1   0.0000
    38 C32      -0.0217    4.6418   -2.8169   C.3       1 RES1   0.0000
    39 C33       0.3400    5.5286   -1.6210   C.3       1 RES1   0.0000
    40 C34      -0.3304    5.1534   -0.2918   C.3       1 RES1   0.0000
    41 C35      -1.7513    5.7003   -0.1288   C.3       1 RES1   0.0000
    42 C36      -2.1951    5.7249    1.3290   C.3       1 RES1   0.0000
    43 H1       -2.9438    5.0202    6.3770   H         1 RES1   0.0000
    44 H2       -3.1065    3.9383    5.0013   H         1 RES1   0.0000
    45 H3       -1.5746    4.0268    5.8843   H         1 RES1   0.0000
    46 H4       -4.2076    2.9458    6.9840   H         1 RES1   0.0000
    47 H5       -2.7493    3.1617    7.9352   H         1 RES1   0.0000
    48 H6       -2.9379    0.8333    7.2721   H         1 RES1   0.0000
    49 H7       -1.5122    1.5793    6.5570   H         1 RES1   0.0000
    50 H8       -2.5496    0.1515    4.9049   H         1 RES1   0.0000
    51 H9       -2.7670    1.8361    4.4002   H         1 RES1   0.0000
    52 H10      -5.0851    1.7819    5.3679   H         1 RES1   0.0000
    53 H11      -4.8388    0.1002    5.8092   H         1 RES1   0.0000
    54 H12      -6.0412   -0.0313    3.8196   H         1 RES1   0.0000
    55 H13      -4.3845   -0.3236    3.3062   H         1 RES1   0.0000
    56 H14      -4.2391    2.1098    2.6384   H         1 RES1   0.0000
    57 H15      -5.9284    2.3037    3.0849   H         1 RES1   0.0000
    58 H16      -5.8379    2.0189    0.6864   H         1 RES1   0.0000
    59 H17      -6.5912    0.5932    1.4125   H         1 RES1   0.0000
    60 H18      -4.5608   -1.4074   -0.5664   H         1 RES1   0.0000
    61 H19      -6.1740   -1.0970    0.0768   H         1 RES1   0.0000
    62 H20      -5.5832   -2.0503    2.2208   H         1 RES1   0.0000
    63 H21      -3.8614   -1.8283    1.8755   H         1 RES1   0.0000
    64 H22      -4.3491   -3.5864   -0.0706   H         1 RES1   0.0000
    65 H23      -5.7080   -4.0202    0.9348   H         1 RES1   0.0000
    66 H24      -3.6921   -5.3971    1.3680   H         1 RES1   0.0000
    67 H25      -4.2960   -4.5874    2.8017   H         1 RES1   0.0000
    68 H26      -1.8138   -4.6123    2.5823   H         1 RES1   0.0000
    69 H27      -2.5131   -3.0348    2.8723   H         1 RES1   0.0000
    70 H28      -0.9854   -2.4801    1.2322   H         1 RES1   0.0000
    71 H29      -2.4380   -2.7843    0.2664   H         1 RES1   0.0000
    72 H30      -1.2486   -4.3321   -0.9528   H         1 RES1   0.0000
    73 H31      -1.1987   -5.3269    0.4816   H         1 RES1   0.0000
    74 H32       0.9064   -3.1845   -0.1503   H         1 RES1   0.0000
    75 H33       1.0666   -4.9539   -0.4069   H         1 RES1   0.0000
    76 H34       0.9065   -4.2951    1.2133   H         1 RES1   0.0000
    77 H35      -2.7015    2.4565    1.2413   H         1 RES1   0.0000
    78 H36      -3.8194    2.6931   -0.1124   H         1 RES1   0.0000
    79 H37      -2.5317    3.1860   -2.1739   H         1 RES1   0.0000
    80 H38      -3.1191    1.4893   -2.1568   H         1 RES1   0.0000
    81 H39       0.9800    2.0810   -4.3543   H         1 RES1   0.0000
    82 H40       0.0120    2.2244   -5.8359   H         1 RES1   0.0000
    83 H41       0.2172   -0.3866   -4.3115   H         1 RES1   0.0000
    84 H42       1.5162    0.1905   -5.3471   H         1 RES1   0.0000
    85 H43      -0.4825    0.2904   -7.1798   H         1 RES1   0.0000
    86 H44      -1.0688   -1.0274   -6.1649   H         1 RES1   0.0000
    87 H45       1.4401   -1.8536   -6.2543   H         1 RES1   0.0000
    88 H46       1.5570   -0.7914   -7.6565   H         1 RES1   0.0000
    89 H47      -0.1594   -2.1165   -8.8142   H         1 RES1   0.0000
    90 H48      -0.4764   -3.0286   -7.3340   H         1 RES1   0.0000
    91 H49       2.2307   -3.4194   -7.5770   H         1 RES1   0.0000
    92 H50       1.7690   -3.3823   -9.2694   H         1 RES1   0.0000
    93 H51       0.1265   -5.1809   -8.9097   H         1 RES1   0.0000
    94 H52       0.3712   -5.1116   -7.1737   H         1 RES1   0.0000
    95 H53       2.3639   -6.0132   -9.2948   H         1 RES1   0.0000
    96 H54       1.6143   -7.0080   -8.0409   H         1 RES1   0.0000
    97 H55       2.8135   -5.7894   -7.5956   H         1 RES1   0.0000
    98 H56      -3.0007    2.7894   -4.1924   H         1 RES1   0.0000
    99 H57      -2.2345    2.4313   -5.7202   H         1 RES1   0.0000
   100 H58      -2.3494    4.8448   -5.3923   H         1 RES1   0.0000
   101 H59      -0.6739    4.3414   -5.4683   H         1 RES1   0.0000
   102 H60      -2.1628    4.9818   -2.8704   H         1 RES1   0.0000
   103 H61      -1.2089    6.1188   -3.7851   H         1 RES1   0.0000
   104 H62       0.7883    4.6993   -3.5439   H         1 RES1   0.0000
   105 H63      -0.0652    3.6105   -2.4625   H         1 RES1   0.0000
   106 H64       0.1101    6.5684   -1.8556   H         1 RES1   0.0000
   107 H65       1.4215    5.4685   -1.4808   H         1 RES1   0.0000
   108 H66       0.2819    5.5762    0.5089   H         1 RES1   0.0000
   109 H67      -0.3309    4.0588   -0.1669   H         1 RES1   0.0000
   110 H68      -2.4572    5.1032   -0.7099   H         1 RES1   0.0000
   111 H69      -1.7827    6.7174   -0.5207   H         1 RES1   0.0000
   112 H70      -2.1435    4.7314    1.7745   H         1 RES1   0.0000
   113 H71      -3.2148    6.0904    1.4070   H         1 RES1   0.0000
   114 H72      -1.5587    6.3906    1.9049   H         1 RES1   0.0000
   115 C37       3.7166    7.1451   -3.1372   C.3       1 RES1   0.0000
   116 C38       4.1905    6.6290   -4.4876   C.3       1 RES1   0.0000
   117 C39       3.4200    5.3992   -4.9704   C.3       1 RES1   0.0000
   118 C40       3.5654    4.1529   -4.0906   C.3       1 RES1   0.0000
   119 C41       4.9779    3.5703   -4.1246   C.3       1 RES1   0.0000
   120 C42       5.1307    2.2743   -3.3179   C.3       1 RES1   0.0000
   121 C43       5.1474    2.5186   -1.8070   C.3       1 RES1   0.0000
   122 C44       5.2933    1.2266   -1.0032   C.3       1 RES1   0.0000
   123 N3        4.1911    0.2747   -1.1755   N.am      1 RES1   0.0000
   124 C45       4.5876   -0.9828   -1.8286   C.3       1 RES1   0.0000
   125 C46       3.5576   -1.6237   -2.7501   C.3       1 RES1   0.0000
   126 C47       3.8576   -3.1114   -2.9617   C.3       1 RES1   0.0000
   127 C48       2.7649   -3.8433   -3.7547   C.3       1 RES1   0.0000
   128 C49       1.3498   -3.3748   -3.4362   C.3       1 RES1   0.0000
   129 C50       0.2904   -4.1001   -4.2659   C.3       1 RES1   0.0000
   130 C51      -0.0953   -5.4618   -3.6801   C.3       1 RES1   0.0000
   131 C52      -1.5128   -5.8343   -4.0880   C.3       1 RES1   0.0000
   132 C53       2.9911    0.4756   -0.6644   C.2       1 RES1   0.0000
   133 O4        2.0205   -0.3245   -0.7127   O.2       1 RES1   0.0000
   134 C54       2.7135    1.7159    0.1921   C.3       1 RES1   0.0000
   135 O5        1.8628    1.2608    1.2455   O.3       1 RES1   0.0000
   136 C55       2.5854    0.3998    2.1446   C.3       1 RES1   0.0000
   137 C56       1.5977   -0.6096    2.7470   C.2       1 RES1   0.0000
   138 O6        0.5599   -0.8587    2.0809   O.2       1 RES1   0.0000
   139 N4        1.8685   -1.1514    3.9173   N.am      1 RES1   0.0000
   140 C57       0.8763   -2.0012    4.5865   C.3       1 RES1   0.0000
   141 C58       0.5461   -3.3585    3.9569   C.3       1 RES1   0.0000
   142 C59       1.5077   -4.5263    4.2396   C.3       1 RES1   0.0000
   143 C60       0.7713   -5.8275    4.6473   C.3       1 RES1   0.0000
   144 C61       0.7996   -6.9805    3.6251   C.3       1 RES1   0.0000
   145 C62      -0.5150   -7.2010    2.8763   C.3       1 RES1   0.0000
   146 C63      -0.4220   -8.4106    1.9483   C.3       1 RES1   0.0000
   147 C64      -1.6506   -8.6006    1.0678   C.3       1 RES1   0.0000
   148 C65       3.0591   -0.8364    4.7067   C.3       1 RES1   0.0000
   149 C66       2.8149    0.1668    5.8485   C.3       1 RES1   0.0000
   150 C67       2.6806    1.6464    5.4633   C.3       1 RES1   0.0000
   151 C68       1.3350    2.0279    4.8407   C.3       1 RES1   0.0000
   152 C69       1.1745    3.5282    4.5593   C.3       1 RES1   0.0000
   153 C70       1.9000    4.0657    3.3154   C.3       1 RES1   0.0000
   154 C71       3.3607    4.4613    3.5504   C.3       1 RES1   0.0000
   155 C72       3.9542    5.2121    2.3643   C.3       1 RES1   0.0000
   156 H73       4.2285    8.0689   -2.8939   H         1 RES1   0.0000
   157 H74       3.9213    6.4310   -2.3442   H         1 RES1   0.0000
   158 H75       2.6497    7.3453   -3.1592   H         1 RES1   0.0000
   159 H76       5.2562    6.4104   -4.4424   H         1 RES1   0.0000
   160 H77       4.0564    7.4120   -5.2341   H         1 RES1   0.0000
   161 H78       3.7557    5.1461   -5.9782   H         1 RES1   0.0000
   162 H79       2.3597    5.6635   -5.0319   H         1 RES1   0.0000
   163 H80       2.8663    3.3892   -4.4522   H         1 RES1   0.0000
   164 H81       3.2876    4.3970   -3.0635   H         1 RES1   0.0000
   165 H82       5.6899    4.3097   -3.7556   H         1 RES1   0.0000
   166 H83       5.2363    3.3608   -5.1642   H         1 RES1   0.0000
   167 H84       6.0783    1.8113   -3.6027   H         1 RES1   0.0000
   168 H85       4.3179    1.5862   -3.5760   H         1 RES1   0.0000
   169 H86       4.2522    3.0626   -1.5098   H         1 RES1   0.0000
   170 H87       6.0093    3.1409   -1.5617   H         1 RES1   0.0000
   171 H88       5.4391    1.4429    0.0589   H         1 RES1   0.0000
   172 H89       6.1991    0.7279   -1.3448   H         1 RES1   0.0000
   173 H90       4.8718   -1.6840   -1.0365   H         1 RES1   0.0000
   174 H91       5.4872   -0.7813   -2.4078   H         1 RES1   0.0000
   175 H92       3.5516   -1.1064   -3.7106   H         1 RES1   0.0000
   176 H93       2.5784   -1.5397   -2.2926   H         1 RES1   0.0000
   177 H94       3.9739   -3.5811   -1.9825   H         1 RES1   0.0000
   178 H95       4.8048   -3.2292   -3.4908   H         1 RES1   0.0000
   179 H96       2.8413   -4.9088   -3.5367   H         1 RES1   0.0000
   180 H97       2.9420   -3.7288   -4.8219   H         1 RES1   0.0000
   181 H98       1.2819   -2.3071   -3.6426   H         1 RES1   0.0000
   182 H99       1.1613   -3.5524   -2.3738   H         1 RES1   0.0000
   183 H100      0.6453   -4.2254   -5.2891   H         1 RES1   0.0000
   184 H101     -0.6004   -3.4694   -4.3179   H         1 RES1   0.0000
   185 H102     -0.0166   -5.4424   -2.5879   H         1 RES1   0.0000
   186 H103      0.5996   -6.2235   -4.0341   H         1 RES1   0.0000
   187 H104     -2.2402   -5.1307   -3.6830   H         1 RES1   0.0000
   188 H105     -1.7705   -6.8226   -3.7247   H         1 RES1   0.0000
   189 H106     -1.5944   -5.8040   -5.1693   H         1 RES1   0.0000
   190 H107      2.1376    2.4501   -0.3813   H         1 RES1   0.0000
   191 H108      3.6109    2.1800    0.6065   H         1 RES1   0.0000
   192 H109      3.0815    1.0139    2.9009   H         1 RES1   0.0000
   193 H110      3.3411   -0.1757    1.5957   H         1 RES1   0.0000
   194 H111     -0.0534   -1.4296    4.6220   H         1 RES1   0.0000
   195 H112      1.2284   -2.1612    5.6020   H         1 RES1   0.0000
   196 H113      0.3979   -3.2292    2.8897   H         1 RES1   0.0000
   197 H114     -0.4213   -3.6204    4.3858   H         1 RES1   0.0000
   198 H115      2.1917   -4.2480    5.0446   H         1 RES1   0.0000
   199 H116      2.1262   -4.7323    3.3635   H         1 RES1   0.0000
   200 H117     -0.2693   -5.5970    4.8813   H         1 RES1   0.0000
   201 H118      1.2147   -6.1920    5.5729   H         1 RES1   0.0000
   202 H119      1.0381   -7.9050    4.1493   H         1 RES1   0.0000
   203 H120      1.5961   -6.8187    2.8958   H         1 RES1   0.0000
   204 H121     -0.7382   -6.3125    2.2858   H         1 RES1   0.0000
   205 H122     -1.3329   -7.3424    3.5858   H         1 RES1   0.0000
   206 H123     -0.2707   -9.3085    2.5480   H         1 RES1   0.0000
   207 H124      0.4535   -8.2917    1.3071   H         1 RES1   0.0000
   208 H125     -2.5456   -8.7444    1.6656   H         1 RES1   0.0000
   209 H126     -1.5219   -9.4846    0.4506   H         1 RES1   0.0000
   210 H127     -1.8057   -7.7463    0.4089   H         1 RES1   0.0000
   211 H128      3.8689   -0.4921    4.0635   H         1 RES1   0.0000
   212 H129      3.3935   -1.7754    5.1502   H         1 RES1   0.0000
   213 H130      3.6780    0.0850    6.5114   H         1 RES1   0.0000
   214 H131      1.9398   -0.1341    6.4278   H         1 RES1   0.0000
   215 H132      3.5097    1.9385    4.8159   H         1 RES1   0.0000
   216 H133      2.7916    2.2256    6.3822   H         1 RES1   0.0000
   217 H134      0.5524    1.7280    5.5415   H         1 RES1   0.0000
   218 H135      1.1654    1.4725    3.9158   H         1 RES1   0.0000
   219 H136      1.4967    4.0983    5.4319   H         1 RES1   0.0000
   220 H137      0.1055    3.7238    4.4324   H         1 RES1   0.0000
   221 H138      1.3746    4.9663    2.9863   H         1 RES1   0.0000
   222 H139      1.8328    3.3383    2.4967   H         1 RES1   0.0000
   223 H140      3.9744    3.5821    3.7536   H         1 RES1   0.0000
   224 H141      3.4092    5.1021    4.4313   H         1 RES1   0.0000
   225 H142      3.9388    4.6038    1.4604   H         1 RES1   0.0000
   226 H143      4.9838    5.4839    2.5760   H         1 RES1   0.0000
   227 H144      3.3981    6.1248    2.1717   H         1 RES1   0.0000
   228 O7       -0.8554    1.4946    2.1327   O.3       1 RES1   0.0000
   229 H145     -1.2436    1.0702    2.9146   H         1 RES1   0.0000
   230 H146     -0.3097    2.2209    2.4757   H         1 RES1   0.0000
   231 O8       -0.7799   -1.6273   -1.5993   O.3       1 RES1   0.0000
   232 H147     -0.2699   -2.2784   -2.1174   H         1 RES1   0.0000
   233 H148     -1.7094   -1.8781   -1.7084   H         1 RES1   0.0000
@<TRIPOS>BOND
     1     1    20    1
     2     1    22    1
     3     1    25    1
     4     1   133    1
     5     1   135    1
     6     1   138    1
     7     1   228    1
     8     1   231    1
     9     2     3    1
    10     2    43    1
    11     2    44    1
    12     2    45    1
    13     3     4    1
    14     3    46    1
    15     3    47    1
    16     4     5    1
    17     4    48    1
    18     4    49    1
    19     5     6    1
    20     5    50    1
    21     5    51    1
    22     6     7    1
    23     6    52    1
    24     6    53    1
    25     7     8    1
    26     7    54    1
    27     7    55    1
    28     8     9    1
    29     8    56    1
    30     8    57    1
    31     9    10    1
    32     9    58    1
    33     9    59    1
    34    10    11    1
    35    10    19    1
    36    11    12    1
    37    11    60    1
    38    11    61    1
    39    12    13    1
    40    12    62    1
    41    12    63    1
    42    13    14    1
    43    13    64    1
    44    13    65    1
    45    14    15    1
    46    14    66    1
    47    14    67    1
    48    15    16    1
    49    15    68    1
    50    15    69    1
    51    16    17    1
    52    16    70    1
    53    16    71    1
    54    17    18    1
    55    17    72    1
    56    17    73    1
    57    18    74    1
    58    18    75    1
    59    18    76    1
    60    19    20    2
    61    19    21    1
    62    21    22    1
    63    21    77    1
    64    21    78    1
    65    22    23    1
    66    23    24    1
    67    23    79    1
    68    23    80    1
    69    24    25    2
    70    24    26    1
    71    26    27    1
    72    26    35    1
    73    27    28    1
    74    27    81    1
    75    27    82    1
    76    28    29    1
    77    28    83    1
    78    28    84    1
    79    29    30    1
    80    29    85    1
    81    29    86    1
    82    30    31    1
    83    30    87    1
    84    30    88    1
    85    31    32    1
    86    31    89    1
    87    31    90    1
    88    32    33    1
    89    32    91    1
    90    32    92    1
    91    33    34    1
    92    33    93    1
    93    33    94    1
    94    34    95    1
    95    34    96    1
    96    34    97    1
    97    35    36    1
    98    35    98    1
    99    35    99    1
   100    36    37    1
   101    36   100    1
   102    36   101    1
   103    37    38    1
   104    37   102    1
   105    37   103    1
   106    38    39    1
   107    38   104    1
   108    38   105    1
   109    39    40    1
   110    39   106    1
   111    39   107    1
   112    40    41    1
   113    40   108    1
   114    40   109    1
   115    41    42    1
   116    41   110    1
   117    41   111    1
   118    42   112    1
   119    42   113    1
   120    42   114    1
   121   115   116    1
   122   115   156    1
   123   115   157    1
   124   115   158    1
   125   116   117    1
   126   116   159    1
   127   116   160    1
   128   117   118    1
   129   117   161    1
   130   117   162    1
   131   118   119    1
   132   118   163    1
   133   118   164    1
   134   119   120    1
   135   119   165    1
   136   119   166    1
   137   120   121    1
   138   120   167    1
   139   120   168    1
   140   121   122    1
   141   121   169    1
   142   121   170    1
   143   122   123    1
   144   122   171    1
   145   122   172    1
   146   123   124    1
   147   123   132    1
   148   124   125    1
   149   124   173    1
   150   124   174    1
   151   125   126    1
   152   125   175    1
   153   125   176    1
   154   126   127    1
   155   126   177    1
   156   126   178    1
   157   127   128    1
   158   127   179    1
   159   127   180    1
   160   128   129    1
   161   128   181    1
   162   128   182    1
   163   129   130    1
   164   129   183    1
   165   129   184    1
   166   130   131    1
   167   130   185    1
   168   130   186    1
   169   131   187    1
   170   131   188    1
   171   131   189    1
   172   132   133    2
   173   132   134    1
   174   134   135    1
   175   134   190    1
   176   134   191    1
   177   135   136    1
   178   136   137    1
   179   136   192    1
   180   136   193    1
   181   137   138    2
   182   137   139    1
   183   139   140    1
   184   139   148    1
   185   140   141    1
   186   140   194    1
   187   140   195    1
   188   141   142    1
   189   141   196    1
   190   141   197    1
   191   142   143    1
   192   142   198    1
   193   142   199    1
   194   143   144    1
   195   143   200    1
   196   143   201    1
   197   144   145    1
   198   144   202    1
   199   144   203    1
   200   145   146    1
   201   145   204    1
   202   145   205    1
   203   146   147    1
   204   146   206    1
   205   146   207    1
   206   147   208    1
   207   147   209    1
   208   147   210    1
   209   148   149    1
   210   148   211    1
   211   148   212    1
   212   149   150    1
   213   149   213    1
   214   149   214    1
   215   150   151    1
   216   150   215    1
   217   150   216    1
   218   151   152    1
   219   151   217    1
   220   151   218    1
   221   152   153    1
   222   152   219    1
   223   152   220    1
   224   153   154    1
   225   153   221    1
   226   153   222    1
   227   154   155    1
   228   154   223    1
   229   154   224    1
   230   155   225    1
   231   155   226    1
   232   155   227    1
   233   228   229    1
   234   228   230    1
   235   231   232    1
   236   231   233    1
@<TRIPOS>SUBSTRUCTURE
     1 RES1      233 GROUP             0 ****  ****    0  
