@<TRIPOS>MOLECULE
ICIGOT_geomtry_0_nunpairedes_0_charge_2 Charge: 2 Unpaired_Electrons: 1 XTB_Unpaired_Electrons: 0 XTB_Charge: 2
   315   319     1     0     0
SMALL
NoCharges
****
Generated from Architector

@<TRIPOS>ATOM
     1 Yb1      -0.2746    0.2053   -0.0509   Yb        1 RES1   0.0000
     2 C1       -4.5673    2.0174   -6.8626   C.3       1 RES1   0.0000
     3 C2       -4.9303    1.1716   -5.6466   C.3       1 RES1   0.0000
     4 C3       -4.7236    1.9207   -4.3298   C.3       1 RES1   0.0000
     5 C4       -5.1077    1.0590   -3.1275   C.3       1 RES1   0.0000
     6 C5       -4.7039    1.6781   -1.7898   C.3       1 RES1   0.0000
     7 C6       -5.0105    0.7440   -0.6208   C.3       1 RES1   0.0000
     8 C7       -4.4762    1.2584    0.7153   C.3       1 RES1   0.0000
     9 C8       -4.6990    0.2250    1.8197   C.3       1 RES1   0.0000
    10 C9       -4.4642    0.7587    3.2456   C.3       1 RES1   0.0000
    11 C10      -3.2152    0.1836    3.9409   C.3       1 RES1   0.0000
    12 N1       -2.0891    1.1119    4.0155   N.am      1 RES1   0.0000
    13 C11      -2.0003    1.9677    5.1966   C.3       1 RES1   0.0000
    14 C12      -1.0999    1.3826    6.3002   C.3       1 RES1   0.0000
    15 C13      -0.6032    2.4164    7.3223   C.3       1 RES1   0.0000
    16 C14       0.7287    3.0719    6.9308   C.3       1 RES1   0.0000
    17 C15       1.9264    2.1618    7.1981   C.3       1 RES1   0.0000
    18 C16       3.2354    2.6561    6.5844   C.3       1 RES1   0.0000
    19 C17       4.2986    1.5673    6.7171   C.3       1 RES1   0.0000
    20 C18       5.5831    1.8227    5.9325   C.3       1 RES1   0.0000
    21 C19       6.4947    0.5990    6.0153   C.3       1 RES1   0.0000
    22 C20       7.8009    0.7787    5.2559   C.3       1 RES1   0.0000
    23 C21      -1.2146    1.1061    3.0208   C.2       1 RES1   0.0000
    24 O1       -1.3905    0.4620    1.9663   O.2       1 RES1   0.0000
    25 C22       0.0872    1.9008    3.1222   C.3       1 RES1   0.0000
    26 C23       1.2841    1.0007    3.5005   C.3       1 RES1   0.0000
    27 C24       0.9519   -0.4487    3.8757   C.3       1 RES1   0.0000
    28 C25       2.0687   -1.0748    4.6992   C.3       1 RES1   0.0000
    29 O2        0.3421    2.4258    1.8198   O.3       1 RES1   0.0000
    30 C26      -0.3219    3.6649    1.5193   C.3       1 RES1   0.0000
    31 C27       0.6578    4.8275    1.7303   C.3       1 RES1   0.0000
    32 C28       1.0013    5.1086    3.1977   C.3       1 RES1   0.0000
    33 C29       1.7980    6.4028    3.3122   C.3       1 RES1   0.0000
    34 C30      -0.7884    3.5163    0.0602   C.2       1 RES1   0.0000
    35 O3       -0.6037    2.3890   -0.4565   O.2       1 RES1   0.0000
    36 N2       -1.3413    4.5008   -0.6350   N.am      1 RES1   0.0000
    37 C31      -1.8170    5.7690   -0.0977   C.3       1 RES1   0.0000
    38 C32      -0.8974    6.9698   -0.4073   C.3       1 RES1   0.0000
    39 C33      -1.4399    7.9353   -1.4607   C.3       1 RES1   0.0000
    40 C34      -0.5611    9.1783   -1.6433   C.3       1 RES1   0.0000
    41 C35       0.7218    8.9678   -2.4544   C.3       1 RES1   0.0000
    42 C36       1.9357    8.3771   -1.7309   C.3       1 RES1   0.0000
    43 C37       2.4005    9.1825   -0.5184   C.3       1 RES1   0.0000
    44 C38       3.7540    8.6927   -0.0028   C.3       1 RES1   0.0000
    45 C39       4.3491    9.5866    1.0875   C.3       1 RES1   0.0000
    46 C40       3.6560    9.4514    2.4379   C.3       1 RES1   0.0000
    47 C41      -1.5276    4.2602   -2.0718   C.3       1 RES1   0.0000
    48 C42      -0.2527    4.5653   -2.8731   C.3       1 RES1   0.0000
    49 C43      -0.2377    3.8030   -4.2004   C.3       1 RES1   0.0000
    50 C44       0.8927    4.1818   -5.1664   C.3       1 RES1   0.0000
    51 C45       2.3268    3.9685   -4.6581   C.3       1 RES1   0.0000
    52 C46       2.9585    5.2336   -4.0715   C.3       1 RES1   0.0000
    53 C47       4.4575    5.0596   -3.8247   C.3       1 RES1   0.0000
    54 C48       5.0667    6.1765   -2.9755   C.3       1 RES1   0.0000
    55 C49       6.5061    5.8396   -2.5889   C.3       1 RES1   0.0000
    56 C50       7.1164    6.8542   -1.6330   C.3       1 RES1   0.0000
    57 H1       -4.6908    1.4393   -7.7758   H         1 RES1   0.0000
    58 H2       -3.5315    2.3483   -6.8069   H         1 RES1   0.0000
    59 H3       -5.2052    2.8965   -6.9274   H         1 RES1   0.0000
    60 H4       -4.3143    0.2696   -5.6386   H         1 RES1   0.0000
    61 H5       -5.9726    0.8574   -5.7276   H         1 RES1   0.0000
    62 H6       -5.3203    2.8357   -4.3381   H         1 RES1   0.0000
    63 H7       -3.6716    2.2103   -4.2507   H         1 RES1   0.0000
    64 H8       -4.6182    0.0875   -3.2223   H         1 RES1   0.0000
    65 H9       -6.1856    0.8917   -3.1356   H         1 RES1   0.0000
    66 H10      -5.2243    2.6282   -1.6446   H         1 RES1   0.0000
    67 H11      -3.6291    1.8908   -1.8045   H         1 RES1   0.0000
    68 H12      -4.5769   -0.2373   -0.8181   H         1 RES1   0.0000
    69 H13      -6.0902    0.6087   -0.5428   H         1 RES1   0.0000
    70 H14      -4.9861    2.1915    0.9698   H         1 RES1   0.0000
    71 H15      -3.4002    1.4694    0.6256   H         1 RES1   0.0000
    72 H16      -4.0429   -0.6225    1.6194   H         1 RES1   0.0000
    73 H17      -5.7234   -0.1403    1.7418   H         1 RES1   0.0000
    74 H18      -5.3330    0.5188    3.8577   H         1 RES1   0.0000
    75 H19      -4.3913    1.8477    3.2276   H         1 RES1   0.0000
    76 H20      -2.8723   -0.6925    3.3862   H         1 RES1   0.0000
    77 H21      -3.4469   -0.1193    4.9622   H         1 RES1   0.0000
    78 H22      -3.0150    2.0934    5.5768   H         1 RES1   0.0000
    79 H23      -1.6466    2.9596    4.9073   H         1 RES1   0.0000
    80 H24      -0.2283    0.9296    5.8340   H         1 RES1   0.0000
    81 H25      -1.6528    0.5954    6.8145   H         1 RES1   0.0000
    82 H26      -0.4615    1.9142    8.2794   H         1 RES1   0.0000
    83 H27      -1.3637    3.1831    7.4616   H         1 RES1   0.0000
    84 H28       0.8575    3.9952    7.4980   H         1 RES1   0.0000
    85 H29       0.7077    3.3521    5.8739   H         1 RES1   0.0000
    86 H30       1.7151    1.1644    6.8021   H         1 RES1   0.0000
    87 H31       2.0616    2.0522    8.2746   H         1 RES1   0.0000
    88 H32       3.5675    3.5670    7.0842   H         1 RES1   0.0000
    89 H33       3.0895    2.9054    5.5289   H         1 RES1   0.0000
    90 H34       3.8733    0.6185    6.3721   H         1 RES1   0.0000
    91 H35       4.5483    1.4425    7.7726   H         1 RES1   0.0000
    92 H36       6.0989    2.6966    6.3330   H         1 RES1   0.0000
    93 H37       5.3462    2.0317    4.8841   H         1 RES1   0.0000
    94 H38       5.9629   -0.2674    5.6113   H         1 RES1   0.0000
    95 H39       6.7164    0.3863    7.0616   H         1 RES1   0.0000
    96 H40       7.6091    1.0190    4.2136   H         1 RES1   0.0000
    97 H41       8.3924   -0.1325    5.2975   H         1 RES1   0.0000
    98 H42       8.3901    1.5812    5.6913   H         1 RES1   0.0000
    99 H43       0.0008    2.7206    3.8334   H         1 RES1   0.0000
   100 H44       1.9420    0.9761    2.6266   H         1 RES1   0.0000
   101 H45       1.8291    1.4743    4.3176   H         1 RES1   0.0000
   102 H46       0.8077   -1.0156    2.9566   H         1 RES1   0.0000
   103 H47       0.0253   -0.5101    4.4462   H         1 RES1   0.0000
   104 H48       3.0241   -0.9488    4.2047   H         1 RES1   0.0000
   105 H49       1.8855   -2.1308    4.8658   H         1 RES1   0.0000
   106 H50       2.1352   -0.6043    5.6744   H         1 RES1   0.0000
   107 H51      -1.2057    3.7821    2.1608   H         1 RES1   0.0000
   108 H52       1.5765    4.5952    1.1942   H         1 RES1   0.0000
   109 H53       0.2453    5.7367    1.3075   H         1 RES1   0.0000
   110 H54       1.5991    4.2932    3.6125   H         1 RES1   0.0000
   111 H55       0.0853    5.2099    3.7884   H         1 RES1   0.0000
   112 H56       2.7245    6.3264    2.7502   H         1 RES1   0.0000
   113 H57       2.0405    6.6114    4.3507   H         1 RES1   0.0000
   114 H58       1.2256    7.2392    2.9212   H         1 RES1   0.0000
   115 H59      -1.9509    5.6563    0.9795   H         1 RES1   0.0000
   116 H60      -2.8040    5.9569   -0.5304   H         1 RES1   0.0000
   117 H61       0.0705    6.5956   -0.7322   H         1 RES1   0.0000
   118 H62      -0.7527    7.5456    0.5068   H         1 RES1   0.0000
   119 H63      -2.4326    8.2656   -1.1473   H         1 RES1   0.0000
   120 H64      -1.5492    7.4323   -2.4221   H         1 RES1   0.0000
   121 H65      -0.3250    9.6085   -0.6702   H         1 RES1   0.0000
   122 H66      -1.1594    9.9185   -2.1773   H         1 RES1   0.0000
   123 H67       1.0254    9.9396   -2.8460   H         1 RES1   0.0000
   124 H68       0.4899    8.3369   -3.3159   H         1 RES1   0.0000
   125 H69       2.7530    8.3472   -2.4555   H         1 RES1   0.0000
   126 H70       1.7501    7.3439   -1.4292   H         1 RES1   0.0000
   127 H71       1.6609    9.1166    0.2806   H         1 RES1   0.0000
   128 H72       2.4904   10.2312   -0.8043   H         1 RES1   0.0000
   129 H73       4.4522    8.6664   -0.8423   H         1 RES1   0.0000
   130 H74       3.6532    7.6710    0.3768   H         1 RES1   0.0000
   131 H75       4.2990   10.6252    0.7565   H         1 RES1   0.0000
   132 H76       5.4044    9.3324    1.2116   H         1 RES1   0.0000
   133 H77       2.5962    9.6801    2.3613   H         1 RES1   0.0000
   134 H78       4.0975   10.1389    3.1540   H         1 RES1   0.0000
   135 H79       3.7676    8.4418    2.8263   H         1 RES1   0.0000
   136 H80      -2.3620    4.8664   -2.4185   H         1 RES1   0.0000
   137 H81      -1.7743    3.2048   -2.2068   H         1 RES1   0.0000
   138 H82       0.6064    4.2596   -2.2753   H         1 RES1   0.0000
   139 H83      -0.1743    5.6336   -3.0674   H         1 RES1   0.0000
   140 H84      -1.1817    3.9927   -4.7167   H         1 RES1   0.0000
   141 H85      -0.1898    2.7332   -3.9880   H         1 RES1   0.0000
   142 H86       0.7813    5.2254   -5.4650   H         1 RES1   0.0000
   143 H87       0.7483    3.5785   -6.0648   H         1 RES1   0.0000
   144 H88       2.9483    3.6488   -5.4971   H         1 RES1   0.0000
   145 H89       2.3471    3.1614   -3.9212   H         1 RES1   0.0000
   146 H90       2.4712    5.4980   -3.1342   H         1 RES1   0.0000
   147 H91       2.8046    6.0616   -4.7641   H         1 RES1   0.0000
   148 H92       4.9786    5.0120   -4.7831   H         1 RES1   0.0000
   149 H93       4.6233    4.1022   -3.3182   H         1 RES1   0.0000
   150 H94       4.4701    6.3077   -2.0681   H         1 RES1   0.0000
   151 H95       5.0407    7.1147   -3.5326   H         1 RES1   0.0000
   152 H96       7.1152    5.7812   -3.4918   H         1 RES1   0.0000
   153 H97       6.5219    4.8541   -2.1162   H         1 RES1   0.0000
   154 H98       7.1955    7.8302   -2.1046   H         1 RES1   0.0000
   155 H99       8.1128    6.5382   -1.3400   H         1 RES1   0.0000
   156 H100      6.5123    6.9512   -0.7346   H         1 RES1   0.0000
   157 C51      -6.1628   -5.0797    0.5349   C.3       1 RES1   0.0000
   158 C52      -5.4885   -4.3996   -0.6495   C.3       1 RES1   0.0000
   159 C53      -3.9873   -4.6728   -0.6971   C.3       1 RES1   0.0000
   160 C54      -3.3568   -4.1314   -1.9780   C.3       1 RES1   0.0000
   161 C55      -1.8349   -4.0333   -1.8902   C.3       1 RES1   0.0000
   162 C56      -1.2404   -3.5449   -3.2095   C.3       1 RES1   0.0000
   163 C57       0.2122   -3.0857   -3.0864   C.3       1 RES1   0.0000
   164 C58       0.7310   -2.6124   -4.4425   C.3       1 RES1   0.0000
   165 C59       2.2182   -2.2536   -4.4871   C.3       1 RES1   0.0000
   166 C60       2.5332   -0.8170   -4.0351   C.3       1 RES1   0.0000
   167 N3        3.2702   -0.7524   -2.7752   N.am      1 RES1   0.0000
   168 C61       4.7110   -0.9380   -2.8484   C.3       1 RES1   0.0000
   169 C62       5.4800    0.3721   -3.0851   C.3       1 RES1   0.0000
   170 C63       6.9383    0.2857   -2.6155   C.3       1 RES1   0.0000
   171 C64       7.1514    0.5731   -1.1258   C.3       1 RES1   0.0000
   172 C65       7.0978    2.0649   -0.7892   C.3       1 RES1   0.0000
   173 C66       7.0112    2.3214    0.7162   C.3       1 RES1   0.0000
   174 C67       6.8570    3.8108    1.0228   C.3       1 RES1   0.0000
   175 C68       6.5054    4.0763    2.4849   C.3       1 RES1   0.0000
   176 C69       6.2984    5.5658    2.7548   C.3       1 RES1   0.0000
   177 C70       5.9212    5.8408    4.2051   C.3       1 RES1   0.0000
   178 C71       2.6074   -0.4817   -1.6630   C.2       1 RES1   0.0000
   179 O4        1.3604   -0.3878   -1.6218   O.2       1 RES1   0.0000
   180 C72       3.3134   -0.2793   -0.3238   C.3       1 RES1   0.0000
   181 C73       3.6176    1.2052   -0.0764   C.3       1 RES1   0.0000
   182 C74       2.6453    2.2118   -0.6918   C.3       1 RES1   0.0000
   183 C75       3.2161    3.6184   -0.5469   C.3       1 RES1   0.0000
   184 O5        2.3974   -0.7735    0.6542   O.3       1 RES1   0.0000
   185 C76       2.4752   -2.2110    0.7993   C.3       1 RES1   0.0000
   186 C77       3.5069   -2.5206    1.9107   C.3       1 RES1   0.0000
   187 C78       4.7054   -3.4081    1.5504   C.3       1 RES1   0.0000
   188 C79       5.7154   -3.4007    2.6979   C.3       1 RES1   0.0000
   189 C80       1.0166   -2.6390    1.0792   C.2       1 RES1   0.0000
   190 O6        0.1445   -1.7482    0.9737   O.2       1 RES1   0.0000
   191 N4        0.7085   -3.8765    1.4404   N.am      1 RES1   0.0000
   192 C81       1.5937   -5.0225    1.2999   C.3       1 RES1   0.0000
   193 C82       2.1415   -5.5481    2.6373   C.3       1 RES1   0.0000
   194 C83       1.8230   -7.0216    2.8648   C.3       1 RES1   0.0000
   195 C84       2.5043   -7.5723    4.1148   C.3       1 RES1   0.0000
   196 C85       1.9533   -7.0186    5.4334   C.3       1 RES1   0.0000
   197 C86       2.6428   -5.7694    5.9889   C.3       1 RES1   0.0000
   198 C87       4.1151   -5.9919    6.3363   C.3       1 RES1   0.0000
   199 C88       4.6797   -4.8544    7.1883   C.3       1 RES1   0.0000
   200 C89       6.1748   -5.0100    7.4726   C.3       1 RES1   0.0000
   201 C90       7.0488   -4.7294    6.2534   C.3       1 RES1   0.0000
   202 C91      -0.6660   -4.1352    1.8819   C.3       1 RES1   0.0000
   203 C92      -0.8417   -4.0046    3.4029   C.3       1 RES1   0.0000
   204 C93      -2.3128   -3.8132    3.7681   C.3       1 RES1   0.0000
   205 C94      -2.6052   -3.8229    5.2722   C.3       1 RES1   0.0000
   206 C95      -1.8646   -2.7584    6.0953   C.3       1 RES1   0.0000
   207 C96      -0.6469   -3.2931    6.8508   C.3       1 RES1   0.0000
   208 C97      -0.0674   -2.2416    7.8003   C.3       1 RES1   0.0000
   209 C98       1.3026   -2.6133    8.3722   C.3       1 RES1   0.0000
   210 C99       1.8783   -1.4732    9.2126   C.3       1 RES1   0.0000
   211 C100      3.3593   -1.6514    9.5161   C.3       1 RES1   0.0000
   212 H101     -7.2122   -4.8023    0.5835   H         1 RES1   0.0000
   213 H102     -5.6889   -4.7896    1.4705   H         1 RES1   0.0000
   214 H103     -6.1041   -6.1613    0.4438   H         1 RES1   0.0000
   215 H104     -5.6478   -3.3210   -0.5881   H         1 RES1   0.0000
   216 H105     -5.9507   -4.7496   -1.5736   H         1 RES1   0.0000
   217 H106     -3.8093   -5.7478   -0.6321   H         1 RES1   0.0000
   218 H107     -3.5100   -4.2015    0.1664   H         1 RES1   0.0000
   219 H108     -3.7497   -3.1354   -2.1859   H         1 RES1   0.0000
   220 H109     -3.6287   -4.7718   -2.8178   H         1 RES1   0.0000
   221 H110     -1.4133   -5.0079   -1.6316   H         1 RES1   0.0000
   222 H111     -1.5710   -3.3322   -1.0900   H         1 RES1   0.0000
   223 H112     -1.8434   -2.7147   -3.5771   H         1 RES1   0.0000
   224 H113     -1.3022   -4.3432   -3.9499   H         1 RES1   0.0000
   225 H114      0.8281   -3.9160   -2.7274   H         1 RES1   0.0000
   226 H115      0.2792   -2.2786   -2.3457   H         1 RES1   0.0000
   227 H116      0.1361   -1.7589   -4.7695   H         1 RES1   0.0000
   228 H117      0.5585   -3.4173   -5.1559   H         1 RES1   0.0000
   229 H118      2.5565   -2.3698   -5.5149   H         1 RES1   0.0000
   230 H119      2.7791   -2.9617   -3.8756   H         1 RES1   0.0000
   231 H120      1.6072   -0.2545   -3.8983   H         1 RES1   0.0000
   232 H121      3.1456   -0.3068   -4.7810   H         1 RES1   0.0000
   233 H122      4.9066   -1.6283   -3.6713   H         1 RES1   0.0000
   234 H123      5.0704   -1.4096   -1.9338   H         1 RES1   0.0000
   235 H124      4.9667    1.1880   -2.5758   H         1 RES1   0.0000
   236 H125      5.4655    0.6065   -4.1495   H         1 RES1   0.0000
   237 H126      7.5359    0.9994   -3.1808   H         1 RES1   0.0000
   238 H127      7.3223   -0.7085   -2.8457   H         1 RES1   0.0000
   239 H128      8.1298    0.1936   -0.8271   H         1 RES1   0.0000
   240 H129      6.4092    0.0390   -0.5258   H         1 RES1   0.0000
   241 H130      6.2412    2.5344   -1.2800   H         1 RES1   0.0000
   242 H131      7.9864    2.5575   -1.1845   H         1 RES1   0.0000
   243 H132      7.9078    1.9348    1.2041   H         1 RES1   0.0000
   244 H133      6.1587    1.7786    1.1362   H         1 RES1   0.0000
   245 H134      6.0698    4.2278    0.3894   H         1 RES1   0.0000
   246 H135      7.7846    4.3262    0.7728   H         1 RES1   0.0000
   247 H136      7.3041    3.6976    3.1264   H         1 RES1   0.0000
   248 H137      5.5911    3.5300    2.7428   H         1 RES1   0.0000
   249 H138      5.5128    5.9472    2.0947   H         1 RES1   0.0000
   250 H139      7.2168    6.1027    2.5058   H         1 RES1   0.0000
   251 H140      5.0047    5.3230    4.4788   H         1 RES1   0.0000
   252 H141      5.7724    6.9057    4.3593   H         1 RES1   0.0000
   253 H142      6.7121    5.5070    4.8708   H         1 RES1   0.0000
   254 H143      4.2478   -0.8423   -0.2361   H         1 RES1   0.0000
   255 H144      3.6598    1.3549    1.0062   H         1 RES1   0.0000
   256 H145      4.6075    1.4051   -0.4764   H         1 RES1   0.0000
   257 H146      1.6744    2.1403   -0.1851   H         1 RES1   0.0000
   258 H147      2.4918    2.0076   -1.7546   H         1 RES1   0.0000
   259 H148      3.4715    3.8298    0.4890   H         1 RES1   0.0000
   260 H149      2.5121    4.3691   -0.8945   H         1 RES1   0.0000
   261 H150      4.1204    3.7235   -1.1376   H         1 RES1   0.0000
   262 H151      2.7799   -2.6640   -0.1577   H         1 RES1   0.0000
   263 H152      3.8891   -1.5550    2.2473   H         1 RES1   0.0000
   264 H153      3.0051   -2.9594    2.7689   H         1 RES1   0.0000
   265 H154      5.2044   -3.0889    0.6293   H         1 RES1   0.0000
   266 H155      4.3623   -4.4318    1.4018   H         1 RES1   0.0000
   267 H156      6.1408   -2.4121    2.8541   H         1 RES1   0.0000
   268 H157      6.5359   -4.0798    2.4880   H         1 RES1   0.0000
   269 H158      5.2480   -3.7200    3.6276   H         1 RES1   0.0000
   270 H159      2.4029   -4.7566    0.6220   H         1 RES1   0.0000
   271 H160      1.0146   -5.8145    0.8120   H         1 RES1   0.0000
   272 H161      1.7215   -4.9537    3.4434   H         1 RES1   0.0000
   273 H162      3.2233   -5.4374    2.6754   H         1 RES1   0.0000
   274 H163      2.1646   -7.5904    1.9969   H         1 RES1   0.0000
   275 H164      0.7437   -7.1556    2.9473   H         1 RES1   0.0000
   276 H165      3.5754   -7.3881    4.0491   H         1 RES1   0.0000
   277 H166      2.3639   -8.6519    4.1102   H         1 RES1   0.0000
   278 H167      2.0397   -7.7919    6.1966   H         1 RES1   0.0000
   279 H168      0.8867   -6.8127    5.3155   H         1 RES1   0.0000
   280 H169      2.1127   -5.4753    6.8981   H         1 RES1   0.0000
   281 H170      2.5690   -4.9331    5.2903   H         1 RES1   0.0000
   282 H171      4.7003   -6.0809    5.4190   H         1 RES1   0.0000
   283 H172      4.2174   -6.9298    6.8855   H         1 RES1   0.0000
   284 H173      4.1422   -4.8318    8.1387   H         1 RES1   0.0000
   285 H174      4.5080   -3.8967    6.6869   H         1 RES1   0.0000
   286 H175      6.3667   -6.0222    7.8329   H         1 RES1   0.0000
   287 H176      6.4566   -4.3188    8.2695   H         1 RES1   0.0000
   288 H177      6.8107   -5.4044    5.4333   H         1 RES1   0.0000
   289 H178      8.0986   -4.8655    6.5048   H         1 RES1   0.0000
   290 H179      6.9090   -3.7039    5.9107   H         1 RES1   0.0000
   291 H180     -0.9639   -5.1284    1.5518   H         1 RES1   0.0000
   292 H181     -1.3033   -3.3988    1.3902   H         1 RES1   0.0000
   293 H182     -0.2743   -3.1417    3.7488   H         1 RES1   0.0000
   294 H183     -0.4667   -4.8907    3.9094   H         1 RES1   0.0000
   295 H184     -2.8925   -4.6102    3.3068   H         1 RES1   0.0000
   296 H185     -2.6598   -2.8726    3.3392   H         1 RES1   0.0000
   297 H186     -2.3861   -4.8096    5.6823   H         1 RES1   0.0000
   298 H187     -3.6795   -3.6697    5.3827   H         1 RES1   0.0000
   299 H188     -2.5552   -2.3354    6.8267   H         1 RES1   0.0000
   300 H189     -1.5540   -1.9439    5.4387   H         1 RES1   0.0000
   301 H190      0.1194   -3.6024    6.1406   H         1 RES1   0.0000
   302 H191     -0.9384   -4.1762    7.4205   H         1 RES1   0.0000
   303 H192     -0.7683   -2.0796    8.6218   H         1 RES1   0.0000
   304 H193      0.0303   -1.2937    7.2606   H         1 RES1   0.0000
   305 H194      1.9863   -2.8340    7.5485   H         1 RES1   0.0000
   306 H195      1.2152   -3.5147    8.9807   H         1 RES1   0.0000
   307 H196      1.3220   -1.4018   10.1474   H         1 RES1   0.0000
   308 H197      1.7447   -0.5302    8.6766   H         1 RES1   0.0000
   309 H198      3.5424   -2.5577   10.0864   H         1 RES1   0.0000
   310 H199      3.7282   -0.8122   10.0984   H         1 RES1   0.0000
   311 H200      3.9342   -1.7099    8.5948   H         1 RES1   0.0000
   312 N5       -1.9834   -0.4817   -1.7312   N.3       1 RES1   0.0000
   313 O7       -2.7347   -0.9257   -2.5391   O.2       1 RES1   0.0000
   314 O8       -2.0154   -0.8398   -0.5377   O.co2     1 RES1   0.0000
   315 O9       -1.1247    0.3599   -2.0312   O.co2     1 RES1   0.0000
@<TRIPOS>BOND
     1     1    24    1
     2     1    29    1
     3     1    35    1
     4     1   179    1
     5     1   184    1
     6     1   190    1
     7     1   314    1
     8     1   315    1
     9     2     3    1
    10     2    57    1
    11     2    58    1
    12     2    59    1
    13     3     4    1
    14     3    60    1
    15     3    61    1
    16     4     5    1
    17     4    62    1
    18     4    63    1
    19     5     6    1
    20     5    64    1
    21     5    65    1
    22     6     7    1
    23     6    66    1
    24     6    67    1
    25     7     8    1
    26     7    68    1
    27     7    69    1
    28     8     9    1
    29     8    70    1
    30     8    71    1
    31     9    10    1
    32     9    72    1
    33     9    73    1
    34    10    11    1
    35    10    74    1
    36    10    75    1
    37    11    12    1
    38    11    76    1
    39    11    77    1
    40    12    13    1
    41    12    23    1
    42    13    14    1
    43    13    78    1
    44    13    79    1
    45    14    15    1
    46    14    80    1
    47    14    81    1
    48    15    16    1
    49    15    82    1
    50    15    83    1
    51    16    17    1
    52    16    84    1
    53    16    85    1
    54    17    18    1
    55    17    86    1
    56    17    87    1
    57    18    19    1
    58    18    88    1
    59    18    89    1
    60    19    20    1
    61    19    90    1
    62    19    91    1
    63    20    21    1
    64    20    92    1
    65    20    93    1
    66    21    22    1
    67    21    94    1
    68    21    95    1
    69    22    96    1
    70    22    97    1
    71    22    98    1
    72    23    24    2
    73    23    25    1
    74    25    26    1
    75    25    29    1
    76    25    99    1
    77    26    27    1
    78    26   100    1
    79    26   101    1
    80    27    28    1
    81    27   102    1
    82    27   103    1
    83    28   104    1
    84    28   105    1
    85    28   106    1
    86    29    30    1
    87    30    31    1
    88    30    34    1
    89    30   107    1
    90    31    32    1
    91    31   108    1
    92    31   109    1
    93    32    33    1
    94    32   110    1
    95    32   111    1
    96    33   112    1
    97    33   113    1
    98    33   114    1
    99    34    35    2
   100    34    36    1
   101    36    37    1
   102    36    47    1
   103    37    38    1
   104    37   115    1
   105    37   116    1
   106    38    39    1
   107    38   117    1
   108    38   118    1
   109    39    40    1
   110    39   119    1
   111    39   120    1
   112    40    41    1
   113    40   121    1
   114    40   122    1
   115    41    42    1
   116    41   123    1
   117    41   124    1
   118    42    43    1
   119    42   125    1
   120    42   126    1
   121    43    44    1
   122    43   127    1
   123    43   128    1
   124    44    45    1
   125    44   129    1
   126    44   130    1
   127    45    46    1
   128    45   131    1
   129    45   132    1
   130    46   133    1
   131    46   134    1
   132    46   135    1
   133    47    48    1
   134    47   136    1
   135    47   137    1
   136    48    49    1
   137    48   138    1
   138    48   139    1
   139    49    50    1
   140    49   140    1
   141    49   141    1
   142    50    51    1
   143    50   142    1
   144    50   143    1
   145    51    52    1
   146    51   144    1
   147    51   145    1
   148    52    53    1
   149    52   146    1
   150    52   147    1
   151    53    54    1
   152    53   148    1
   153    53   149    1
   154    54    55    1
   155    54   150    1
   156    54   151    1
   157    55    56    1
   158    55   152    1
   159    55   153    1
   160    56   154    1
   161    56   155    1
   162    56   156    1
   163   157   158    1
   164   157   212    1
   165   157   213    1
   166   157   214    1
   167   158   159    1
   168   158   215    1
   169   158   216    1
   170   159   160    1
   171   159   217    1
   172   159   218    1
   173   160   161    1
   174   160   219    1
   175   160   220    1
   176   161   162    1
   177   161   221    1
   178   161   222    1
   179   162   163    1
   180   162   223    1
   181   162   224    1
   182   163   164    1
   183   163   225    1
   184   163   226    1
   185   164   165    1
   186   164   227    1
   187   164   228    1
   188   165   166    1
   189   165   229    1
   190   165   230    1
   191   166   167    1
   192   166   231    1
   193   166   232    1
   194   167   168    1
   195   167   178    1
   196   168   169    1
   197   168   233    1
   198   168   234    1
   199   169   170    1
   200   169   235    1
   201   169   236    1
   202   170   171    1
   203   170   237    1
   204   170   238    1
   205   171   172    1
   206   171   239    1
   207   171   240    1
   208   172   173    1
   209   172   241    1
   210   172   242    1
   211   173   174    1
   212   173   243    1
   213   173   244    1
   214   174   175    1
   215   174   245    1
   216   174   246    1
   217   175   176    1
   218   175   247    1
   219   175   248    1
   220   176   177    1
   221   176   249    1
   222   176   250    1
   223   177   251    1
   224   177   252    1
   225   177   253    1
   226   178   179    2
   227   178   180    1
   228   180   181    1
   229   180   184    1
   230   180   254    1
   231   181   182    1
   232   181   255    1
   233   181   256    1
   234   182   183    1
   235   182   257    1
   236   182   258    1
   237   183   259    1
   238   183   260    1
   239   183   261    1
   240   184   185    1
   241   185   186    1
   242   185   189    1
   243   185   262    1
   244   186   187    1
   245   186   263    1
   246   186   264    1
   247   187   188    1
   248   187   265    1
   249   187   266    1
   250   188   267    1
   251   188   268    1
   252   188   269    1
   253   189   190    2
   254   189   191    1
   255   191   192    1
   256   191   202    1
   257   192   193    1
   258   192   270    1
   259   192   271    1
   260   193   194    1
   261   193   272    1
   262   193   273    1
   263   194   195    1
   264   194   274    1
   265   194   275    1
   266   195   196    1
   267   195   276    1
   268   195   277    1
   269   196   197    1
   270   196   278    1
   271   196   279    1
   272   197   198    1
   273   197   280    1
   274   197   281    1
   275   198   199    1
   276   198   282    1
   277   198   283    1
   278   199   200    1
   279   199   284    1
   280   199   285    1
   281   200   201    1
   282   200   286    1
   283   200   287    1
   284   201   288    1
   285   201   289    1
   286   201   290    1
   287   202   203    1
   288   202   291    1
   289   202   292    1
   290   203   204    1
   291   203   293    1
   292   203   294    1
   293   204   205    1
   294   204   295    1
   295   204   296    1
   296   205   206    1
   297   205   297    1
   298   205   298    1
   299   206   207    1
   300   206   299    1
   301   206   300    1
   302   207   208    1
   303   207   301    1
   304   207   302    1
   305   208   209    1
   306   208   303    1
   307   208   304    1
   308   209   210    1
   309   209   305    1
   310   209   306    1
   311   210   211    1
   312   210   307    1
   313   210   308    1
   314   211   309    1
   315   211   310    1
   316   211   311    1
   317   312   313    2
   318   312   314    1
   319   312   315    1
@<TRIPOS>SUBSTRUCTURE
     1 RES1      315 GROUP             0 ****  ****    0  
