@<TRIPOS>MOLECULE
YEMSEP_geometry_0_nunpairedes_0_charge_2 Charge: 2 Unpaired_Electrons: 1 XTB_Unpaired_Electrons: 0 XTB_Charge: 2
   119   129     1     0     0
SMALL
NoCharges
****
Generated from Architector

@<TRIPOS>ATOM
     1 Yb1      -0.0395    0.1712    0.0072   Yb        1 RES1   0.0000
     2 C1       -3.9339    2.5127   -2.9156   C.3       1 RES1   0.0000
     3 C2       -4.1634    1.1944   -2.1892   C.3       1 RES1   0.0000
     4 N1       -3.3001    0.1245   -2.7096   N.am      1 RES1   0.0000
     5 C3       -2.3399   -0.3302   -1.9092   C.2       1 RES1   0.0000
     6 O1       -2.1014    0.2257   -0.8146   O.2       1 RES1   0.0000
     7 C4       -1.5969   -1.6254   -2.1587   C.ar      1 RES1   0.0000
     8 C5       -2.1454   -2.7484   -2.7817   C.ar      1 RES1   0.0000
     9 C6       -1.4556   -3.9438   -2.6937   C.ar      1 RES1   0.0000
    10 C7       -0.2884   -4.0225   -1.9432   C.ar      1 RES1   0.0000
    11 C8        0.1837   -2.8770   -1.3152   C.ar      1 RES1   0.0000
    12 C9        1.2883   -2.7322   -0.2926   C.2       1 RES1   0.0000
    13 O2        1.1902   -1.7212    0.4304   O.2       1 RES1   0.0000
    14 N2        2.2982   -3.5903   -0.1114   N.am      1 RES1   0.0000
    15 C10       2.3947   -4.9423   -0.6486   C.3       1 RES1   0.0000
    16 C11       2.8805   -4.9818   -2.0942   C.3       1 RES1   0.0000
    17 C12       3.3930   -3.1546    0.7082   C.ar      1 RES1   0.0000
    18 C13       3.9828   -1.9146    0.4917   C.ar      1 RES1   0.0000
    19 C14       5.0826   -1.5268    1.2399   C.ar      1 RES1   0.0000
    20 C15       5.6386   -2.3691    2.1971   C.ar      1 RES1   0.0000
    21 C16       6.8328   -1.9698    3.0031   C.3       1 RES1   0.0000
    22 C17       5.0429   -3.6114    2.3979   C.ar      1 RES1   0.0000
    23 C18       3.9234   -3.9913    1.6841   C.ar      1 RES1   0.0000
    24 N3       -0.4542   -1.7039   -1.4721   N.ar      1 RES1   0.0000
    25 C19      -3.4151   -0.2223   -4.0746   C.ar      1 RES1   0.0000
    26 C20      -2.2826   -0.4793   -4.8426   C.ar      1 RES1   0.0000
    27 C21      -2.4154   -0.7889   -6.1845   C.ar      1 RES1   0.0000
    28 C22      -3.6590   -0.7988   -6.8098   C.ar      1 RES1   0.0000
    29 C23      -3.8010   -1.0919   -8.2666   C.3       1 RES1   0.0000
    30 C24      -4.7783   -0.5022   -6.0343   C.ar      1 RES1   0.0000
    31 C25      -4.6646   -0.2376   -4.6864   C.ar      1 RES1   0.0000
    32 H1       -4.5752    3.2857   -2.4973   H         1 RES1   0.0000
    33 H2       -4.1641    2.4120   -3.9740   H         1 RES1   0.0000
    34 H3       -2.8978    2.8260   -2.8029   H         1 RES1   0.0000
    35 H4       -5.2054    0.8780   -2.2793   H         1 RES1   0.0000
    36 H5       -3.9327    1.3055   -1.1277   H         1 RES1   0.0000
    37 H6       -3.0841   -2.6918   -3.3092   H         1 RES1   0.0000
    38 H7       -1.8389   -4.8341   -3.1687   H         1 RES1   0.0000
    39 H8        0.1933   -4.9771   -1.8535   H         1 RES1   0.0000
    40 H9        1.4369   -5.4473   -0.5103   H         1 RES1   0.0000
    41 H10       3.1285   -5.4787   -0.0463   H         1 RES1   0.0000
    42 H11       2.2735   -4.3677   -2.7551   H         1 RES1   0.0000
    43 H12       2.8627   -6.0089   -2.4509   H         1 RES1   0.0000
    44 H13       3.9078   -4.6300   -2.1312   H         1 RES1   0.0000
    45 H14       3.5753   -1.2541   -0.2588   H         1 RES1   0.0000
    46 H15       5.5411   -0.5623    1.0658   H         1 RES1   0.0000
    47 H16       7.1584   -0.9616    2.7629   H         1 RES1   0.0000
    48 H17       7.6571   -2.6556    2.8134   H         1 RES1   0.0000
    49 H18       6.6010   -2.0212    4.0662   H         1 RES1   0.0000
    50 H19       5.4678   -4.2924    3.1213   H         1 RES1   0.0000
    51 H20       3.4636   -4.9415    1.9075   H         1 RES1   0.0000
    52 H21      -1.2992   -0.4137   -4.3977   H         1 RES1   0.0000
    53 H22      -1.5307   -0.9996   -6.7665   H         1 RES1   0.0000
    54 H23      -2.8443   -1.3335   -8.7194   H         1 RES1   0.0000
    55 H24      -4.2186   -0.2259   -8.7769   H         1 RES1   0.0000
    56 H25      -4.4838   -1.9251   -8.4239   H         1 RES1   0.0000
    57 H26      -5.7575   -0.4702   -6.4863   H         1 RES1   0.0000
    58 H27      -5.5550   -0.0446   -4.1118   H         1 RES1   0.0000
    59 C26      -3.3113   -3.3898    2.7602   C.3       1 RES1   0.0000
    60 C27      -3.2098   -1.8726    2.8404   C.3       1 RES1   0.0000
    61 N4       -1.9634   -1.4346    3.4834   N.am      1 RES1   0.0000
    62 C28      -1.0651   -0.8226    2.7128   C.2       1 RES1   0.0000
    63 O3       -1.2294   -0.8215    1.4716   O.2       1 RES1   0.0000
    64 C29       0.1255   -0.0372    3.2127   C.ar      1 RES1   0.0000
    65 C30       0.4608    0.3828    4.4979   C.ar      1 RES1   0.0000
    66 C31       1.6328    1.1148    4.6514   C.ar      1 RES1   0.0000
    67 C32       2.4136    1.4641    3.5562   C.ar      1 RES1   0.0000
    68 C33       1.9551    1.1005    2.2914   C.ar      1 RES1   0.0000
    69 C34       2.5496    1.3586    0.9269   C.2       1 RES1   0.0000
    70 O4        2.0250    0.7523   -0.0392   O.2       1 RES1   0.0000
    71 N5        3.6326    2.0995    0.7071   N.am      1 RES1   0.0000
    72 C35       4.2293    1.9875   -0.6304   C.3       1 RES1   0.0000
    73 C36       3.5274    2.8594   -1.6653   C.3       1 RES1   0.0000
    74 C37       4.0459    3.1998    1.4950   C.ar      1 RES1   0.0000
    75 C38       5.4022    3.4655    1.6386   C.ar      1 RES1   0.0000
    76 C39       5.8168    4.6304    2.2492   C.ar      1 RES1   0.0000
    77 C40       4.8977    5.5422    2.7609   C.ar      1 RES1   0.0000
    78 C41       5.3758    6.8011    3.4016   C.3       1 RES1   0.0000
    79 C42       3.5432    5.2423    2.6456   C.ar      1 RES1   0.0000
    80 C43       3.1113    4.0945    2.0079   C.ar      1 RES1   0.0000
    81 N6        0.8622    0.3512    2.1742   N.ar      1 RES1   0.0000
    82 C44      -1.7457   -1.8800    4.8059   C.ar      1 RES1   0.0000
    83 C45      -2.8046   -1.9146    5.7027   C.ar      1 RES1   0.0000
    84 C46      -2.6342   -2.4589    6.9607   C.ar      1 RES1   0.0000
    85 C47      -1.4007   -2.9506    7.3690   C.ar      1 RES1   0.0000
    86 C48      -1.2044   -3.5090    8.7380   C.3       1 RES1   0.0000
    87 C49      -0.3451   -2.9066    6.4597   C.ar      1 RES1   0.0000
    88 C50      -0.5114   -2.4020    5.1866   C.ar      1 RES1   0.0000
    89 H28      -4.2546   -3.6788    2.3023   H         1 RES1   0.0000
    90 H29      -3.2661   -3.8361    3.7516   H         1 RES1   0.0000
    91 H30      -2.4963   -3.7798    2.1553   H         1 RES1   0.0000
    92 H31      -4.0511   -1.4673    3.4037   H         1 RES1   0.0000
    93 H32      -3.2271   -1.4365    1.8402   H         1 RES1   0.0000
    94 H33      -0.1506    0.1456    5.3540   H         1 RES1   0.0000
    95 H34       1.9363    1.4228    5.6412   H         1 RES1   0.0000
    96 H35       3.3265    2.0166    3.7005   H         1 RES1   0.0000
    97 H36       4.1737    0.9397   -0.9328   H         1 RES1   0.0000
    98 H37       5.2732    2.2856   -0.5514   H         1 RES1   0.0000
    99 H38       2.4988    2.5362   -1.8154   H         1 RES1   0.0000
   100 H39       4.0485    2.7832   -2.6171   H         1 RES1   0.0000
   101 H40       3.5377    3.8990   -1.3472   H         1 RES1   0.0000
   102 H41       6.1330    2.7611    1.2746   H         1 RES1   0.0000
   103 H42       6.8705    4.8488    2.3192   H         1 RES1   0.0000
   104 H43       5.9304    7.3988    2.6807   H         1 RES1   0.0000
   105 H44       6.0548    6.5770    4.2222   H         1 RES1   0.0000
   106 H45       4.5440    7.3871    3.7784   H         1 RES1   0.0000
   107 H46       2.8074    5.9302    3.0313   H         1 RES1   0.0000
   108 H47       2.0532    3.9049    1.8910   H         1 RES1   0.0000
   109 H48      -3.7635   -1.5113    5.4251   H         1 RES1   0.0000
   110 H49      -3.4762   -2.5051    7.6328   H         1 RES1   0.0000
   111 H50      -2.1372   -3.5113    9.2941   H         1 RES1   0.0000
   112 H51      -0.4745   -2.9142    9.2855   H         1 RES1   0.0000
   113 H52      -0.8247   -4.5271    8.6799   H         1 RES1   0.0000
   114 H53       0.6193   -3.2939    6.7472   H         1 RES1   0.0000
   115 H54       0.3119   -2.4194    4.4869   H         1 RES1   0.0000
   116 N7       -0.3138    2.5602   -0.4781   N.3       1 RES1   0.0000
   117 O5       -0.3975    3.7245   -0.6971   O.2       1 RES1   0.0000
   118 O6       -0.0719    1.7449   -1.3847   O.co2     1 RES1   0.0000
   119 O7       -0.4375    2.1095    0.6755   O.co2     1 RES1   0.0000
@<TRIPOS>BOND
     1     1     6    1
     2     1    13    1
     3     1    24    1
     4     1    63    1
     5     1    70    1
     6     1    81    1
     7     1   118    1
     8     1   119    1
     9     2     3    1
    10     2    32    1
    11     2    33    1
    12     2    34    1
    13     3     4    1
    14     3    35    1
    15     3    36    1
    16     4     5    1
    17     4    25    1
    18     5     6    2
    19     5     7    1
    20     7     8    1
    21     7    24    2
    22     8     9    2
    23     8    37    1
    24     9    10    1
    25     9    38    1
    26    10    11    2
    27    10    39    1
    28    11    12    1
    29    11    24    1
    30    12    13    2
    31    12    14    1
    32    14    15    1
    33    14    17    1
    34    15    16    1
    35    15    40    1
    36    15    41    1
    37    16    42    1
    38    16    43    1
    39    16    44    1
    40    17    18    1
    41    17    23    2
    42    18    19    2
    43    18    45    1
    44    19    20    1
    45    19    46    1
    46    20    21    1
    47    20    22    2
    48    21    47    1
    49    21    48    1
    50    21    49    1
    51    22    23    1
    52    22    50    1
    53    23    51    1
    54    25    26    1
    55    25    31    2
    56    26    27    2
    57    26    52    1
    58    27    28    1
    59    27    53    1
    60    28    29    1
    61    28    30    2
    62    29    54    1
    63    29    55    1
    64    29    56    1
    65    30    31    1
    66    30    57    1
    67    31    58    1
    68    59    60    1
    69    59    89    1
    70    59    90    1
    71    59    91    1
    72    60    61    1
    73    60    92    1
    74    60    93    1
    75    61    62    1
    76    61    82    1
    77    62    63    2
    78    62    64    1
    79    64    65    1
    80    64    81    2
    81    65    66    2
    82    65    94    1
    83    66    67    1
    84    66    95    1
    85    67    68    2
    86    67    96    1
    87    68    69    1
    88    68    81    1
    89    69    70    2
    90    69    71    1
    91    71    72    1
    92    71    74    1
    93    72    73    1
    94    72    97    1
    95    72    98    1
    96    73    99    1
    97    73   100    1
    98    73   101    1
    99    74    75    1
   100    74    80    2
   101    75    76    2
   102    75   102    1
   103    76    77    1
   104    76   103    1
   105    77    78    1
   106    77    79    2
   107    78   104    1
   108    78   105    1
   109    78   106    1
   110    79    80    1
   111    79   107    1
   112    80   108    1
   113    82    83    1
   114    82    88    2
   115    83    84    2
   116    83   109    1
   117    84    85    1
   118    84   110    1
   119    85    86    1
   120    85    87    2
   121    86   111    1
   122    86   112    1
   123    86   113    1
   124    87    88    1
   125    87   114    1
   126    88   115    1
   127   116   117    2
   128   116   118    1
   129   116   119    1
@<TRIPOS>SUBSTRUCTURE
     1 RES1      119 GROUP             0 ****  ****    0  
