@<TRIPOS>MOLECULE
YEMSEP_geometry_0_nunpairedes_0_charge_3 Charge: 3 Unpaired_Electrons: 1 XTB_Unpaired_Electrons: 0 XTB_Charge: 3
    79    91     1     0     0
SMALL
NoCharges
****
Generated from Architector

@<TRIPOS>ATOM
     1 Yb1      -0.9108   -1.4798    0.9324   Yb        1 RES1   0.0000
     2 C1       -3.4800    2.6939    3.9832   C.3       1 RES1   0.0000
     3 C2       -3.4919    1.3874    4.8093   C.3       1 RES1   0.0000
     4 C3       -4.7382    0.5532    4.4177   C.3       1 RES1   0.0000
     5 C4       -3.4499    1.7717    6.3124   C.3       1 RES1   0.0000
     6 C5       -2.4289    1.0880    7.2524   C.3       1 RES1   0.0000
     7 C6       -1.5808   -0.0611    6.6694   C.3       1 RES1   0.0000
     8 C7       -0.4034   -0.4063    7.5755   C.3       1 RES1   0.0000
     9 C8       -2.4563   -1.3219    6.4603   C.3       1 RES1   0.0000
    10 C9       -1.1845    0.3588    5.3133   C.ar      1 RES1   0.0000
    11 N1        0.0134    0.2803    4.7922   N.ar      1 RES1   0.0000
    12 C10       0.1579    0.0521    3.5130   C.ar      1 RES1   0.0000
    13 C11       1.4579   -0.0378    2.8212   C.ar      1 RES1   0.0000
    14 C12       2.6412    0.5835    3.2167   C.ar      1 RES1   0.0000
    15 C13       3.7744    0.3840    2.4377   C.ar      1 RES1   0.0000
    16 C14       3.7298   -0.4841    1.3510   C.ar      1 RES1   0.0000
    17 C15       2.5231   -1.1063    1.0401   C.ar      1 RES1   0.0000
    18 C16       2.3236   -2.1540    0.0051   C.ar      1 RES1   0.0000
    19 C17       3.2888   -2.8365   -0.7332   C.ar      1 RES1   0.0000
    20 C18       2.8851   -3.8964   -1.5383   C.ar      1 RES1   0.0000
    21 C19       1.5416   -4.2467   -1.6526   C.ar      1 RES1   0.0000
    22 C20       0.6407   -3.4742   -0.9480   C.ar      1 RES1   0.0000
    23 C21      -0.8492   -3.4593   -0.8057   C.ar      1 RES1   0.0000
    24 N2       -1.3770   -2.2750   -1.1458   N.ar      1 RES1   0.0000
    25 N3       -2.5880   -1.9817   -0.7232   N.ar      1 RES1   0.0000
    26 C22      -3.3052   -2.8312    0.0111   C.ar      1 RES1   0.0000
    27 C23      -2.5680   -3.8778    0.6513   C.ar      1 RES1   0.0000
    28 N4       -1.3597   -4.1757    0.1891   N.ar      1 RES1   0.0000
    29 C24      -2.8883   -4.2965    2.0675   C.3       1 RES1   0.0000
    30 C25      -1.5717   -4.1642    2.8553   C.3       1 RES1   0.0000
    31 C26      -3.3557   -5.7603    2.1549   C.3       1 RES1   0.0000
    32 C27      -3.9489   -3.3182    2.6105   C.3       1 RES1   0.0000
    33 C28      -5.1189   -3.1785    1.6364   C.3       1 RES1   0.0000
    34 C29      -4.6853   -2.4088    0.3793   C.3       1 RES1   0.0000
    35 C30      -5.5885   -2.7235   -0.8366   C.3       1 RES1   0.0000
    36 C31      -4.6541   -0.8851    0.6262   C.3       1 RES1   0.0000
    37 N5        1.0289   -2.4841   -0.1252   N.ar      1 RES1   0.0000
    38 N6        1.4046   -0.8392    1.7400   N.ar      1 RES1   0.0000
    39 N7       -0.9309   -0.3342    2.7857   N.ar      1 RES1   0.0000
    40 N8       -2.1261    0.1143    3.2254   N.ar      1 RES1   0.0000
    41 C32      -2.2633    0.6631    4.4028   C.ar      1 RES1   0.0000
    42 H1       -4.3435    3.2971    4.2469   H         1 RES1   0.0000
    43 H2       -3.5136    2.4845    2.9174   H         1 RES1   0.0000
    44 H3       -2.5880    3.2806    4.1957   H         1 RES1   0.0000
    45 H4       -5.3298    0.3130    5.2956   H         1 RES1   0.0000
    46 H5       -4.4644   -0.3805    3.9281   H         1 RES1   0.0000
    47 H6       -5.3685    1.1183    3.7382   H         1 RES1   0.0000
    48 H7       -4.4513    1.6284    6.7166   H         1 RES1   0.0000
    49 H8       -3.2427    2.8404    6.3662   H         1 RES1   0.0000
    50 H9       -2.9492    0.6876    8.1243   H         1 RES1   0.0000
    51 H10      -1.7283    1.8363    7.6185   H         1 RES1   0.0000
    52 H11      -0.7727   -0.6713    8.5624   H         1 RES1   0.0000
    53 H12       0.2764    0.4324    7.6822   H         1 RES1   0.0000
    54 H13       0.1488   -1.2587    7.1893   H         1 RES1   0.0000
    55 H14      -2.6317   -1.7824    7.4303   H         1 RES1   0.0000
    56 H15      -1.9390   -2.0467    5.8273   H         1 RES1   0.0000
    57 H16      -3.4144   -1.0630    6.0190   H         1 RES1   0.0000
    58 H17       2.6754    1.2158    4.0936   H         1 RES1   0.0000
    59 H18       4.6982    0.8896    2.6788   H         1 RES1   0.0000
    60 H19       4.6095   -0.6693    0.7576   H         1 RES1   0.0000
    61 H20       4.3304   -2.5649   -0.6969   H         1 RES1   0.0000
    62 H21       3.6176   -4.4621   -2.0969   H         1 RES1   0.0000
    63 H22       1.2223   -5.0708   -2.2732   H         1 RES1   0.0000
    64 H23      -0.8615   -4.9196    2.5262   H         1 RES1   0.0000
    65 H24      -1.7476   -4.3130    3.9180   H         1 RES1   0.0000
    66 H25      -1.1096   -3.1446    2.7165   H         1 RES1   0.0000
    67 H26      -2.5776   -6.4270    1.7996   H         1 RES1   0.0000
    68 H27      -4.2557   -5.9488    1.5795   H         1 RES1   0.0000
    69 H28      -3.5617   -6.0102    3.1935   H         1 RES1   0.0000
    70 H29      -3.4637   -2.3327    2.7603   H         1 RES1   0.0000
    71 H30      -4.3167   -3.6695    3.5756   H         1 RES1   0.0000
    72 H31      -5.9611   -2.6689    2.1021   H         1 RES1   0.0000
    73 H32      -5.4717   -4.1723    1.3643   H         1 RES1   0.0000
    74 H33      -5.5568   -3.7801   -1.0923   H         1 RES1   0.0000
    75 H34      -5.2715   -2.1465   -1.7034   H         1 RES1   0.0000
    76 H35      -6.6177   -2.4642   -0.6015   H         1 RES1   0.0000
    77 H36      -3.8246   -0.6110    1.3089   H         1 RES1   0.0000
    78 H37      -5.5921   -0.5681    1.0777   H         1 RES1   0.0000
    79 H38      -4.5346   -0.3537   -0.3162   H         1 RES1   0.0000
@<TRIPOS>BOND
     1     1    11    1
     2     1    24    1
     3     1    25    1
     4     1    28    1
     5     1    37    1
     6     1    38    1
     7     1    39    1
     8     1    40    1
     9     2     3    1
    10     2    42    1
    11     2    43    1
    12     2    44    1
    13     3     4    1
    14     3     5    1
    15     3    41    1
    16     4    45    1
    17     4    46    1
    18     4    47    1
    19     5     6    1
    20     5    48    1
    21     5    49    1
    22     6     7    1
    23     6    50    1
    24     6    51    1
    25     7     8    1
    26     7     9    1
    27     7    10    1
    28     8    52    1
    29     8    53    1
    30     8    54    1
    31     9    55    1
    32     9    56    1
    33     9    57    1
    34    10    11    1
    35    10    41    2
    36    11    12    2
    37    12    13    1
    38    12    39    1
    39    13    14    1
    40    13    38    2
    41    14    15    2
    42    14    58    1
    43    15    16    1
    44    15    59    1
    45    16    17    2
    46    16    60    1
    47    17    18    1
    48    17    38    1
    49    18    19    1
    50    18    37    2
    51    19    20    2
    52    19    61    1
    53    20    21    1
    54    20    62    1
    55    21    22    2
    56    21    63    1
    57    22    23    1
    58    22    37    1
    59    23    24    1
    60    23    28    2
    61    24    25    2
    62    25    26    1
    63    26    27    2
    64    26    34    1
    65    27    28    1
    66    27    29    1
    67    29    30    1
    68    29    31    1
    69    29    32    1
    70    30    64    1
    71    30    65    1
    72    30    66    1
    73    31    67    1
    74    31    68    1
    75    31    69    1
    76    32    33    1
    77    32    70    1
    78    32    71    1
    79    33    34    1
    80    33    72    1
    81    33    73    1
    82    34    35    1
    83    34    36    1
    84    35    74    1
    85    35    75    1
    86    35    76    1
    87    36    77    1
    88    36    78    1
    89    36    79    1
    90    39    40    2
    91    40    41    1
@<TRIPOS>SUBSTRUCTURE
     1 RES1       79 GROUP             0 ****  ****    0  
