@<TRIPOS>MOLECULE
ICIGOT_geomtry_0_nunpairedes_0_charge_2 Charge: 2 Unpaired_Electrons: 1 XTB_Unpaired_Electrons: 0 XTB_Charge: 2
    87    91     1     0     0
SMALL
NoCharges
****
Generated from Architector

@<TRIPOS>ATOM
     1 Yb1      -0.0111    0.0145    0.0354   Yb        1 RES1   0.0000
     2 C1        1.7091    3.6282    3.0626   C.3       1 RES1   0.0000
     3 C2        1.8608    2.2740    3.7447   C.3       1 RES1   0.0000
     4 N1        0.5678    1.6252    3.9701   N.am      1 RES1   0.0000
     5 C3        0.1008    1.5430    5.3437   C.3       1 RES1   0.0000
     6 C4        0.8739    0.4651    6.0967   C.3       1 RES1   0.0000
     7 C5        0.0059    1.0425    2.9294   C.2       1 RES1   0.0000
     8 O1        0.5541    1.0390    1.8102   O.2       1 RES1   0.0000
     9 C6       -1.3525    0.3311    3.0684   C.3       1 RES1   0.0000
    10 O2       -1.7651   -0.1814    1.7976   O.3       1 RES1   0.0000
    11 C7       -2.9736    0.3640    1.2651   C.3       1 RES1   0.0000
    12 C8       -2.6603    1.5617    0.3439   C.2       1 RES1   0.0000
    13 O3       -1.4540    1.8239    0.1669   O.2       1 RES1   0.0000
    14 N2       -3.6508    2.2108   -0.2411   N.am      1 RES1   0.0000
    15 C9       -3.3596    3.3120   -1.1621   C.3       1 RES1   0.0000
    16 C10      -3.6750    2.9527   -2.6106   C.3       1 RES1   0.0000
    17 C11      -5.0557    1.9702    0.0618   C.3       1 RES1   0.0000
    18 C12      -5.5007    2.6992    1.3253   C.3       1 RES1   0.0000
    19 H1        2.6790    4.1151    3.0325   H         1 RES1   0.0000
    20 H2        1.0135    4.2659    3.6021   H         1 RES1   0.0000
    21 H3        1.3550    3.4984    2.0427   H         1 RES1   0.0000
    22 H4        2.3616    2.3794    4.7065   H         1 RES1   0.0000
    23 H5        2.4500    1.6136    3.1009   H         1 RES1   0.0000
    24 H6       -0.9644    1.3218    5.3775   H         1 RES1   0.0000
    25 H7        0.2579    2.5125    5.8187   H         1 RES1   0.0000
    26 H8        0.8463   -0.4801    5.5598   H         1 RES1   0.0000
    27 H9        0.4392    0.3204    7.0794   H         1 RES1   0.0000
    28 H10       1.9159    0.7458    6.2162   H         1 RES1   0.0000
    29 H11      -2.0965    1.0240    3.4734   H         1 RES1   0.0000
    30 H12      -1.2640   -0.5249    3.7527   H         1 RES1   0.0000
    31 H13      -3.6486    0.6468    2.0765   H         1 RES1   0.0000
    32 H14      -3.4255   -0.4377    0.6655   H         1 RES1   0.0000
    33 H15      -2.3015    3.5684   -1.0639   H         1 RES1   0.0000
    34 H16      -3.9613    4.1729   -0.8598   H         1 RES1   0.0000
    35 H17      -3.1455    2.0587   -2.9334   H         1 RES1   0.0000
    36 H18      -3.3640    3.7804   -3.2416   H         1 RES1   0.0000
    37 H19      -4.7406    2.8006   -2.7631   H         1 RES1   0.0000
    38 H20      -5.2456    0.9000    0.1550   H         1 RES1   0.0000
    39 H21      -5.6391    2.3343   -0.7821   H         1 RES1   0.0000
    40 H22      -4.9842    2.3216    2.2029   H         1 RES1   0.0000
    41 H23      -6.5671    2.5540    1.4688   H         1 RES1   0.0000
    42 H24      -5.3055    3.7654    1.2474   H         1 RES1   0.0000
    43 C13       6.0708   -2.0534   -1.0716   C.3       1 RES1   0.0000
    44 C14       5.4400   -0.6686   -0.9896   C.3       1 RES1   0.0000
    45 N3        4.3094   -0.6166   -0.0749   N.am      1 RES1   0.0000
    46 C15       4.5660   -0.4936    1.3606   C.3       1 RES1   0.0000
    47 C16       4.2072   -1.7613    2.1350   C.3       1 RES1   0.0000
    48 C17       3.0451   -0.6330   -0.4558   C.2       1 RES1   0.0000
    49 O4        2.1118   -0.4645    0.3574   O.2       1 RES1   0.0000
    50 C18       2.6509   -0.8913   -1.9186   C.3       1 RES1   0.0000
    51 O5        1.2642   -1.2153   -1.9579   O.3       1 RES1   0.0000
    52 C19       0.9263   -2.5923   -2.0194   C.3       1 RES1   0.0000
    53 C20       0.1004   -2.9988   -0.7935   C.2       1 RES1   0.0000
    54 O6       -0.0536   -2.1827    0.1452   O.2       1 RES1   0.0000
    55 N4       -0.4336   -4.2060   -0.7635   N.am      1 RES1   0.0000
    56 C21      -1.1903   -4.5532    0.4345   C.3       1 RES1   0.0000
    57 C22      -0.2891   -4.8315    1.6318   C.3       1 RES1   0.0000
    58 C23      -0.3319   -5.1904   -1.8315   C.3       1 RES1   0.0000
    59 C24       0.9680   -5.9883   -1.8318   C.3       1 RES1   0.0000
    60 H25       6.8546   -2.0454   -1.8239   H         1 RES1   0.0000
    61 H26       5.3421   -2.8083   -1.3567   H         1 RES1   0.0000
    62 H27       6.5051   -2.3349   -0.1170   H         1 RES1   0.0000
    63 H28       5.1213   -0.3421   -1.9781   H         1 RES1   0.0000
    64 H29       6.1850    0.0453   -0.6326   H         1 RES1   0.0000
    65 H30       3.9513    0.3329    1.7323   H         1 RES1   0.0000
    66 H31       5.6170   -0.2460    1.5033   H         1 RES1   0.0000
    67 H32       3.1287   -1.9099    2.1364   H         1 RES1   0.0000
    68 H33       4.5413   -1.6540    3.1641   H         1 RES1   0.0000
    69 H34       4.6878   -2.6378    1.7064   H         1 RES1   0.0000
    70 H35       3.2462   -1.6888   -2.3711   H         1 RES1   0.0000
    71 H36       2.7734    0.0220   -2.5187   H         1 RES1   0.0000
    72 H37       1.8241   -3.2133   -2.0613   H         1 RES1   0.0000
    73 H38       0.3455   -2.7534   -2.9392   H         1 RES1   0.0000
    74 H39      -1.8018   -5.4246    0.2095   H         1 RES1   0.0000
    75 H40      -1.8428   -3.7038    0.6619   H         1 RES1   0.0000
    76 H41       0.4412   -5.6038    1.4060   H         1 RES1   0.0000
    77 H42      -0.9049   -5.1725    2.4582   H         1 RES1   0.0000
    78 H43       0.2307   -3.9231    1.9277   H         1 RES1   0.0000
    79 H44      -0.4638   -4.6977   -2.7949   H         1 RES1   0.0000
    80 H45      -1.1638   -5.8819   -1.7037   H         1 RES1   0.0000
    81 H46       1.8332   -5.3530   -1.9982   H         1 RES1   0.0000
    82 H47       0.9294   -6.7189   -2.6355   H         1 RES1   0.0000
    83 H48       1.1056   -6.5230   -0.8965   H         1 RES1   0.0000
    84 N5       -0.9368    0.3758   -2.1226   N.3       1 RES1   0.0000
    85 O7       -1.3911    0.5225   -3.2073   O.2       1 RES1   0.0000
    86 O8       -1.4628   -0.4151   -1.3102   O.co2     1 RES1   0.0000
    87 O9        0.0628    0.9929   -1.7335   O.co2     1 RES1   0.0000
@<TRIPOS>BOND
     1     1     8    1
     2     1    10    1
     3     1    13    1
     4     1    49    1
     5     1    51    1
     6     1    54    1
     7     1    86    1
     8     1    87    1
     9     2     3    1
    10     2    19    1
    11     2    20    1
    12     2    21    1
    13     3     4    1
    14     3    22    1
    15     3    23    1
    16     4     5    1
    17     4     7    1
    18     5     6    1
    19     5    24    1
    20     5    25    1
    21     6    26    1
    22     6    27    1
    23     6    28    1
    24     7     8    2
    25     7     9    1
    26     9    10    1
    27     9    29    1
    28     9    30    1
    29    10    11    1
    30    11    12    1
    31    11    31    1
    32    11    32    1
    33    12    13    2
    34    12    14    1
    35    14    15    1
    36    14    17    1
    37    15    16    1
    38    15    33    1
    39    15    34    1
    40    16    35    1
    41    16    36    1
    42    16    37    1
    43    17    18    1
    44    17    38    1
    45    17    39    1
    46    18    40    1
    47    18    41    1
    48    18    42    1
    49    43    44    1
    50    43    60    1
    51    43    61    1
    52    43    62    1
    53    44    45    1
    54    44    63    1
    55    44    64    1
    56    45    46    1
    57    45    48    1
    58    46    47    1
    59    46    65    1
    60    46    66    1
    61    47    67    1
    62    47    68    1
    63    47    69    1
    64    48    49    2
    65    48    50    1
    66    50    51    1
    67    50    70    1
    68    50    71    1
    69    51    52    1
    70    52    53    1
    71    52    72    1
    72    52    73    1
    73    53    54    2
    74    53    55    1
    75    55    56    1
    76    55    58    1
    77    56    57    1
    78    56    74    1
    79    56    75    1
    80    57    76    1
    81    57    77    1
    82    57    78    1
    83    58    59    1
    84    58    79    1
    85    58    80    1
    86    59    81    1
    87    59    82    1
    88    59    83    1
    89    84    85    2
    90    84    86    1
    91    84    87    1
@<TRIPOS>SUBSTRUCTURE
     1 RES1       87 GROUP             0 ****  ****    0  
