@<TRIPOS>MOLECULE
ICIGOT_geomtry_0_nunpairedes_0_charge_3 Charge: 3 Unpaired_Electrons: 1 XTB_Unpaired_Electrons: 0 XTB_Charge: 3
    95   105     1     0     0
SMALL
NoCharges
****
Generated from Architector

@<TRIPOS>ATOM
     1 Yb1      -0.3321    0.2766    0.7064   Yb        1 RES1   0.0000
     2 C1       -0.7241   -6.4784   -1.3615   C.3       1 RES1   0.0000
     3 C2       -0.8720   -7.1998   -0.0319   C.3       1 RES1   0.0000
     4 C3       -0.1474   -6.5717    1.1562   C.3       1 RES1   0.0000
     5 C4       -0.6942   -5.2282    1.6687   C.3       1 RES1   0.0000
     6 C5       -0.1243   -4.0268    0.8599   C.3       1 RES1   0.0000
     7 C6       -0.4260   -2.7082    1.4769   C.ar      1 RES1   0.0000
     8 N1       -1.2969   -1.8838    0.8606   N.ar      1 RES1   0.0000
     9 N2       -1.9015   -0.8948    1.5579   N.ar      1 RES1   0.0000
    10 C7       -1.3436   -0.5041    2.7015   C.ar      1 RES1   0.0000
    11 C8       -1.6623    0.9044    3.1863   C.ar      1 RES1   0.0000
    12 C9       -2.4983    1.4795    4.1299   C.ar      1 RES1   0.0000
    13 C10      -2.3757    2.8599    4.3216   C.ar      1 RES1   0.0000
    14 C11      -1.4156    3.6117    3.6464   C.ar      1 RES1   0.0000
    15 C12      -0.6384    2.9782    2.6783   C.ar      1 RES1   0.0000
    16 C13       0.4636    3.5130    1.8157   C.ar      1 RES1   0.0000
    17 C14       1.0064    4.7971    1.7519   C.ar      1 RES1   0.0000
    18 C15       2.0932    5.0167    0.9088   C.ar      1 RES1   0.0000
    19 C16       2.6579    3.9755    0.1699   C.ar      1 RES1   0.0000
    20 C17       2.0561    2.7263    0.2718   C.ar      1 RES1   0.0000
    21 C18       2.3806    1.3953   -0.3195   C.ar      1 RES1   0.0000
    22 N3        1.2601    0.6697   -0.5403   N.ar      1 RES1   0.0000
    23 N4        1.3593   -0.5592   -1.0333   N.ar      1 RES1   0.0000
    24 C19       2.5385   -1.1066   -1.3148   C.ar      1 RES1   0.0000
    25 C20       2.4687   -2.2161   -2.3000   C.3       1 RES1   0.0000
    26 C21       3.3978   -3.4177   -2.1725   C.3       1 RES1   0.0000
    27 C22       3.1709   -4.1846   -0.8732   C.3       1 RES1   0.0000
    28 C23       4.3689   -5.0652   -0.5273   C.3       1 RES1   0.0000
    29 C24       4.2556   -5.6043    0.8887   C.3       1 RES1   0.0000
    30 C25       3.6468   -0.4877   -0.6127   C.ar      1 RES1   0.0000
    31 C26       4.8050   -1.2221   -0.0673   C.3       1 RES1   0.0000
    32 C27       6.0860   -0.3723   -0.0568   C.3       1 RES1   0.0000
    33 C28       6.1670    0.5365    1.1634   C.3       1 RES1   0.0000
    34 C29       7.3505    1.4975    1.0785   C.3       1 RES1   0.0000
    35 C30       7.1015    2.6253    0.0908   C.3       1 RES1   0.0000
    36 N5        3.5310    0.7804   -0.2698   N.ar      1 RES1   0.0000
    37 N6        0.9858    2.5381    1.0581   N.ar      1 RES1   0.0000
    38 N7       -0.8232    1.6597    2.4590   N.ar      1 RES1   0.0000
    39 N8       -0.1079   -0.9274    3.0296   N.ar      1 RES1   0.0000
    40 C31       0.2695   -2.1467    2.5901   C.ar      1 RES1   0.0000
    41 C32       1.6315   -2.6458    2.9797   C.3       1 RES1   0.0000
    42 C33       2.2052   -1.9950    4.2474   C.3       1 RES1   0.0000
    43 C34       1.6424   -2.5997    5.5317   C.3       1 RES1   0.0000
    44 C35       0.1774   -2.2670    5.8164   C.3       1 RES1   0.0000
    45 C36      -0.8376   -3.2055    5.1821   C.3       1 RES1   0.0000
    46 H1       -1.0383   -7.1346   -2.1676   H         1 RES1   0.0000
    47 H2        0.3079   -6.1881   -1.5526   H         1 RES1   0.0000
    48 H3       -1.3678   -5.6016   -1.4053   H         1 RES1   0.0000
    49 H4       -0.4519   -8.2051   -0.1555   H         1 RES1   0.0000
    50 H5       -1.9322   -7.3505    0.1907   H         1 RES1   0.0000
    51 H6        0.9191   -6.4860    0.9316   H         1 RES1   0.0000
    52 H7       -0.2400   -7.2817    1.9793   H         1 RES1   0.0000
    53 H8       -0.4182   -5.1362    2.7186   H         1 RES1   0.0000
    54 H9       -1.7806   -5.2223    1.6067   H         1 RES1   0.0000
    55 H10      -0.5649   -4.0407   -0.1366   H         1 RES1   0.0000
    56 H11       0.9560   -4.1751    0.7909   H         1 RES1   0.0000
    57 H12      -3.2217    0.9086    4.6937   H         1 RES1   0.0000
    58 H13      -3.0350    3.3567    5.0184   H         1 RES1   0.0000
    59 H14      -1.3045    4.6617    3.8795   H         1 RES1   0.0000
    60 H15       0.6269    5.6079    2.3497   H         1 RES1   0.0000
    61 H16       2.5095    6.0112    0.8339   H         1 RES1   0.0000
    62 H17       3.4975    4.1542   -0.4843   H         1 RES1   0.0000
    63 H18       2.6791   -1.7230   -3.2602   H         1 RES1   0.0000
    64 H19       1.4258   -2.5524   -2.3446   H         1 RES1   0.0000
    65 H20       4.4345   -3.0991   -2.2522   H         1 RES1   0.0000
    66 H21       3.2060   -4.0732   -3.0198   H         1 RES1   0.0000
    67 H22       2.2799   -4.8079   -0.9670   H         1 RES1   0.0000
    68 H23       2.9929   -3.4734   -0.0546   H         1 RES1   0.0000
    69 H24       5.2927   -4.4905   -0.6178   H         1 RES1   0.0000
    70 H25       4.4292   -5.8868   -1.2393   H         1 RES1   0.0000
    71 H26       4.2472   -4.7905    1.6120   H         1 RES1   0.0000
    72 H27       5.1048   -6.2345    1.1203   H         1 RES1   0.0000
    73 H28       3.3520   -6.1963    1.0055   H         1 RES1   0.0000
    74 H29       4.9542   -2.1507   -0.6036   H         1 RES1   0.0000
    75 H30       4.5662   -1.4664    0.9757   H         1 RES1   0.0000
    76 H31       6.1346    0.2247   -0.9666   H         1 RES1   0.0000
    77 H32       6.9313   -1.0590   -0.0556   H         1 RES1   0.0000
    78 H33       6.2615   -0.0746    2.0605   H         1 RES1   0.0000
    79 H34       5.2444    1.1153    1.2424   H         1 RES1   0.0000
    80 H35       8.2583    0.9535    0.8065   H         1 RES1   0.0000
    81 H36       7.5439    1.9342    2.0643   H         1 RES1   0.0000
    82 H37       6.9655    2.2407   -0.9210   H         1 RES1   0.0000
    83 H38       7.9421    3.3152    0.0719   H         1 RES1   0.0000
    84 H39       6.1960    3.1704    0.3632   H         1 RES1   0.0000
    85 H40       2.2933   -2.4296    2.1203   H         1 RES1   0.0000
    86 H41       1.6218   -3.7343    3.1119   H         1 RES1   0.0000
    87 H42       2.0446   -0.9129    4.2170   H         1 RES1   0.0000
    88 H43       3.2845   -2.1589    4.2496   H         1 RES1   0.0000
    89 H44       2.2465   -2.2213    6.3533   H         1 RES1   0.0000
    90 H45       1.7778   -3.6817    5.5077   H         1 RES1   0.0000
    91 H46      -0.0323   -1.2380    5.5082   H         1 RES1   0.0000
    92 H47       0.0238   -2.3228    6.8936   H         1 RES1   0.0000
    93 H48      -0.8162   -3.1653    4.0821   H         1 RES1   0.0000
    94 H49      -1.8458   -2.9406    5.5044   H         1 RES1   0.0000
    95 H50      -0.6430   -4.2378    5.4695   H         1 RES1   0.0000
@<TRIPOS>BOND
     1     1     8    1
     2     1     9    1
     3     1    22    1
     4     1    23    1
     5     1    36    1
     6     1    37    1
     7     1    38    1
     8     1    39    1
     9     2     3    1
    10     2    46    1
    11     2    47    1
    12     2    48    1
    13     3     4    1
    14     3    49    1
    15     3    50    1
    16     4     5    1
    17     4    51    1
    18     4    52    1
    19     5     6    1
    20     5    53    1
    21     5    54    1
    22     6     7    1
    23     6    55    1
    24     6    56    1
    25     7     8    1
    26     7    40    2
    27     8     9    2
    28     9    10    1
    29    10    11    1
    30    10    39    2
    31    11    12    1
    32    11    38    2
    33    12    13    2
    34    12    57    1
    35    13    14    1
    36    13    58    1
    37    14    15    2
    38    14    59    1
    39    15    16    1
    40    15    38    1
    41    16    17    1
    42    16    37    2
    43    17    18    2
    44    17    60    1
    45    18    19    1
    46    18    61    1
    47    19    20    2
    48    19    62    1
    49    20    21    1
    50    20    37    1
    51    21    22    1
    52    21    36    2
    53    22    23    2
    54    23    24    1
    55    24    25    1
    56    24    30    2
    57    25    26    1
    58    25    63    1
    59    25    64    1
    60    26    27    1
    61    26    65    1
    62    26    66    1
    63    27    28    1
    64    27    67    1
    65    27    68    1
    66    28    29    1
    67    28    69    1
    68    28    70    1
    69    29    71    1
    70    29    72    1
    71    29    73    1
    72    30    31    1
    73    30    36    1
    74    31    32    1
    75    31    74    1
    76    31    75    1
    77    32    33    1
    78    32    76    1
    79    32    77    1
    80    33    34    1
    81    33    78    1
    82    33    79    1
    83    34    35    1
    84    34    80    1
    85    34    81    1
    86    35    82    1
    87    35    83    1
    88    35    84    1
    89    39    40    1
    90    40    41    1
    91    41    42    1
    92    41    85    1
    93    41    86    1
    94    42    43    1
    95    42    87    1
    96    42    88    1
    97    43    44    1
    98    43    89    1
    99    43    90    1
   100    44    45    1
   101    44    91    1
   102    44    92    1
   103    45    93    1
   104    45    94    1
   105    45    95    1
@<TRIPOS>SUBSTRUCTURE
     1 RES1       95 GROUP             0 ****  ****    0  
