@<TRIPOS>MOLECULE
ICIGOT_geomtry_0_nunpairedes_0_charge_3 Charge: 3 Unpaired_Electrons: 1 XTB_Unpaired_Electrons: 0 XTB_Charge: 3
   233   236     1     0     0
SMALL
NoCharges
****
Generated from Architector

@<TRIPOS>ATOM
     1 Yb1      -0.0387   -0.1565   -0.3724   Yb        1 RES1   0.0000
     2 C1        2.2299   -0.9545   -4.2633   C.3       1 RES1   0.0000
     3 C2        1.8986   -0.7251   -5.7355   C.3       1 RES1   0.0000
     4 C3        0.6156   -1.4257   -6.2040   C.3       1 RES1   0.0000
     5 C4       -0.5865   -0.4998   -6.3924   C.3       1 RES1   0.0000
     6 C5       -1.1654    0.0906   -5.0996   C.3       1 RES1   0.0000
     7 C6       -0.6306    1.4849   -4.7580   C.3       1 RES1   0.0000
     8 N1       -1.4432    2.0623   -3.6836   N.am      1 RES1   0.0000
     9 C7       -2.4954    3.0039   -4.0489   C.3       1 RES1   0.0000
    10 C8       -3.9281    2.4502   -3.9928   C.3       1 RES1   0.0000
    11 C9       -4.9410    3.3123   -4.7788   C.3       1 RES1   0.0000
    12 C10      -4.7189    4.8080   -4.5497   C.3       1 RES1   0.0000
    13 C11      -5.0725    2.8804   -6.2513   C.3       1 RES1   0.0000
    14 C12      -3.8094    2.6907   -7.0961   C.3       1 RES1   0.0000
    15 C13      -3.1795    4.0028   -7.5582   C.3       1 RES1   0.0000
    16 C14      -1.8593    3.8330   -8.3185   C.3       1 RES1   0.0000
    17 C15      -2.0103    2.9330   -9.5428   C.3       1 RES1   0.0000
    18 C16      -1.3489    5.2132   -8.7326   C.3       1 RES1   0.0000
    19 C17      -1.2283    1.6273   -2.4603   C.2       1 RES1   0.0000
    20 O1       -0.2698    0.8617   -2.1836   O.2       1 RES1   0.0000
    21 C18      -2.2133    2.0004   -1.3601   C.3       1 RES1   0.0000
    22 O2       -1.6962    1.5865   -0.0935   O.3       1 RES1   0.0000
    23 C19      -2.7374    1.3041    0.8339   C.3       1 RES1   0.0000
    24 C20      -3.1934   -0.1343    0.5753   C.2       1 RES1   0.0000
    25 O3       -2.5011   -0.7645   -0.2636   O.2       1 RES1   0.0000
    26 N2       -4.2438   -0.6409    1.1938   N.am      1 RES1   0.0000
    27 C21      -5.0233    0.0084    2.2507   C.3       1 RES1   0.0000
    28 C22      -5.5585    1.4242    2.0244   C.3       1 RES1   0.0000
    29 C23      -6.1310    1.6900    0.6327   C.3       1 RES1   0.0000
    30 C24      -6.3576    3.1891    0.4218   C.3       1 RES1   0.0000
    31 C25      -6.8177    3.5032   -0.9990   C.3       1 RES1   0.0000
    32 C26      -7.0845    4.9888   -1.1891   C.3       1 RES1   0.0000
    33 C27      -4.7054   -1.9894    0.8345   C.3       1 RES1   0.0000
    34 C28      -4.8046   -2.9519    2.0279   C.3       1 RES1   0.0000
    35 C29      -3.5686   -3.8358    2.2908   C.3       1 RES1   0.0000
    36 C30      -3.8656   -5.2774    1.8846   C.3       1 RES1   0.0000
    37 C31      -3.1416   -3.7908    3.7665   C.3       1 RES1   0.0000
    38 C32      -2.2748   -2.5770    4.1165   C.3       1 RES1   0.0000
    39 C33      -2.0857   -2.3433    5.6240   C.3       1 RES1   0.0000
    40 C34      -3.0584   -1.3370    6.2510   C.3       1 RES1   0.0000
    41 C35      -4.5029   -1.8329    6.2788   C.3       1 RES1   0.0000
    42 C36      -2.5878   -1.0006    7.6664   C.3       1 RES1   0.0000
    43 H1        3.1695   -0.4630   -4.0220   H         1 RES1   0.0000
    44 H2        2.3560   -2.0213   -4.0922   H         1 RES1   0.0000
    45 H3        1.4590   -0.5732   -3.5856   H         1 RES1   0.0000
    46 H4        2.7334   -1.1022   -6.3256   H         1 RES1   0.0000
    47 H5        1.8300    0.3424   -5.9407   H         1 RES1   0.0000
    48 H6        0.3472   -2.2260   -5.5086   H         1 RES1   0.0000
    49 H7        0.8030   -1.8985   -7.1689   H         1 RES1   0.0000
    50 H8       -1.3721   -1.0764   -6.8848   H         1 RES1   0.0000
    51 H9       -0.3118    0.3081   -7.0721   H         1 RES1   0.0000
    52 H10      -0.9677   -0.5787   -4.2586   H         1 RES1   0.0000
    53 H11      -2.2483    0.1724   -5.2094   H         1 RES1   0.0000
    54 H12      -0.6939    2.1328   -5.6330   H         1 RES1   0.0000
    55 H13       0.4090    1.4308   -4.4281   H         1 RES1   0.0000
    56 H14      -2.2925    3.3137   -5.0725   H         1 RES1   0.0000
    57 H15      -2.4204    3.8882   -3.4111   H         1 RES1   0.0000
    58 H16      -4.2772    2.3969   -2.9595   H         1 RES1   0.0000
    59 H17      -3.9443    1.4392   -4.4009   H         1 RES1   0.0000
    60 H18      -5.9218    3.0920   -4.3423   H         1 RES1   0.0000
    61 H19      -3.7655    5.1642   -4.9241   H         1 RES1   0.0000
    62 H20      -4.7751    5.0314   -3.4845   H         1 RES1   0.0000
    63 H21      -5.4951    5.3792   -5.0503   H         1 RES1   0.0000
    64 H22      -5.7175    3.5967   -6.7594   H         1 RES1   0.0000
    65 H23      -5.6052    1.9262   -6.2493   H         1 RES1   0.0000
    66 H24      -4.1018    2.1262   -7.9835   H         1 RES1   0.0000
    67 H25      -3.0803    2.0721   -6.5667   H         1 RES1   0.0000
    68 H26      -2.9908    4.6565   -6.7054   H         1 RES1   0.0000
    69 H27      -3.8942    4.5170   -8.2021   H         1 RES1   0.0000
    70 H28      -1.1194    3.3781   -7.6408   H         1 RES1   0.0000
    71 H29      -2.8282    3.2816  -10.1690   H         1 RES1   0.0000
    72 H30      -2.2078    1.9022   -9.2546   H         1 RES1   0.0000
    73 H31      -1.0995    2.9491  -10.1377   H         1 RES1   0.0000
    74 H32      -2.0519    5.6819   -9.4180   H         1 RES1   0.0000
    75 H33      -0.3865    5.1383   -9.2331   H         1 RES1   0.0000
    76 H34      -1.2335    5.8628   -7.8655   H         1 RES1   0.0000
    77 H35      -3.1481    1.4666   -1.5712   H         1 RES1   0.0000
    78 H36      -2.4010    3.0808   -1.3458   H         1 RES1   0.0000
    79 H37      -3.5633    2.0083    0.7112   H         1 RES1   0.0000
    80 H38      -2.3053    1.4135    1.8354   H         1 RES1   0.0000
    81 H39      -4.4308    0.0163    3.1713   H         1 RES1   0.0000
    82 H40      -5.8841   -0.6379    2.4174   H         1 RES1   0.0000
    83 H41      -4.8034    2.1724    2.2709   H         1 RES1   0.0000
    84 H42      -6.3612    1.5572    2.7497   H         1 RES1   0.0000
    85 H43      -7.0793    1.1654    0.5164   H         1 RES1   0.0000
    86 H44      -5.4615    1.3078   -0.1456   H         1 RES1   0.0000
    87 H45      -5.4349    3.7428    0.6334   H         1 RES1   0.0000
    88 H46      -7.1114    3.5375    1.1290   H         1 RES1   0.0000
    89 H47      -7.7280    2.9420   -1.2077   H         1 RES1   0.0000
    90 H48      -6.0560    3.1693   -1.7106   H         1 RES1   0.0000
    91 H49      -7.8702    5.3207   -0.5178   H         1 RES1   0.0000
    92 H50      -7.4055    5.1865   -2.2069   H         1 RES1   0.0000
    93 H51      -6.1912    5.5736   -0.9805   H         1 RES1   0.0000
    94 H52      -4.0306   -2.3918    0.0739   H         1 RES1   0.0000
    95 H53      -5.6905   -1.8649    0.3737   H         1 RES1   0.0000
    96 H54      -5.6550   -3.6107    1.8544   H         1 RES1   0.0000
    97 H55      -5.0316   -2.3921    2.9319   H         1 RES1   0.0000
    98 H56      -2.7377   -3.4736    1.6687   H         1 RES1   0.0000
    99 H57      -4.6790   -5.6694    2.4875   H         1 RES1   0.0000
   100 H58      -2.9989   -5.9140    2.0393   H         1 RES1   0.0000
   101 H59      -4.1532   -5.3342    0.8378   H         1 RES1   0.0000
   102 H60      -2.5689   -4.6879    4.0042   H         1 RES1   0.0000
   103 H61      -4.0349   -3.8117    4.3869   H         1 RES1   0.0000
   104 H62      -2.6934   -1.6706    3.6598   H         1 RES1   0.0000
   105 H63      -1.2789   -2.7570    3.6909   H         1 RES1   0.0000
   106 H64      -1.0752   -1.9604    5.7931   H         1 RES1   0.0000
   107 H65      -2.1524   -3.2948    6.1504   H         1 RES1   0.0000
   108 H66      -3.0196   -0.4143    5.6521   H         1 RES1   0.0000
   109 H67      -4.5657   -2.8219    6.7267   H         1 RES1   0.0000
   110 H68      -4.9336   -1.8732    5.2794   H         1 RES1   0.0000
   111 H69      -5.1110   -1.1579    6.8762   H         1 RES1   0.0000
   112 H70      -2.5644   -1.8944    8.2863   H         1 RES1   0.0000
   113 H71      -3.2588   -0.2817    8.1298   H         1 RES1   0.0000
   114 H72      -1.5885   -0.5673    7.6488   H         1 RES1   0.0000
   115 C37       4.9714   -0.7378    4.1384   C.3       1 RES1   0.0000
   116 C38       5.2716   -2.2209    3.9590   C.3       1 RES1   0.0000
   117 C39       6.4252   -2.4421    2.9792   C.3       1 RES1   0.0000
   118 C40       6.0415   -2.3714    1.4946   C.3       1 RES1   0.0000
   119 C41       5.4537   -3.6834    0.9591   C.3       1 RES1   0.0000
   120 C42       3.9283   -3.7437    0.9134   C.3       1 RES1   0.0000
   121 N3        3.3057   -2.8602   -0.0625   N.am      1 RES1   0.0000
   122 C43       3.6695   -3.1065   -1.4574   C.3       1 RES1   0.0000
   123 C44       3.3381   -4.4960   -2.0160   C.3       1 RES1   0.0000
   124 C45       1.8837   -4.6693   -2.4945   C.3       1 RES1   0.0000
   125 C46       1.8644   -5.3574   -3.8601   C.3       1 RES1   0.0000
   126 C47       0.9981   -5.4715   -1.5356   C.3       1 RES1   0.0000
   127 C48       0.6204   -4.7582   -0.2393   C.3       1 RES1   0.0000
   128 C49      -0.4528   -5.5101    0.5603   C.3       1 RES1   0.0000
   129 C50       0.0548   -6.5706    1.5529   C.3       1 RES1   0.0000
   130 C51       0.7549   -7.7520    0.8858   C.3       1 RES1   0.0000
   131 C52       0.9496   -5.9536    2.6287   C.3       1 RES1   0.0000
   132 C53       2.4636   -1.8959    0.2413   C.2       1 RES1   0.0000
   133 O4        1.8142   -1.2496   -0.6248   O.2       1 RES1   0.0000
   134 C54       2.3029   -1.4763    1.7082   C.3       1 RES1   0.0000
   135 O5        1.3381   -0.4270    1.7538   O.3       1 RES1   0.0000
   136 C55       1.5947    0.6367    2.6687   C.3       1 RES1   0.0000
   137 C56       1.2171    1.9351    1.9419   C.2       1 RES1   0.0000
   138 O6        0.8266    1.8126    0.7577   O.2       1 RES1   0.0000
   139 N4        1.3567    3.0780    2.5880   N.am      1 RES1   0.0000
   140 C57       1.7199    3.1660    3.9984   C.3       1 RES1   0.0000
   141 C58       3.2205    3.0359    4.3171   C.3       1 RES1   0.0000
   142 C59       4.2006    3.6382    3.3028   C.3       1 RES1   0.0000
   143 C60       4.4167    2.7994    2.0408   C.3       1 RES1   0.0000
   144 C61       5.4874    3.3994    1.1314   C.3       1 RES1   0.0000
   145 C62       5.5207    2.7113   -0.2268   C.3       1 RES1   0.0000
   146 C63       1.3180    4.3767    1.9063   C.3       1 RES1   0.0000
   147 C64      -0.0782    4.9635    1.6838   C.3       1 RES1   0.0000
   148 C65      -0.6821    4.6352    0.3116   C.3       1 RES1   0.0000
   149 C66      -2.1162    5.1731    0.2977   C.3       1 RES1   0.0000
   150 C67       0.1106    5.2618   -0.8507   C.3       1 RES1   0.0000
   151 C68       1.1827    4.3829   -1.5066   C.3       1 RES1   0.0000
   152 C69       2.0069    5.1519   -2.5501   C.3       1 RES1   0.0000
   153 C70       3.2306    5.8991   -1.9951   C.3       1 RES1   0.0000
   154 C71       2.8737    7.0951   -1.1118   C.3       1 RES1   0.0000
   155 C72       4.1092    6.3665   -3.1567   C.3       1 RES1   0.0000
   156 H73       4.0256   -0.5835    4.6536   H         1 RES1   0.0000
   157 H74       5.7534   -0.2741    4.7315   H         1 RES1   0.0000
   158 H75       4.9509   -0.2243    3.1771   H         1 RES1   0.0000
   159 H76       5.5400   -2.6373    4.9284   H         1 RES1   0.0000
   160 H77       4.3810   -2.7552    3.6245   H         1 RES1   0.0000
   161 H78       7.1915   -1.6943    3.1861   H         1 RES1   0.0000
   162 H79       6.8819   -3.4154    3.1614   H         1 RES1   0.0000
   163 H80       5.3474   -1.5504    1.3008   H         1 RES1   0.0000
   164 H81       6.9474   -2.1522    0.9309   H         1 RES1   0.0000
   165 H82       5.8467   -3.9003   -0.0328   H         1 RES1   0.0000
   166 H83       5.7789   -4.5009    1.6019   H         1 RES1   0.0000
   167 H84       3.6406   -4.7601    0.6341   H         1 RES1   0.0000
   168 H85       3.5226   -3.5371    1.8977   H         1 RES1   0.0000
   169 H86       3.1804   -2.3413   -2.0613   H         1 RES1   0.0000
   170 H87       4.7466   -2.9364   -1.5308   H         1 RES1   0.0000
   171 H88       3.9986   -4.6437   -2.8720   H         1 RES1   0.0000
   172 H89       3.5958   -5.2812   -1.3062   H         1 RES1   0.0000
   173 H90       1.4548   -3.6636   -2.6128   H         1 RES1   0.0000
   174 H91       2.3440   -6.3302   -3.8016   H         1 RES1   0.0000
   175 H92       0.8423   -5.5117   -4.1946   H         1 RES1   0.0000
   176 H93       2.3815   -4.7646   -4.6099   H         1 RES1   0.0000
   177 H94       0.0754   -5.7204   -2.0637   H         1 RES1   0.0000
   178 H95       1.4970   -6.4124   -1.3153   H         1 RES1   0.0000
   179 H96       1.4964   -4.6237    0.3883   H         1 RES1   0.0000
   180 H97       0.2472   -3.7540   -0.4847   H         1 RES1   0.0000
   181 H98      -1.0278   -4.7864    1.1463   H         1 RES1   0.0000
   182 H99      -1.1510   -5.9866   -0.1300   H         1 RES1   0.0000
   183 H100     -0.8371   -6.9648    2.0536   H         1 RES1   0.0000
   184 H101      1.7598   -7.4899    0.5633   H         1 RES1   0.0000
   185 H102      0.8386   -8.5763    1.5901   H         1 RES1   0.0000
   186 H103      0.1896   -8.1032    0.0259   H         1 RES1   0.0000
   187 H104      1.9197   -5.6725    2.2223   H         1 RES1   0.0000
   188 H105      0.4819   -5.0731    3.0709   H         1 RES1   0.0000
   189 H106      1.1248   -6.6769    3.4196   H         1 RES1   0.0000
   190 H107      1.9525   -2.3040    2.3406   H         1 RES1   0.0000
   191 H108      3.2810   -1.1398    2.0681   H         1 RES1   0.0000
   192 H109      1.0021    0.4854    3.5821   H         1 RES1   0.0000
   193 H110      2.6544    0.6941    2.9367   H         1 RES1   0.0000
   194 H111      1.3842    4.1476    4.3332   H         1 RES1   0.0000
   195 H112      1.1584    2.4230    4.5666   H         1 RES1   0.0000
   196 H113      3.3589    3.5416    5.2737   H         1 RES1   0.0000
   197 H114      3.4996    1.9946    4.4752   H         1 RES1   0.0000
   198 H115      3.9029    4.6488    3.0246   H         1 RES1   0.0000
   199 H116      5.1656    3.7279    3.8061   H         1 RES1   0.0000
   200 H117      4.7234    1.7907    2.3334   H         1 RES1   0.0000
   201 H118      3.4982    2.7091    1.4589   H         1 RES1   0.0000
   202 H119      5.2852    4.4622    0.9948   H         1 RES1   0.0000
   203 H120      6.4615    3.3118    1.6105   H         1 RES1   0.0000
   204 H121      4.5648    2.8154   -0.7380   H         1 RES1   0.0000
   205 H122      6.2871    3.1584   -0.8510   H         1 RES1   0.0000
   206 H123      5.7420    1.6509   -0.1221   H         1 RES1   0.0000
   207 H124      1.8955    5.0603    2.5250   H         1 RES1   0.0000
   208 H125      1.8257    4.2833    0.9496   H         1 RES1   0.0000
   209 H126     -0.7463    4.6145    2.4764   H         1 RES1   0.0000
   210 H127     -0.0164    6.0503    1.7856   H         1 RES1   0.0000
   211 H128     -0.6732    3.5480    0.1980   H         1 RES1   0.0000
   212 H129     -2.1094    6.2514    0.4370   H         1 RES1   0.0000
   213 H130     -2.6134    4.9830   -0.6517   H         1 RES1   0.0000
   214 H131     -2.7138    4.7424    1.0992   H         1 RES1   0.0000
   215 H132     -0.5950    5.5272   -1.6411   H         1 RES1   0.0000
   216 H133      0.5589    6.1922   -0.5158   H         1 RES1   0.0000
   217 H134      1.8770    3.9582   -0.7796   H         1 RES1   0.0000
   218 H135      0.6897    3.5263   -1.9848   H         1 RES1   0.0000
   219 H136      2.3797    4.4359   -3.2863   H         1 RES1   0.0000
   220 H137      1.3643    5.8556   -3.0812   H         1 RES1   0.0000
   221 H138      3.8175    5.1925   -1.3958   H         1 RES1   0.0000
   222 H139      2.1187    7.7178   -1.5872   H         1 RES1   0.0000
   223 H140      2.5138    6.7844   -0.1323   H         1 RES1   0.0000
   224 H141      3.7566    7.7105   -0.9555   H         1 RES1   0.0000
   225 H142      3.5648    7.0554   -3.7996   H         1 RES1   0.0000
   226 H143      4.9912    6.8796   -2.7804   H         1 RES1   0.0000
   227 H144      4.4450    5.5220   -3.7558   H         1 RES1   0.0000
   228 O7       -0.7377   -1.8307    1.3387   O.3       1 RES1   0.0000
   229 H145     -1.0008   -1.6432    2.2606   H         1 RES1   0.0000
   230 H146     -1.1839   -2.6732    1.1166   H         1 RES1   0.0000
   231 O8       -0.6051   -1.9829   -1.8815   O.3       1 RES1   0.0000
   232 H147     -1.4550   -2.3905   -2.1092   H         1 RES1   0.0000
   233 H148      0.0598   -2.3739   -2.4834   H         1 RES1   0.0000
@<TRIPOS>BOND
     1     1    20    1
     2     1    22    1
     3     1    25    1
     4     1   133    1
     5     1   135    1
     6     1   138    1
     7     1   228    1
     8     1   231    1
     9     2     3    1
    10     2    43    1
    11     2    44    1
    12     2    45    1
    13     3     4    1
    14     3    46    1
    15     3    47    1
    16     4     5    1
    17     4    48    1
    18     4    49    1
    19     5     6    1
    20     5    50    1
    21     5    51    1
    22     6     7    1
    23     6    52    1
    24     6    53    1
    25     7     8    1
    26     7    54    1
    27     7    55    1
    28     8     9    1
    29     8    19    1
    30     9    10    1
    31     9    56    1
    32     9    57    1
    33    10    11    1
    34    10    58    1
    35    10    59    1
    36    11    12    1
    37    11    13    1
    38    11    60    1
    39    12    61    1
    40    12    62    1
    41    12    63    1
    42    13    14    1
    43    13    64    1
    44    13    65    1
    45    14    15    1
    46    14    66    1
    47    14    67    1
    48    15    16    1
    49    15    68    1
    50    15    69    1
    51    16    17    1
    52    16    18    1
    53    16    70    1
    54    17    71    1
    55    17    72    1
    56    17    73    1
    57    18    74    1
    58    18    75    1
    59    18    76    1
    60    19    20    2
    61    19    21    1
    62    21    22    1
    63    21    77    1
    64    21    78    1
    65    22    23    1
    66    23    24    1
    67    23    79    1
    68    23    80    1
    69    24    25    2
    70    24    26    1
    71    26    27    1
    72    26    33    1
    73    27    28    1
    74    27    81    1
    75    27    82    1
    76    28    29    1
    77    28    83    1
    78    28    84    1
    79    29    30    1
    80    29    85    1
    81    29    86    1
    82    30    31    1
    83    30    87    1
    84    30    88    1
    85    31    32    1
    86    31    89    1
    87    31    90    1
    88    32    91    1
    89    32    92    1
    90    32    93    1
    91    33    34    1
    92    33    94    1
    93    33    95    1
    94    34    35    1
    95    34    96    1
    96    34    97    1
    97    35    36    1
    98    35    37    1
    99    35    98    1
   100    36    99    1
   101    36   100    1
   102    36   101    1
   103    37    38    1
   104    37   102    1
   105    37   103    1
   106    38    39    1
   107    38   104    1
   108    38   105    1
   109    39    40    1
   110    39   106    1
   111    39   107    1
   112    40    41    1
   113    40    42    1
   114    40   108    1
   115    41   109    1
   116    41   110    1
   117    41   111    1
   118    42   112    1
   119    42   113    1
   120    42   114    1
   121   115   116    1
   122   115   156    1
   123   115   157    1
   124   115   158    1
   125   116   117    1
   126   116   159    1
   127   116   160    1
   128   117   118    1
   129   117   161    1
   130   117   162    1
   131   118   119    1
   132   118   163    1
   133   118   164    1
   134   119   120    1
   135   119   165    1
   136   119   166    1
   137   120   121    1
   138   120   167    1
   139   120   168    1
   140   121   122    1
   141   121   132    1
   142   122   123    1
   143   122   169    1
   144   122   170    1
   145   123   124    1
   146   123   171    1
   147   123   172    1
   148   124   125    1
   149   124   126    1
   150   124   173    1
   151   125   174    1
   152   125   175    1
   153   125   176    1
   154   126   127    1
   155   126   177    1
   156   126   178    1
   157   127   128    1
   158   127   179    1
   159   127   180    1
   160   128   129    1
   161   128   181    1
   162   128   182    1
   163   129   130    1
   164   129   131    1
   165   129   183    1
   166   130   184    1
   167   130   185    1
   168   130   186    1
   169   131   187    1
   170   131   188    1
   171   131   189    1
   172   132   133    2
   173   132   134    1
   174   134   135    1
   175   134   190    1
   176   134   191    1
   177   135   136    1
   178   136   137    1
   179   136   192    1
   180   136   193    1
   181   137   138    2
   182   137   139    1
   183   139   140    1
   184   139   146    1
   185   140   141    1
   186   140   194    1
   187   140   195    1
   188   141   142    1
   189   141   196    1
   190   141   197    1
   191   142   143    1
   192   142   198    1
   193   142   199    1
   194   143   144    1
   195   143   200    1
   196   143   201    1
   197   144   145    1
   198   144   202    1
   199   144   203    1
   200   145   204    1
   201   145   205    1
   202   145   206    1
   203   146   147    1
   204   146   207    1
   205   146   208    1
   206   147   148    1
   207   147   209    1
   208   147   210    1
   209   148   149    1
   210   148   150    1
   211   148   211    1
   212   149   212    1
   213   149   213    1
   214   149   214    1
   215   150   151    1
   216   150   215    1
   217   150   216    1
   218   151   152    1
   219   151   217    1
   220   151   218    1
   221   152   153    1
   222   152   219    1
   223   152   220    1
   224   153   154    1
   225   153   155    1
   226   153   221    1
   227   154   222    1
   228   154   223    1
   229   154   224    1
   230   155   225    1
   231   155   226    1
   232   155   227    1
   233   228   229    1
   234   228   230    1
   235   231   232    1
   236   231   233    1
@<TRIPOS>SUBSTRUCTURE
     1 RES1      233 GROUP             0 ****  ****    0  
