@<TRIPOS>MOLECULE
YEMSEP_geometry_0_nunpairedes_0_charge_2 Charge: 2 Unpaired_Electrons: 1 XTB_Unpaired_Electrons: 0 XTB_Charge: 2
   131   143     1     0     0
SMALL
NoCharges
****
Generated from Architector

@<TRIPOS>ATOM
     1 Yb1      -0.1648   -0.0643    0.0801   Yb        1 RES1   0.0000
     2 C1        5.5579    4.2454   -1.5393   C.3       1 RES1   0.0000
     3 C2        5.9208    3.1196   -2.5022   C.3       1 RES1   0.0000
     4 C3        5.7291    1.7334   -1.8864   C.3       1 RES1   0.0000
     5 C4        6.5388    1.5323   -0.6061   C.3       1 RES1   0.0000
     6 C5        6.6161    0.0691   -0.1731   C.3       1 RES1   0.0000
     7 C6        5.2367   -0.5615    0.0126   C.3       1 RES1   0.0000
     8 C7        5.3425   -2.0376    0.3813   C.3       1 RES1   0.0000
     9 C8        3.9734   -2.6920    0.5363   C.3       1 RES1   0.0000
    10 N1        3.2120   -2.7819   -0.7123   N.am      1 RES1   0.0000
    11 C9        2.1171   -2.0230   -0.8281   C.2       1 RES1   0.0000
    12 O1        1.9034   -1.0609   -0.0551   O.2       1 RES1   0.0000
    13 C10       1.0097   -2.3463   -1.7906   C.ar      1 RES1   0.0000
    14 C11       0.7665   -3.5723   -2.4348   C.ar      1 RES1   0.0000
    15 C12      -0.4129   -3.7288   -3.1283   C.ar      1 RES1   0.0000
    16 C13      -1.3516   -2.6787   -3.2002   C.ar      1 RES1   0.0000
    17 C14      -2.6080   -2.7563   -3.8649   C.ar      1 RES1   0.0000
    18 C15      -3.4693   -1.7047   -3.8615   C.ar      1 RES1   0.0000
    19 C16      -3.1655   -0.4828   -3.1912   C.ar      1 RES1   0.0000
    20 C17      -4.0416    0.6190   -3.1425   C.ar      1 RES1   0.0000
    21 C18      -3.6664    1.7361   -2.4357   C.ar      1 RES1   0.0000
    22 C19      -2.4269    1.7505   -1.7866   C.ar      1 RES1   0.0000
    23 N2       -1.5752    0.7374   -1.8076   N.ar      1 RES1   0.0000
    24 C20      -1.9369   -0.3675   -2.5062   C.ar      1 RES1   0.0000
    25 C21      -1.0220   -1.4839   -2.5211   C.ar      1 RES1   0.0000
    26 N3        0.1259   -1.3503   -1.8366   N.ar      1 RES1   0.0000
    27 C22       3.7980   -3.4433   -1.8185   C.ar      1 RES1   0.0000
    28 C23       3.6946   -2.8726   -3.0845   C.ar      1 RES1   0.0000
    29 C24       4.3278   -3.4558   -4.1619   C.ar      1 RES1   0.0000
    30 C25       5.1250   -4.5852   -4.0096   C.ar      1 RES1   0.0000
    31 C26       5.8430   -5.1827   -5.1720   C.3       1 RES1   0.0000
    32 C27       5.2446   -5.1267   -2.7337   C.ar      1 RES1   0.0000
    33 C28       4.5763   -4.5843   -1.6546   C.ar      1 RES1   0.0000
    34 H1        5.4633    5.1879   -2.0722   H         1 RES1   0.0000
    35 H2        6.3283    4.3667   -0.7844   H         1 RES1   0.0000
    36 H3        4.6163    4.0293   -1.0353   H         1 RES1   0.0000
    37 H4        6.9586    3.2387   -2.8164   H         1 RES1   0.0000
    38 H5        5.2970    3.1884   -3.3973   H         1 RES1   0.0000
    39 H6        6.0280    0.9786   -2.6184   H         1 RES1   0.0000
    40 H7        4.6650    1.5928   -1.6711   H         1 RES1   0.0000
    41 H8        6.0957    2.1193    0.1994   H         1 RES1   0.0000
    42 H9        7.5540    1.8964   -0.7663   H         1 RES1   0.0000
    43 H10       7.1707    0.0071    0.7666   H         1 RES1   0.0000
    44 H11       7.1702   -0.5031   -0.9202   H         1 RES1   0.0000
    45 H12       4.6702   -0.4783   -0.9175   H         1 RES1   0.0000
    46 H13       4.6872   -0.0189    0.7890   H         1 RES1   0.0000
    47 H14       5.8864   -2.1469    1.3207   H         1 RES1   0.0000
    48 H15       5.9063   -2.5695   -0.3877   H         1 RES1   0.0000
    49 H16       3.3549   -2.1274    1.2380   H         1 RES1   0.0000
    50 H17       4.0986   -3.7022    0.9309   H         1 RES1   0.0000
    51 H18       1.4795   -4.3827   -2.3798   H         1 RES1   0.0000
    52 H19      -0.6348   -4.6726   -3.6017   H         1 RES1   0.0000
    53 H20      -2.8737   -3.6732   -4.3630   H         1 RES1   0.0000
    54 H21      -4.4234   -1.7827   -4.3579   H         1 RES1   0.0000
    55 H22      -4.9947    0.5794   -3.6496   H         1 RES1   0.0000
    56 H23      -4.3101    2.5982   -2.3786   H         1 RES1   0.0000
    57 H24      -2.1146    2.6331   -1.2419   H         1 RES1   0.0000
    58 H25       3.1311   -1.9584   -3.2134   H         1 RES1   0.0000
    59 H26       4.2254   -3.0090   -5.1356   H         1 RES1   0.0000
    60 H27       5.6397   -4.6328   -6.0864   H         1 RES1   0.0000
    61 H28       5.5443   -6.2195   -5.3211   H         1 RES1   0.0000
    62 H29       6.9161   -5.1691   -4.9902   H         1 RES1   0.0000
    63 H30       5.8759   -5.9869   -2.5807   H         1 RES1   0.0000
    64 H31       4.6691   -5.0555   -0.6889   H         1 RES1   0.0000
    65 C29       6.6582   -5.7179    3.1150   C.3       1 RES1   0.0000
    66 C30       5.2879   -5.3878    3.6955   C.3       1 RES1   0.0000
    67 C31       4.4258   -6.6421    3.8597   C.3       1 RES1   0.0000
    68 C32       3.1120   -6.4127    4.6161   C.3       1 RES1   0.0000
    69 C33       1.9120   -6.0635    3.7359   C.3       1 RES1   0.0000
    70 C34       2.0885   -4.7506    2.9723   C.3       1 RES1   0.0000
    71 C35       0.8130   -4.2914    2.2656   C.3       1 RES1   0.0000
    72 C36      -0.2260   -3.6492    3.1868   C.3       1 RES1   0.0000
    73 N4        0.2053   -2.3414    3.6963   N.am      1 RES1   0.0000
    74 C37       0.2543   -1.3590    2.8062   C.2       1 RES1   0.0000
    75 O2       -0.0854   -1.5926    1.6177   O.2       1 RES1   0.0000
    76 C38       0.7540    0.0394    3.0910   C.ar      1 RES1   0.0000
    77 C39       0.9031    0.7244    4.3107   C.ar      1 RES1   0.0000
    78 C40       1.2979    2.0468    4.2769   C.ar      1 RES1   0.0000
    79 C41       1.5434    2.6999    3.0531   C.ar      1 RES1   0.0000
    80 C42       1.9033    4.0733    2.9158   C.ar      1 RES1   0.0000
    81 C43       2.0973    4.6304    1.6929   C.ar      1 RES1   0.0000
    82 C44       1.9245    3.8843    0.4875   C.ar      1 RES1   0.0000
    83 C45       2.0851    4.4381   -0.7980   C.ar      1 RES1   0.0000
    84 C46       1.8275    3.6539   -1.8977   C.ar      1 RES1   0.0000
    85 C47       1.3729    2.3471   -1.7098   C.ar      1 RES1   0.0000
    86 N5        1.2109    1.7918   -0.5185   N.ar      1 RES1   0.0000
    87 C48       1.5224    2.5320    0.5720   C.ar      1 RES1   0.0000
    88 C49       1.3764    1.9287    1.8792   C.ar      1 RES1   0.0000
    89 N6        1.0089    0.6463    1.9360   N.ar      1 RES1   0.0000
    90 C50       0.0984   -2.1582    5.1101   C.ar      1 RES1   0.0000
    91 C51       1.1868   -2.2096    5.9678   C.ar      1 RES1   0.0000
    92 C52       0.9622   -2.1099    7.3284   C.ar      1 RES1   0.0000
    93 C53      -0.3212   -1.9700    7.8497   C.ar      1 RES1   0.0000
    94 C54      -0.5125   -1.8601    9.3239   C.3       1 RES1   0.0000
    95 C55      -1.3967   -1.9330    6.9700   C.ar      1 RES1   0.0000
    96 C56      -1.1908   -2.0178    5.6081   C.ar      1 RES1   0.0000
    97 H32       7.2390   -4.8114    2.9709   H         1 RES1   0.0000
    98 H33       6.5625   -6.2207    2.1565   H         1 RES1   0.0000
    99 H34       7.2067   -6.3717    3.7855   H         1 RES1   0.0000
   100 H35       4.7935   -4.6555    3.0513   H         1 RES1   0.0000
   101 H36       5.4160   -4.9245    4.6773   H         1 RES1   0.0000
   102 H37       5.0195   -7.3675    4.4179   H         1 RES1   0.0000
   103 H38       4.2161   -7.0826    2.8819   H         1 RES1   0.0000
   104 H39       3.2543   -5.6271    5.3598   H         1 RES1   0.0000
   105 H40       2.8589   -7.3246    5.1552   H         1 RES1   0.0000
   106 H41       1.0234   -6.0096    4.3696   H         1 RES1   0.0000
   107 H42       1.7499   -6.8667    3.0120   H         1 RES1   0.0000
   108 H43       2.8469   -4.9127    2.2051   H         1 RES1   0.0000
   109 H44       2.4478   -3.9677    3.6459   H         1 RES1   0.0000
   110 H45       0.3511   -5.1576    1.7903   H         1 RES1   0.0000
   111 H46       1.0594   -3.5795    1.4731   H         1 RES1   0.0000
   112 H47      -0.4283   -4.2801    4.0508   H         1 RES1   0.0000
   113 H48      -1.1477   -3.5144    2.6111   H         1 RES1   0.0000
   114 H49       0.6971    0.2476    5.2580   H         1 RES1   0.0000
   115 H50       1.4012    2.5972    5.2010   H         1 RES1   0.0000
   116 H51       2.0061    4.6762    3.8027   H         1 RES1   0.0000
   117 H52       2.3518    5.6756    1.6029   H         1 RES1   0.0000
   118 H53       2.3858    5.4680   -0.9238   H         1 RES1   0.0000
   119 H54       1.9573    4.0353   -2.8958   H         1 RES1   0.0000
   120 H55       1.1333    1.7297   -2.5673   H         1 RES1   0.0000
   121 H56       2.1894   -2.3116    5.5815   H         1 RES1   0.0000
   122 H57       1.7952   -2.1561    8.0080   H         1 RES1   0.0000
   123 H58      -0.1158   -2.7429    9.8210   H         1 RES1   0.0000
   124 H59      -1.5630   -1.7566    9.5762   H         1 RES1   0.0000
   125 H60       0.0303   -1.0005    9.7143   H         1 RES1   0.0000
   126 H61      -2.4064   -1.8508    7.3350   H         1 RES1   0.0000
   127 H62      -2.0189   -1.9780    4.9159   H         1 RES1   0.0000
   128 N7       -2.3737    0.4817    1.1012   N.3       1 RES1   0.0000
   129 O3       -3.3879    0.7464    1.6560   O.2       1 RES1   0.0000
   130 O4       -2.2247   -0.5733    0.4645   O.co2     1 RES1   0.0000
   131 O5       -1.4076    1.2733    1.1129   O.co2     1 RES1   0.0000
@<TRIPOS>BOND
     1     1    12    1
     2     1    23    1
     3     1    26    1
     4     1    75    1
     5     1    86    1
     6     1    89    1
     7     1   130    1
     8     1   131    1
     9     2     3    1
    10     2    34    1
    11     2    35    1
    12     2    36    1
    13     3     4    1
    14     3    37    1
    15     3    38    1
    16     4     5    1
    17     4    39    1
    18     4    40    1
    19     5     6    1
    20     5    41    1
    21     5    42    1
    22     6     7    1
    23     6    43    1
    24     6    44    1
    25     7     8    1
    26     7    45    1
    27     7    46    1
    28     8     9    1
    29     8    47    1
    30     8    48    1
    31     9    10    1
    32     9    49    1
    33     9    50    1
    34    10    11    1
    35    10    27    1
    36    11    12    2
    37    11    13    1
    38    13    14    1
    39    13    26    2
    40    14    15    2
    41    14    51    1
    42    15    16    1
    43    15    52    1
    44    16    17    1
    45    16    25    2
    46    17    18    2
    47    17    53    1
    48    18    19    1
    49    18    54    1
    50    19    20    1
    51    19    24    2
    52    20    21    2
    53    20    55    1
    54    21    22    1
    55    21    56    1
    56    22    23    2
    57    22    57    1
    58    23    24    1
    59    24    25    1
    60    25    26    1
    61    27    28    1
    62    27    33    2
    63    28    29    2
    64    28    58    1
    65    29    30    1
    66    29    59    1
    67    30    31    1
    68    30    32    2
    69    31    60    1
    70    31    61    1
    71    31    62    1
    72    32    33    1
    73    32    63    1
    74    33    64    1
    75    65    66    1
    76    65    97    1
    77    65    98    1
    78    65    99    1
    79    66    67    1
    80    66   100    1
    81    66   101    1
    82    67    68    1
    83    67   102    1
    84    67   103    1
    85    68    69    1
    86    68   104    1
    87    68   105    1
    88    69    70    1
    89    69   106    1
    90    69   107    1
    91    70    71    1
    92    70   108    1
    93    70   109    1
    94    71    72    1
    95    71   110    1
    96    71   111    1
    97    72    73    1
    98    72   112    1
    99    72   113    1
   100    73    74    1
   101    73    90    1
   102    74    75    2
   103    74    76    1
   104    76    77    1
   105    76    89    2
   106    77    78    2
   107    77   114    1
   108    78    79    1
   109    78   115    1
   110    79    80    1
   111    79    88    2
   112    80    81    2
   113    80   116    1
   114    81    82    1
   115    81   117    1
   116    82    83    1
   117    82    87    2
   118    83    84    2
   119    83   118    1
   120    84    85    1
   121    84   119    1
   122    85    86    2
   123    85   120    1
   124    86    87    1
   125    87    88    1
   126    88    89    1
   127    90    91    1
   128    90    96    2
   129    91    92    2
   130    91   121    1
   131    92    93    1
   132    92   122    1
   133    93    94    1
   134    93    95    2
   135    94   123    1
   136    94   124    1
   137    94   125    1
   138    95    96    1
   139    95   126    1
   140    96   127    1
   141   128   129    2
   142   128   130    1
   143   128   131    1
@<TRIPOS>SUBSTRUCTURE
     1 RES1      131 GROUP             0 ****  ****    0  
