@<TRIPOS>MOLECULE
ICIGOT_geomtry_0_nunpairedes_0_charge_2 Charge: 2 Unpaired_Electrons: 1 XTB_Unpaired_Electrons: 0 XTB_Charge: 2
   119   129     1     0     0
SMALL
NoCharges
****
Generated from Architector

@<TRIPOS>ATOM
     1 Yb1      -0.1251   -0.0840    0.0616   Yb        1 RES1   0.0000
     2 C1       -0.1133   -1.3443   -5.6448   C.3       1 RES1   0.0000
     3 C2        0.6352   -0.5828   -4.5628   C.3       1 RES1   0.0000
     4 N1        1.3138   -1.4611   -3.6068   N.am      1 RES1   0.0000
     5 C3        1.4211   -1.0488   -2.3531   C.2       1 RES1   0.0000
     6 O1        0.8732    0.0074   -1.9599   O.2       1 RES1   0.0000
     7 C4        2.2595   -1.7669   -1.3312   C.ar      1 RES1   0.0000
     8 C5        3.3108   -2.6597   -1.5085   C.ar      1 RES1   0.0000
     9 C6        3.9667   -3.1272   -0.3772   C.ar      1 RES1   0.0000
    10 C7        3.5919   -2.6815    0.8812   C.ar      1 RES1   0.0000
    11 C8        2.5850   -1.7210    0.9698   C.ar      1 RES1   0.0000
    12 C9        1.9805   -1.0675    2.1862   C.2       1 RES1   0.0000
    13 O2        0.8036   -0.6701    2.0455   O.2       1 RES1   0.0000
    14 N2        2.6669   -0.9202    3.3227   N.am      1 RES1   0.0000
    15 C10       4.1262   -0.9807    3.3247   C.3       1 RES1   0.0000
    16 C11       4.6309   -2.1352    4.1769   C.3       1 RES1   0.0000
    17 C12       1.9010   -0.6703    4.5157   C.ar      1 RES1   0.0000
    18 C13       0.6596   -1.3129    4.5847   C.ar      1 RES1   0.0000
    19 C14      -0.2517   -1.0342    5.5812   C.ar      1 RES1   0.0000
    20 C15       0.0779   -0.1100    6.5578   C.ar      1 RES1   0.0000
    21 C16       1.3451    0.4323    6.5594   C.ar      1 RES1   0.0000
    22 C17       2.2928    0.1658    5.5711   C.ar      1 RES1   0.0000
    23 C18       3.6468    0.7878    5.7383   C.3       1 RES1   0.0000
    24 N3        1.9415   -1.3153   -0.1201   N.ar      1 RES1   0.0000
    25 C19       1.7791   -2.7107   -4.0978   C.ar      1 RES1   0.0000
    26 C20       2.6914   -2.6671   -5.1517   C.ar      1 RES1   0.0000
    27 C21       3.0954   -3.8276   -5.7784   C.ar      1 RES1   0.0000
    28 C22       2.6125   -5.0491   -5.3273   C.ar      1 RES1   0.0000
    29 C23       1.7490   -5.0911   -4.2505   C.ar      1 RES1   0.0000
    30 C24       1.2828   -3.9305   -3.6322   C.ar      1 RES1   0.0000
    31 C25       0.2849   -4.0936   -2.5261   C.3       1 RES1   0.0000
    32 H1       -0.6853   -0.6369   -6.2356   H         1 RES1   0.0000
    33 H2       -0.8000   -2.0590   -5.2054   H         1 RES1   0.0000
    34 H3        0.5513   -1.8814   -6.3118   H         1 RES1   0.0000
    35 H4       -0.0780    0.0121   -3.9847   H         1 RES1   0.0000
    36 H5        1.3759    0.0980   -5.0018   H         1 RES1   0.0000
    37 H6        3.6228   -2.9849   -2.4853   H         1 RES1   0.0000
    38 H7        4.7878   -3.8196   -0.4810   H         1 RES1   0.0000
    39 H8        4.0782   -3.0758    1.7551   H         1 RES1   0.0000
    40 H9        4.5164   -0.0373    3.7065   H         1 RES1   0.0000
    41 H10       4.4791   -1.0564    2.2936   H         1 RES1   0.0000
    42 H11       4.0944   -2.1565    5.1203   H         1 RES1   0.0000
    43 H12       5.6923   -2.0096    4.3624   H         1 RES1   0.0000
    44 H13       4.4735   -3.0944    3.6924   H         1 RES1   0.0000
    45 H14       0.3795   -2.0345    3.8315   H         1 RES1   0.0000
    46 H15      -1.2072   -1.5327    5.5816   H         1 RES1   0.0000
    47 H16      -0.6315    0.1649    7.3227   H         1 RES1   0.0000
    48 H17       1.6180    1.1022    7.3586   H         1 RES1   0.0000
    49 H18       3.6644    1.4011    6.6334   H         1 RES1   0.0000
    50 H19       3.9004    1.4298    4.8991   H         1 RES1   0.0000
    51 H20       4.4176    0.0295    5.8614   H         1 RES1   0.0000
    52 H21       3.0850   -1.7130   -5.4715   H         1 RES1   0.0000
    53 H22       3.7803   -3.7802   -6.6116   H         1 RES1   0.0000
    54 H23       2.8928   -5.9682   -5.8221   H         1 RES1   0.0000
    55 H24       1.4071   -6.0446   -3.8756   H         1 RES1   0.0000
    56 H25      -0.5355   -4.7211   -2.8770   H         1 RES1   0.0000
    57 H26      -0.1238   -3.1588   -2.1424   H         1 RES1   0.0000
    58 H27       0.7515   -4.6240   -1.6956   H         1 RES1   0.0000
    59 C26       2.9135    3.3903    3.0593   C.3       1 RES1   0.0000
    60 C27       1.6960    2.4990    3.2579   C.3       1 RES1   0.0000
    61 N4        0.5124    3.0532    2.6091   N.am      1 RES1   0.0000
    62 C28       0.1505    2.5669    1.4323   C.2       1 RES1   0.0000
    63 O3        0.8805    1.7514    0.8177   O.2       1 RES1   0.0000
    64 C29      -1.1653    2.8868    0.7662   C.ar      1 RES1   0.0000
    65 C30      -2.0450    3.9460    0.9722   C.ar      1 RES1   0.0000
    66 C31      -3.1657    4.0216    0.1561   C.ar      1 RES1   0.0000
    67 C32      -3.4102    3.0508   -0.8073   C.ar      1 RES1   0.0000
    68 C33      -2.5184    1.9862   -0.9112   C.ar      1 RES1   0.0000
    69 C34      -2.5480    0.7550   -1.7982   C.2       1 RES1   0.0000
    70 O4       -1.7633   -0.1623   -1.4702   O.2       1 RES1   0.0000
    71 N5       -3.3064    0.6587   -2.8753   N.am      1 RES1   0.0000
    72 C35      -3.1963   -0.4725   -3.8087   C.3       1 RES1   0.0000
    73 C36      -3.0706   -1.8633   -3.2003   C.3       1 RES1   0.0000
    74 C37      -4.2477    1.6266   -3.3458   C.ar      1 RES1   0.0000
    75 C38      -3.8404    2.5929   -4.2545   C.ar      1 RES1   0.0000
    76 C39      -4.7916    3.4011   -4.8532   C.ar      1 RES1   0.0000
    77 C40      -6.1311    3.2291   -4.5416   C.ar      1 RES1   0.0000
    78 C41      -6.5197    2.2953   -3.5918   C.ar      1 RES1   0.0000
    79 C42      -5.5866    1.4673   -2.9811   C.ar      1 RES1   0.0000
    80 C43      -5.9689    0.4510   -1.9493   C.3       1 RES1   0.0000
    81 N6       -1.4283    1.9488   -0.1467   N.ar      1 RES1   0.0000
    82 C44      -0.1788    4.0159    3.4069   C.ar      1 RES1   0.0000
    83 C45      -0.9305    3.5481    4.4775   C.ar      1 RES1   0.0000
    84 C46      -1.5126    4.4409    5.3575   C.ar      1 RES1   0.0000
    85 C47      -1.3418    5.8032    5.1674   C.ar      1 RES1   0.0000
    86 C48      -0.6185    6.2610    4.0785   C.ar      1 RES1   0.0000
    87 C49      -0.0091    5.3846    3.1842   C.ar      1 RES1   0.0000
    88 C50       0.7726    5.9089    2.0167   C.3       1 RES1   0.0000
    89 H28       3.8102    2.9043    3.4322   H         1 RES1   0.0000
    90 H29       2.7810    4.3227    3.6003   H         1 RES1   0.0000
    91 H30       3.0532    3.5855    2.0006   H         1 RES1   0.0000
    92 H31       1.4647    2.4032    4.3205   H         1 RES1   0.0000
    93 H32       1.8666    1.5070    2.8378   H         1 RES1   0.0000
    94 H33      -1.8781    4.6912    1.7311   H         1 RES1   0.0000
    95 H34      -3.8552    4.8410    0.2860   H         1 RES1   0.0000
    96 H35      -4.2672    3.1375   -1.4522   H         1 RES1   0.0000
    97 H36      -2.3251   -0.2798   -4.4407   H         1 RES1   0.0000
    98 H37      -4.0885   -0.4305   -4.4392   H         1 RES1   0.0000
    99 H38      -2.0973   -2.0054   -2.7418   H         1 RES1   0.0000
   100 H39      -3.2020   -2.5876   -3.9989   H         1 RES1   0.0000
   101 H40      -3.8324   -2.0515   -2.4506   H         1 RES1   0.0000
   102 H41      -2.7920    2.6988   -4.4885   H         1 RES1   0.0000
   103 H42      -4.4819    4.1453   -5.5703   H         1 RES1   0.0000
   104 H43      -6.8840    3.8137   -5.0499   H         1 RES1   0.0000
   105 H44      -7.5608    2.1992   -3.3270   H         1 RES1   0.0000
   106 H45      -7.0175    0.5515   -1.6876   H         1 RES1   0.0000
   107 H46      -5.3703    0.5797   -1.0462   H         1 RES1   0.0000
   108 H47      -5.8034   -0.5640   -2.3103   H         1 RES1   0.0000
   109 H48      -1.0581    2.4841    4.6101   H         1 RES1   0.0000
   110 H49      -2.0998    4.0725    6.1836   H         1 RES1   0.0000
   111 H50      -1.7674    6.5083    5.8671   H         1 RES1   0.0000
   112 H51      -0.5216    7.3238    3.9198   H         1 RES1   0.0000
   113 H52       0.5837    6.9720    1.8946   H         1 RES1   0.0000
   114 H53       0.4938    5.3970    1.0965   H         1 RES1   0.0000
   115 H54       1.8442    5.7740    2.1569   H         1 RES1   0.0000
   116 N7       -1.8359   -1.5895    0.8033   N.3       1 RES1   0.0000
   117 O5       -2.8065   -2.2563    0.9288   O.2       1 RES1   0.0000
   118 O6       -0.8206   -2.0194    0.2257   O.co2     1 RES1   0.0000
   119 O7       -1.7820   -0.4315    1.2482   O.co2     1 RES1   0.0000
@<TRIPOS>BOND
     1     1     6    1
     2     1    13    1
     3     1    24    1
     4     1    63    1
     5     1    70    1
     6     1    81    1
     7     1   118    1
     8     1   119    1
     9     2     3    1
    10     2    32    1
    11     2    33    1
    12     2    34    1
    13     3     4    1
    14     3    35    1
    15     3    36    1
    16     4     5    1
    17     4    25    1
    18     5     6    2
    19     5     7    1
    20     7     8    1
    21     7    24    2
    22     8     9    2
    23     8    37    1
    24     9    10    1
    25     9    38    1
    26    10    11    2
    27    10    39    1
    28    11    12    1
    29    11    24    1
    30    12    13    2
    31    12    14    1
    32    14    15    1
    33    14    17    1
    34    15    16    1
    35    15    40    1
    36    15    41    1
    37    16    42    1
    38    16    43    1
    39    16    44    1
    40    17    18    1
    41    17    22    2
    42    18    19    2
    43    18    45    1
    44    19    20    1
    45    19    46    1
    46    20    21    2
    47    20    47    1
    48    21    22    1
    49    21    48    1
    50    22    23    1
    51    23    49    1
    52    23    50    1
    53    23    51    1
    54    25    26    1
    55    25    30    2
    56    26    27    2
    57    26    52    1
    58    27    28    1
    59    27    53    1
    60    28    29    2
    61    28    54    1
    62    29    30    1
    63    29    55    1
    64    30    31    1
    65    31    56    1
    66    31    57    1
    67    31    58    1
    68    59    60    1
    69    59    89    1
    70    59    90    1
    71    59    91    1
    72    60    61    1
    73    60    92    1
    74    60    93    1
    75    61    62    1
    76    61    82    1
    77    62    63    2
    78    62    64    1
    79    64    65    1
    80    64    81    2
    81    65    66    2
    82    65    94    1
    83    66    67    1
    84    66    95    1
    85    67    68    2
    86    67    96    1
    87    68    69    1
    88    68    81    1
    89    69    70    2
    90    69    71    1
    91    71    72    1
    92    71    74    1
    93    72    73    1
    94    72    97    1
    95    72    98    1
    96    73    99    1
    97    73   100    1
    98    73   101    1
    99    74    75    1
   100    74    79    2
   101    75    76    2
   102    75   102    1
   103    76    77    1
   104    76   103    1
   105    77    78    2
   106    77   104    1
   107    78    79    1
   108    78   105    1
   109    79    80    1
   110    80   106    1
   111    80   107    1
   112    80   108    1
   113    82    83    1
   114    82    87    2
   115    83    84    2
   116    83   109    1
   117    84    85    1
   118    84   110    1
   119    85    86    2
   120    85   111    1
   121    86    87    1
   122    86   112    1
   123    87    88    1
   124    88   113    1
   125    88   114    1
   126    88   115    1
   127   116   117    2
   128   116   118    1
   129   116   119    1
@<TRIPOS>SUBSTRUCTURE
     1 RES1      119 GROUP             0 ****  ****    0  
