@<TRIPOS>MOLECULE
ICIGOT_geomtry_0_nunpairedes_0_charge_2 Charge: 2 Unpaired_Electrons: 1 XTB_Unpaired_Electrons: 0 XTB_Charge: 2
   243   247     1     0     0
SMALL
NoCharges
****
Generated from Architector

@<TRIPOS>ATOM
     1 Yb1      -0.0098   -0.0069    0.0071   Yb        1 RES1   0.0000
     2 C1        9.5993    0.7673   -2.6517   C.3       1 RES1   0.0000
     3 C2        8.4046    0.2328   -3.4342   C.3       1 RES1   0.0000
     4 C3        7.5554    1.3670   -4.0089   C.3       1 RES1   0.0000
     5 C4        6.5888    0.9612   -5.1254   C.3       1 RES1   0.0000
     6 C5        5.3511    0.1631   -4.7015   C.3       1 RES1   0.0000
     7 C6        5.5717   -1.3496   -4.6221   C.3       1 RES1   0.0000
     8 C7        4.2846   -2.1255   -4.2790   C.3       1 RES1   0.0000
     9 C8        4.1792   -2.6406   -2.8372   C.3       1 RES1   0.0000
    10 N1        3.7297   -1.6374   -1.8894   N.am      1 RES1   0.0000
    11 C9        4.7994   -0.9186   -1.2046   C.3       1 RES1   0.0000
    12 C10       5.4705   -1.7867   -0.1354   C.3       1 RES1   0.0000
    13 C11       4.5432   -2.1357    1.0272   C.3       1 RES1   0.0000
    14 C12       4.1915   -0.9460    1.9205   C.3       1 RES1   0.0000
    15 C13       5.3926   -0.3255    2.6449   C.3       1 RES1   0.0000
    16 C14       6.0094    0.9106    1.9817   C.3       1 RES1   0.0000
    17 C15       5.1097    2.1468    1.9536   C.3       1 RES1   0.0000
    18 C16       4.8485    2.7135    3.3453   C.3       1 RES1   0.0000
    19 C17       2.4641   -1.3087   -1.6759   C.2       1 RES1   0.0000
    20 O1        2.1184   -0.3515   -0.9435   O.2       1 RES1   0.0000
    21 C18       1.3041   -2.1146   -2.2795   C.3       1 RES1   0.0000
    22 C19       0.5805   -1.2844   -3.3413   C.3       1 RES1   0.0000
    23 O2        0.3384   -2.2456   -1.2382   O.3       1 RES1   0.0000
    24 C20       0.3619   -3.3984   -0.3908   C.3       1 RES1   0.0000
    25 C21      -0.9530   -4.1605   -0.6107   C.3       1 RES1   0.0000
    26 C22       0.5905   -2.8591    1.0459   C.2       1 RES1   0.0000
    27 O3        0.8815   -1.6436    1.1432   O.2       1 RES1   0.0000
    28 N2        0.4804   -3.6196    2.1228   N.am      1 RES1   0.0000
    29 C23       0.4428   -5.0742    2.1116   C.3       1 RES1   0.0000
    30 C24       1.8021   -5.5970    1.6586   C.3       1 RES1   0.0000
    31 C25       1.9477   -7.1141    1.7014   C.3       1 RES1   0.0000
    32 C26       3.3768   -7.5148    1.3205   C.3       1 RES1   0.0000
    33 C27       4.3722   -7.5787    2.4823   C.3       1 RES1   0.0000
    34 C28       4.7260   -6.2502    3.1679   C.3       1 RES1   0.0000
    35 C29       3.8861   -5.9508    4.4141   C.3       1 RES1   0.0000
    36 C30       4.0897   -4.5227    4.9151   C.3       1 RES1   0.0000
    37 C31       0.7184   -2.9814    3.4205   C.3       1 RES1   0.0000
    38 C32      -0.5580   -2.4032    4.0581   C.3       1 RES1   0.0000
    39 C33      -0.9330   -3.0503    5.3965   C.3       1 RES1   0.0000
    40 C34      -1.3335   -4.5244    5.3194   C.3       1 RES1   0.0000
    41 C35      -2.5026   -4.7755    4.3707   C.3       1 RES1   0.0000
    42 C36      -2.8243   -6.2604    4.2130   C.3       1 RES1   0.0000
    43 C37      -4.0234   -6.5057    3.2959   C.3       1 RES1   0.0000
    44 C38      -3.7839   -6.0876    1.8492   C.3       1 RES1   0.0000
    45 H1       10.1785   -0.0524   -2.2341   H         1 RES1   0.0000
    46 H2        9.2734    1.4090   -1.8347   H         1 RES1   0.0000
    47 H3       10.2513    1.3451   -3.3027   H         1 RES1   0.0000
    48 H4        7.8030   -0.3940   -2.7715   H         1 RES1   0.0000
    49 H5        8.7670   -0.3867   -4.2555   H         1 RES1   0.0000
    50 H6        8.2392    2.1110   -4.4273   H         1 RES1   0.0000
    51 H7        6.9987    1.8596   -3.2058   H         1 RES1   0.0000
    52 H8        7.1343    0.4029   -5.8868   H         1 RES1   0.0000
    53 H9        6.2377    1.8826   -5.5956   H         1 RES1   0.0000
    54 H10       4.5826    0.3272   -5.4587   H         1 RES1   0.0000
    55 H11       4.9739    0.5555   -3.7539   H         1 RES1   0.0000
    56 H12       6.3645   -1.5960   -3.9155   H         1 RES1   0.0000
    57 H13       5.9231   -1.6750   -5.6034   H         1 RES1   0.0000
    58 H14       4.2274   -3.0048   -4.9223   H         1 RES1   0.0000
    59 H15       3.4166   -1.5016   -4.4927   H         1 RES1   0.0000
    60 H16       5.1654   -2.9721   -2.5129   H         1 RES1   0.0000
    61 H17       3.5142   -3.5056   -2.8051   H         1 RES1   0.0000
    62 H18       4.3655   -0.0241   -0.7576   H         1 RES1   0.0000
    63 H19       5.5376   -0.6164   -1.9488   H         1 RES1   0.0000
    64 H20       6.3351   -1.2480    0.2504   H         1 RES1   0.0000
    65 H21       5.8506   -2.7082   -0.5856   H         1 RES1   0.0000
    66 H22       5.0315   -2.9030    1.6316   H         1 RES1   0.0000
    67 H23       3.6152   -2.5707    0.6379   H         1 RES1   0.0000
    68 H24       3.4836   -1.3046    2.6690   H         1 RES1   0.0000
    69 H25       3.6667   -0.1952    1.3292   H         1 RES1   0.0000
    70 H26       6.1751   -1.0802    2.7535   H         1 RES1   0.0000
    71 H27       5.0905   -0.0426    3.6535   H         1 RES1   0.0000
    72 H28       6.3179    0.6867    0.9593   H         1 RES1   0.0000
    73 H29       6.9119    1.1686    2.5409   H         1 RES1   0.0000
    74 H30       4.1611    1.9210    1.4577   H         1 RES1   0.0000
    75 H31       5.6153    2.9044    1.3521   H         1 RES1   0.0000
    76 H32       4.2334    2.0387    3.9367   H         1 RES1   0.0000
    77 H33       4.3416    3.6759    3.2833   H         1 RES1   0.0000
    78 H34       5.7900    2.8655    3.8680   H         1 RES1   0.0000
    79 H35       1.5868   -3.0979   -2.6648   H         1 RES1   0.0000
    80 H36       0.2319   -0.3539   -2.8605   H         1 RES1   0.0000
    81 H37      -0.2834   -1.8365   -3.7058   H         1 RES1   0.0000
    82 H38       1.2268   -1.0371   -4.1769   H         1 RES1   0.0000
    83 H39       1.2147   -4.0289   -0.6658   H         1 RES1   0.0000
    84 H40      -1.7243   -3.8397    0.0841   H         1 RES1   0.0000
    85 H41      -0.8203   -5.2325   -0.5467   H         1 RES1   0.0000
    86 H42      -1.3150   -3.9384   -1.6133   H         1 RES1   0.0000
    87 H43      -0.3804   -5.4415    1.5018   H         1 RES1   0.0000
    88 H44       0.2608   -5.3989    3.1350   H         1 RES1   0.0000
    89 H45       2.5566   -5.1288    2.2861   H         1 RES1   0.0000
    90 H46       2.0079   -5.2787    0.6350   H         1 RES1   0.0000
    91 H47       1.2404   -7.5477    0.9902   H         1 RES1   0.0000
    92 H48       1.7060   -7.5085    2.6894   H         1 RES1   0.0000
    93 H49       3.7483   -6.8201    0.5618   H         1 RES1   0.0000
    94 H50       3.3473   -8.5051    0.8615   H         1 RES1   0.0000
    95 H51       5.2916   -8.0061    2.0798   H         1 RES1   0.0000
    96 H52       3.9938   -8.2782    3.2268   H         1 RES1   0.0000
    97 H53       4.6468   -5.4281    2.4499   H         1 RES1   0.0000
    98 H54       5.7717   -6.2916    3.4809   H         1 RES1   0.0000
    99 H55       4.1715   -6.6509    5.2003   H         1 RES1   0.0000
   100 H56       2.8252   -6.1147    4.2152   H         1 RES1   0.0000
   101 H57       5.1213   -4.3657    5.2200   H         1 RES1   0.0000
   102 H58       3.4501   -4.3259    5.7729   H         1 RES1   0.0000
   103 H59       3.8537   -3.7942    4.1385   H         1 RES1   0.0000
   104 H60       1.4458   -2.1838    3.2653   H         1 RES1   0.0000
   105 H61       1.1683   -3.7268    4.0723   H         1 RES1   0.0000
   106 H62      -1.3920   -2.4995    3.3617   H         1 RES1   0.0000
   107 H63      -0.4179   -1.3344    4.2270   H         1 RES1   0.0000
   108 H64      -1.7706   -2.4869    5.8115   H         1 RES1   0.0000
   109 H65      -0.0953   -2.9469    6.0911   H         1 RES1   0.0000
   110 H66      -1.6139   -4.8550    6.3202   H         1 RES1   0.0000
   111 H67      -0.4783   -5.1357    5.0260   H         1 RES1   0.0000
   112 H68      -2.2770   -4.3648    3.3857   H         1 RES1   0.0000
   113 H69      -3.3832   -4.2570    4.7534   H         1 RES1   0.0000
   114 H70      -3.0407   -6.6863    5.1954   H         1 RES1   0.0000
   115 H71      -1.9522   -6.7860    3.8121   H         1 RES1   0.0000
   116 H72      -4.8871   -5.9671    3.6867   H         1 RES1   0.0000
   117 H73      -4.2617   -7.5694    3.3181   H         1 RES1   0.0000
   118 H74      -3.6920   -5.0078    1.7596   H         1 RES1   0.0000
   119 H75      -4.6195   -6.4024    1.2302   H         1 RES1   0.0000
   120 H76      -2.8792   -6.5542    1.4630   H         1 RES1   0.0000
   121 C39       5.3386    7.6355   -3.8237   C.3       1 RES1   0.0000
   122 C40       5.0216    7.3100   -2.3682   C.3       1 RES1   0.0000
   123 C41       5.9284    6.2031   -1.8297   C.3       1 RES1   0.0000
   124 C42       5.9728    6.0788   -0.3039   C.3       1 RES1   0.0000
   125 C43       4.7467    5.4531    0.3707   C.3       1 RES1   0.0000
   126 C44       3.6075    6.4328    0.6653   C.3       1 RES1   0.0000
   127 C45       2.4491    5.7792    1.4489   C.3       1 RES1   0.0000
   128 C46       1.1452    5.5473    0.6705   C.3       1 RES1   0.0000
   129 N3        1.1480    4.3286   -0.1190   N.am      1 RES1   0.0000
   130 C47       1.6467    4.4934   -1.4816   C.3       1 RES1   0.0000
   131 C48       0.6279    5.1985   -2.3807   C.3       1 RES1   0.0000
   132 C49      -0.6381    4.3747   -2.6079   C.3       1 RES1   0.0000
   133 C50      -0.4248    3.1270   -3.4663   C.3       1 RES1   0.0000
   134 C51       0.0297    3.4170   -4.9021   C.3       1 RES1   0.0000
   135 C52       1.5393    3.3521   -5.1592   C.3       1 RES1   0.0000
   136 C53       2.1676    1.9675   -4.9958   C.3       1 RES1   0.0000
   137 C54       1.6818    0.9768   -6.0484   C.3       1 RES1   0.0000
   138 C55       0.8190    3.1245    0.3256   C.2       1 RES1   0.0000
   139 O4        0.9616    2.0832   -0.3557   O.2       1 RES1   0.0000
   140 C56       0.2040    2.9113    1.7195   C.3       1 RES1   0.0000
   141 C57       1.2319    2.2577    2.6454   C.3       1 RES1   0.0000
   142 O5       -0.8060    1.9150    1.5698   O.3       1 RES1   0.0000
   143 C58      -2.1591    2.3313    1.3459   C.3       1 RES1   0.0000
   144 C59      -2.9920    1.8162    2.5267   C.3       1 RES1   0.0000
   145 C60      -2.5453    1.7837   -0.0520   C.2       1 RES1   0.0000
   146 O6       -1.6172    1.2626   -0.7161   O.2       1 RES1   0.0000
   147 N4       -3.7706    1.8516   -0.5416   N.am      1 RES1   0.0000
   148 C61      -4.8209    2.7129   -0.0219   C.3       1 RES1   0.0000
   149 C62      -4.4477    4.1658   -0.3032   C.3       1 RES1   0.0000
   150 C63      -5.4988    5.1763    0.1431   C.3       1 RES1   0.0000
   151 C64      -5.0840    6.5971   -0.2526   C.3       1 RES1   0.0000
   152 C65      -5.5159    7.0427   -1.6523   C.3       1 RES1   0.0000
   153 C66      -4.8564    6.3247   -2.8392   C.3       1 RES1   0.0000
   154 C67      -5.6774    5.1545   -3.3912   C.3       1 RES1   0.0000
   155 C68      -4.8724    4.3007   -4.3685   C.3       1 RES1   0.0000
   156 C69      -3.9983    1.2758   -1.8715   C.3       1 RES1   0.0000
   157 C70      -4.3884   -0.2126   -1.8303   C.3       1 RES1   0.0000
   158 C71      -5.7901   -0.5034   -2.3775   C.3       1 RES1   0.0000
   159 C72      -6.9417    0.0916   -1.5658   C.3       1 RES1   0.0000
   160 C73      -6.9296   -0.3446   -0.1030   C.3       1 RES1   0.0000
   161 C74      -8.0152    0.3431    0.7229   C.3       1 RES1   0.0000
   162 C75      -8.0374   -0.1351    2.1755   C.3       1 RES1   0.0000
   163 C76      -6.7814    0.2305    2.9588   C.3       1 RES1   0.0000
   164 H77       4.6762    8.4140   -4.1931   H         1 RES1   0.0000
   165 H78       5.2194    6.7558   -4.4535   H         1 RES1   0.0000
   166 H79       6.3623    7.9892   -3.9194   H         1 RES1   0.0000
   167 H80       3.9728    7.0118   -2.2958   H         1 RES1   0.0000
   168 H81       5.1645    8.2070   -1.7641   H         1 RES1   0.0000
   169 H82       6.9464    6.4193   -2.1666   H         1 RES1   0.0000
   170 H83       5.6431    5.2412   -2.2666   H         1 RES1   0.0000
   171 H84       6.1617    7.0606    0.1310   H         1 RES1   0.0000
   172 H85       6.8328    5.4514   -0.0585   H         1 RES1   0.0000
   173 H86       5.0755    5.0580    1.3345   H         1 RES1   0.0000
   174 H87       4.3930    4.6122   -0.2322   H         1 RES1   0.0000
   175 H88       3.2400    6.8973   -0.2492   H         1 RES1   0.0000
   176 H89       4.0269    7.2388    1.2696   H         1 RES1   0.0000
   177 H90       2.1911    6.4264    2.2884   H         1 RES1   0.0000
   178 H91       2.7830    4.8255    1.8582   H         1 RES1   0.0000
   179 H92       0.9931    6.3777   -0.0176   H         1 RES1   0.0000
   180 H93       0.3047    5.5358    1.3656   H         1 RES1   0.0000
   181 H94       1.8803    3.5019   -1.8721   H         1 RES1   0.0000
   182 H95       2.5659    5.0772   -1.4359   H         1 RES1   0.0000
   183 H96       1.0984    5.3988   -3.3419   H         1 RES1   0.0000
   184 H97       0.3573    6.1693   -1.9573   H         1 RES1   0.0000
   185 H98      -1.3808    5.0154   -3.0895   H         1 RES1   0.0000
   186 H99      -1.0531    4.0681   -1.6402   H         1 RES1   0.0000
   187 H100     -1.3790    2.5996   -3.5074   H         1 RES1   0.0000
   188 H101      0.2787    2.4601   -2.9661   H         1 RES1   0.0000
   189 H102     -0.3227    4.4090   -5.1957   H         1 RES1   0.0000
   190 H103     -0.4497    2.7043   -5.5737   H         1 RES1   0.0000
   191 H104      2.0729    4.0499   -4.5118   H         1 RES1   0.0000
   192 H105      1.7102    3.6755   -6.1891   H         1 RES1   0.0000
   193 H106      1.9754    1.5715   -3.9941   H         1 RES1   0.0000
   194 H107      3.2482    2.0879   -5.0930   H         1 RES1   0.0000
   195 H108      0.6308    0.7349   -5.9057   H         1 RES1   0.0000
   196 H109      2.2570    0.0523   -6.0054   H         1 RES1   0.0000
   197 H110      1.8042    1.3991   -7.0431   H         1 RES1   0.0000
   198 H111     -0.2203    3.8144    2.1670   H         1 RES1   0.0000
   199 H112      1.5291    1.2986    2.1887   H         1 RES1   0.0000
   200 H113      0.7771    2.0603    3.6140   H         1 RES1   0.0000
   201 H114      2.1099    2.8807    2.7823   H         1 RES1   0.0000
   202 H115     -2.1979    3.4261    1.3160   H         1 RES1   0.0000
   203 H116     -3.2604    0.7713    2.3990   H         1 RES1   0.0000
   204 H117     -3.8819    2.4087    2.6931   H         1 RES1   0.0000
   205 H118     -2.3835    1.8866    3.4277   H         1 RES1   0.0000
   206 H119     -5.0053    2.5157    1.0319   H         1 RES1   0.0000
   207 H120     -5.7349    2.4706   -0.5616   H         1 RES1   0.0000
   208 H121     -4.2628    4.2552   -1.3705   H         1 RES1   0.0000
   209 H122     -3.5096    4.4201    0.1949   H         1 RES1   0.0000
   210 H123     -5.5945    5.1113    1.2298   H         1 RES1   0.0000
   211 H124     -6.4736    4.9453   -0.2891   H         1 RES1   0.0000
   212 H125     -3.9982    6.6889   -0.1610   H         1 RES1   0.0000
   213 H126     -5.5263    7.2941    0.4621   H         1 RES1   0.0000
   214 H127     -5.2814    8.1056   -1.7268   H         1 RES1   0.0000
   215 H128     -6.5984    6.9484   -1.7294   H         1 RES1   0.0000
   216 H129     -3.8549    5.9855   -2.5571   H         1 RES1   0.0000
   217 H130     -4.7258    7.0445   -3.6504   H         1 RES1   0.0000
   218 H131     -6.5537    5.5554   -3.9019   H         1 RES1   0.0000
   219 H132     -6.0466    4.5234   -2.5804   H         1 RES1   0.0000
   220 H133     -4.5835    4.8834   -5.2398   H         1 RES1   0.0000
   221 H134     -5.4624    3.4524   -4.7090   H         1 RES1   0.0000
   222 H135     -3.9626    3.9193   -3.9028   H         1 RES1   0.0000
   223 H136     -3.0801    1.4027   -2.4474   H         1 RES1   0.0000
   224 H137     -4.7802    1.8610   -2.3497   H         1 RES1   0.0000
   225 H138     -4.3215   -0.5855   -0.8078   H         1 RES1   0.0000
   226 H139     -3.6708   -0.7838   -2.4205   H         1 RES1   0.0000
   227 H140     -5.9123   -1.5875   -2.4061   H         1 RES1   0.0000
   228 H141     -5.8571   -0.1411   -3.4068   H         1 RES1   0.0000
   229 H142     -7.8800   -0.2269   -2.0217   H         1 RES1   0.0000
   230 H143     -6.9270    1.1812   -1.6290   H         1 RES1   0.0000
   231 H144     -5.9609   -0.1228    0.3457   H         1 RES1   0.0000
   232 H145     -7.0755   -1.4250   -0.0573   H         1 RES1   0.0000
   233 H146     -8.9900    0.1420    0.2724   H         1 RES1   0.0000
   234 H147     -7.8625    1.4267    0.7040   H         1 RES1   0.0000
   235 H148     -8.1678   -1.2174    2.1916   H         1 RES1   0.0000
   236 H149     -8.9017    0.3082    2.6714   H         1 RES1   0.0000
   237 H150     -5.9121   -0.3028    2.5819   H         1 RES1   0.0000
   238 H151     -6.9084   -0.0330    4.0054   H         1 RES1   0.0000
   239 H152     -6.5947    1.3015    2.8981   H         1 RES1   0.0000
   240 N5       -2.1220   -1.0981    0.7642   N.3       1 RES1   0.0000
   241 O7       -3.1759   -1.5327    1.1228   O.2       1 RES1   0.0000
   242 O8       -1.3562   -0.5521    1.5641   O.co2     1 RES1   0.0000
   243 O9       -1.7451   -1.1987   -0.4040   O.co2     1 RES1   0.0000
@<TRIPOS>BOND
     1     1    20    1
     2     1    23    1
     3     1    27    1
     4     1   139    1
     5     1   142    1
     6     1   146    1
     7     1   242    1
     8     1   243    1
     9     2     3    1
    10     2    45    1
    11     2    46    1
    12     2    47    1
    13     3     4    1
    14     3    48    1
    15     3    49    1
    16     4     5    1
    17     4    50    1
    18     4    51    1
    19     5     6    1
    20     5    52    1
    21     5    53    1
    22     6     7    1
    23     6    54    1
    24     6    55    1
    25     7     8    1
    26     7    56    1
    27     7    57    1
    28     8     9    1
    29     8    58    1
    30     8    59    1
    31     9    10    1
    32     9    60    1
    33     9    61    1
    34    10    11    1
    35    10    19    1
    36    11    12    1
    37    11    62    1
    38    11    63    1
    39    12    13    1
    40    12    64    1
    41    12    65    1
    42    13    14    1
    43    13    66    1
    44    13    67    1
    45    14    15    1
    46    14    68    1
    47    14    69    1
    48    15    16    1
    49    15    70    1
    50    15    71    1
    51    16    17    1
    52    16    72    1
    53    16    73    1
    54    17    18    1
    55    17    74    1
    56    17    75    1
    57    18    76    1
    58    18    77    1
    59    18    78    1
    60    19    20    2
    61    19    21    1
    62    21    22    1
    63    21    23    1
    64    21    79    1
    65    22    80    1
    66    22    81    1
    67    22    82    1
    68    23    24    1
    69    24    25    1
    70    24    26    1
    71    24    83    1
    72    25    84    1
    73    25    85    1
    74    25    86    1
    75    26    27    2
    76    26    28    1
    77    28    29    1
    78    28    37    1
    79    29    30    1
    80    29    87    1
    81    29    88    1
    82    30    31    1
    83    30    89    1
    84    30    90    1
    85    31    32    1
    86    31    91    1
    87    31    92    1
    88    32    33    1
    89    32    93    1
    90    32    94    1
    91    33    34    1
    92    33    95    1
    93    33    96    1
    94    34    35    1
    95    34    97    1
    96    34    98    1
    97    35    36    1
    98    35    99    1
    99    35   100    1
   100    36   101    1
   101    36   102    1
   102    36   103    1
   103    37    38    1
   104    37   104    1
   105    37   105    1
   106    38    39    1
   107    38   106    1
   108    38   107    1
   109    39    40    1
   110    39   108    1
   111    39   109    1
   112    40    41    1
   113    40   110    1
   114    40   111    1
   115    41    42    1
   116    41   112    1
   117    41   113    1
   118    42    43    1
   119    42   114    1
   120    42   115    1
   121    43    44    1
   122    43   116    1
   123    43   117    1
   124    44   118    1
   125    44   119    1
   126    44   120    1
   127   121   122    1
   128   121   164    1
   129   121   165    1
   130   121   166    1
   131   122   123    1
   132   122   167    1
   133   122   168    1
   134   123   124    1
   135   123   169    1
   136   123   170    1
   137   124   125    1
   138   124   171    1
   139   124   172    1
   140   125   126    1
   141   125   173    1
   142   125   174    1
   143   126   127    1
   144   126   175    1
   145   126   176    1
   146   127   128    1
   147   127   177    1
   148   127   178    1
   149   128   129    1
   150   128   179    1
   151   128   180    1
   152   129   130    1
   153   129   138    1
   154   130   131    1
   155   130   181    1
   156   130   182    1
   157   131   132    1
   158   131   183    1
   159   131   184    1
   160   132   133    1
   161   132   185    1
   162   132   186    1
   163   133   134    1
   164   133   187    1
   165   133   188    1
   166   134   135    1
   167   134   189    1
   168   134   190    1
   169   135   136    1
   170   135   191    1
   171   135   192    1
   172   136   137    1
   173   136   193    1
   174   136   194    1
   175   137   195    1
   176   137   196    1
   177   137   197    1
   178   138   139    2
   179   138   140    1
   180   140   141    1
   181   140   142    1
   182   140   198    1
   183   141   199    1
   184   141   200    1
   185   141   201    1
   186   142   143    1
   187   143   144    1
   188   143   145    1
   189   143   202    1
   190   144   203    1
   191   144   204    1
   192   144   205    1
   193   145   146    2
   194   145   147    1
   195   147   148    1
   196   147   156    1
   197   148   149    1
   198   148   206    1
   199   148   207    1
   200   149   150    1
   201   149   208    1
   202   149   209    1
   203   150   151    1
   204   150   210    1
   205   150   211    1
   206   151   152    1
   207   151   212    1
   208   151   213    1
   209   152   153    1
   210   152   214    1
   211   152   215    1
   212   153   154    1
   213   153   216    1
   214   153   217    1
   215   154   155    1
   216   154   218    1
   217   154   219    1
   218   155   220    1
   219   155   221    1
   220   155   222    1
   221   156   157    1
   222   156   223    1
   223   156   224    1
   224   157   158    1
   225   157   225    1
   226   157   226    1
   227   158   159    1
   228   158   227    1
   229   158   228    1
   230   159   160    1
   231   159   229    1
   232   159   230    1
   233   160   161    1
   234   160   231    1
   235   160   232    1
   236   161   162    1
   237   161   233    1
   238   161   234    1
   239   162   163    1
   240   162   235    1
   241   162   236    1
   242   163   237    1
   243   163   238    1
   244   163   239    1
   245   240   241    2
   246   240   242    1
   247   240   243    1
@<TRIPOS>SUBSTRUCTURE
     1 RES1      243 GROUP             0 ****  ****    0  
