@<TRIPOS>MOLECULE
ICIGOT_geomtry_0_nunpairedes_0_charge_2 Charge: 2 Unpaired_Electrons: 1 XTB_Unpaired_Electrons: 0 XTB_Charge: 2
   115   129     1     0     0
SMALL
NoCharges
****
Generated from Architector

@<TRIPOS>ATOM
     1 Yb1      -0.6059   -0.3327    0.4787   Yb        1 RES1   0.0000
     2 C1        4.0674   -2.8087   -4.9059   C.3       1 RES1   0.0000
     3 C2        3.4747   -2.0900   -3.6998   C.3       1 RES1   0.0000
     4 C3        4.1356   -2.5480   -2.3942   C.3       1 RES1   0.0000
     5 C4        3.4956   -1.9194   -1.1531   C.3       1 RES1   0.0000
     6 C5        2.4346   -2.8343   -0.5245   C.3       1 RES1   0.0000
     7 C6        1.4070   -3.4037   -1.5174   C.3       1 RES1   0.0000
     8 N1        0.2658   -2.5691   -1.9257   N.ar      1 RES1   0.0000
     9 C7       -0.9729   -3.1730   -2.2048   C.ar      1 RES1   0.0000
    10 C8       -1.3219   -4.1978   -1.1955   C.ar      1 RES1   0.0000
    11 C9       -1.9784   -5.4032   -1.3929   C.ar      1 RES1   0.0000
    12 C10      -2.4578   -6.1199   -0.3078   C.ar      1 RES1   0.0000
    13 C11      -2.2465   -5.6795    0.9873   C.ar      1 RES1   0.0000
    14 C12      -1.5068   -4.5261    1.2010   C.ar      1 RES1   0.0000
    15 C13      -1.0765   -3.7761    0.1295   C.ar      1 RES1   0.0000
    16 C14      -1.9588   -2.5292   -2.9250   C.ar      1 RES1   0.0000
    17 C15      -3.2649   -3.1858   -3.1042   C.ar      1 RES1   0.0000
    18 C16      -3.4569   -4.2492   -3.9776   C.ar      1 RES1   0.0000
    19 C17      -4.7015   -4.8547   -4.0593   C.ar      1 RES1   0.0000
    20 C18      -5.7453   -4.4140   -3.2591   C.ar      1 RES1   0.0000
    21 C19      -5.5498   -3.3560   -2.3839   C.ar      1 RES1   0.0000
    22 C20      -4.3211   -2.7306   -2.3164   C.ar      1 RES1   0.0000
    23 C21      -1.9106   -1.1032   -3.0956   C.ar      1 RES1   0.0000
    24 C22      -2.9251   -0.1930   -3.5300   C.ar      1 RES1   0.0000
    25 C23      -3.0254    1.0639   -2.9187   C.ar      1 RES1   0.0000
    26 C24      -3.7074    2.3213   -3.1710   C.ar      1 RES1   0.0000
    27 C25      -3.4119    3.4627   -2.4769   C.ar      1 RES1   0.0000
    28 C26      -2.5476    3.5141   -1.2933   C.ar      1 RES1   0.0000
    29 C27      -1.7632    4.5191   -0.7147   C.ar      1 RES1   0.0000
    30 C28      -0.7455    4.1587    0.2173   C.ar      1 RES1   0.0000
    31 C29       0.5028    4.8264    0.4675   C.ar      1 RES1   0.0000
    32 C30       0.7564    6.2397    0.7047   C.ar      1 RES1   0.0000
    33 C31       1.5265    6.4710    1.8560   C.ar      1 RES1   0.0000
    34 C32       1.7891    7.7538    2.2904   C.ar      1 RES1   0.0000
    35 C33       1.3027    8.8316    1.5646   C.ar      1 RES1   0.0000
    36 C34       0.5561    8.6102    0.4160   C.ar      1 RES1   0.0000
    37 C35       0.2718    7.3264   -0.0118   C.ar      1 RES1   0.0000
    38 C36       1.6273    4.0097    0.6094   C.ar      1 RES1   0.0000
    39 C37       2.8536    4.3799   -0.1398   C.ar      1 RES1   0.0000
    40 C38       4.0065    4.9918    0.3224   C.ar      1 RES1   0.0000
    41 C39       5.0735    5.1726   -0.5457   C.ar      1 RES1   0.0000
    42 C40       4.9927    4.7475   -1.8608   C.ar      1 RES1   0.0000
    43 C41       3.8305    4.1574   -2.3297   C.ar      1 RES1   0.0000
    44 C42       2.7639    3.9719   -1.4774   C.ar      1 RES1   0.0000
    45 N2        1.5611    2.7050    1.0096   N.ar      1 RES1   0.0000
    46 C43       2.7085    1.7996    0.8527   C.3       1 RES1   0.0000
    47 C44       3.0416    0.8684    2.0224   C.3       1 RES1   0.0000
    48 C45       3.3588    1.6315    3.3077   C.3       1 RES1   0.0000
    49 C46       2.1289    2.0961    4.0882   C.3       1 RES1   0.0000
    50 C47       2.4932    2.6235    5.4764   C.3       1 RES1   0.0000
    51 C48       3.3035    3.9142    5.4258   C.3       1 RES1   0.0000
    52 C49       0.3637    2.1679    1.3212   C.ar      1 RES1   0.0000
    53 O1        0.2514    0.9862    1.7621   O.2       1 RES1   0.0000
    54 C50      -0.7823    2.8470    0.7592   C.ar      1 RES1   0.0000
    55 N3       -1.6249    1.9057    0.3043   N.ar      1 RES1   0.0000
    56 C51      -2.3110    2.2208   -0.7861   C.ar      1 RES1   0.0000
    57 C52      -2.2140    1.1896   -1.7738   C.ar      1 RES1   0.0000
    58 N4       -1.0660    0.5665   -1.6311   N.ar      1 RES1   0.0000
    59 C53      -0.8530   -0.5304   -2.3609   C.ar      1 RES1   0.0000
    60 C54       0.2648   -1.2349   -1.7976   C.ar      1 RES1   0.0000
    61 O2        0.9780   -0.5985   -0.9562   O.2       1 RES1   0.0000
    62 H1        3.5885   -2.4749   -5.8236   H         1 RES1   0.0000
    63 H2        3.9293   -3.8851   -4.8221   H         1 RES1   0.0000
    64 H3        5.1328   -2.6074   -4.9797   H         1 RES1   0.0000
    65 H4        2.3924   -2.2551   -3.6904   H         1 RES1   0.0000
    66 H5        3.6211   -1.0132   -3.8104   H         1 RES1   0.0000
    67 H6        5.1885   -2.2724   -2.4412   H         1 RES1   0.0000
    68 H7        4.1016   -3.6369   -2.3133   H         1 RES1   0.0000
    69 H8        3.0692   -0.9571   -1.4313   H         1 RES1   0.0000
    70 H9        4.2534   -1.7248   -0.3937   H         1 RES1   0.0000
    71 H10       1.9536   -2.3376    0.3363   H         1 RES1   0.0000
    72 H11       2.9617   -3.7042   -0.1267   H         1 RES1   0.0000
    73 H12       1.0037   -4.3405   -1.1352   H         1 RES1   0.0000
    74 H13       1.9470   -3.6388   -2.4366   H         1 RES1   0.0000
    75 H14      -2.1110   -5.8036   -2.3836   H         1 RES1   0.0000
    76 H15      -3.0090   -7.0280   -0.4707   H         1 RES1   0.0000
    77 H16      -2.6424   -6.2243    1.8263   H         1 RES1   0.0000
    78 H17      -1.2652   -4.2144    2.2060   H         1 RES1   0.0000
    79 H18      -0.5126   -2.8395    0.3347   H         1 RES1   0.0000
    80 H19      -2.6417   -4.5952   -4.5952   H         1 RES1   0.0000
    81 H20      -4.8578   -5.6698   -4.7510   H         1 RES1   0.0000
    82 H21      -6.7109   -4.8961   -3.3162   H         1 RES1   0.0000
    83 H22      -6.3623   -3.0129   -1.7604   H         1 RES1   0.0000
    84 H23      -4.1562   -1.9194   -1.6207   H         1 RES1   0.0000
    85 H24      -3.6294   -0.5022   -4.2889   H         1 RES1   0.0000
    86 H25      -4.3791    2.3825   -4.0129   H         1 RES1   0.0000
    87 H26      -3.8502    4.3926   -2.8132   H         1 RES1   0.0000
    88 H27      -1.8112    5.5240   -1.1054   H         1 RES1   0.0000
    89 H28       1.8732    5.6243    2.4326   H         1 RES1   0.0000
    90 H29       2.3548    7.9015    3.1979   H         1 RES1   0.0000
    91 H30       1.4932    9.8358    1.9118   H         1 RES1   0.0000
    92 H31       0.1899    9.4555   -0.1445   H         1 RES1   0.0000
    93 H32      -0.2856    7.1703   -0.9221   H         1 RES1   0.0000
    94 H33       4.0733    5.3206    1.3489   H         1 RES1   0.0000
    95 H34       5.9679    5.6517   -0.1868   H         1 RES1   0.0000
    96 H35       5.8251    4.8883   -2.5268   H         1 RES1   0.0000
    97 H36       3.7491    3.8545   -3.3625   H         1 RES1   0.0000
    98 H37       1.8517    3.4991   -1.8295   H         1 RES1   0.0000
    99 H38       3.5892    2.4113    0.6484   H         1 RES1   0.0000
   100 H39       2.4831    1.2010   -0.0411   H         1 RES1   0.0000
   101 H40       3.9244    0.3015    1.7099   H         1 RES1   0.0000
   102 H41       2.2391    0.1435    2.1917   H         1 RES1   0.0000
   103 H42       3.9776    2.4898    3.0438   H         1 RES1   0.0000
   104 H43       3.9470    0.9803    3.9548   H         1 RES1   0.0000
   105 H44       1.4371    1.2572    4.1954   H         1 RES1   0.0000
   106 H45       1.6046    2.8907    3.5512   H         1 RES1   0.0000
   107 H46       3.0548    1.8645    6.0221   H         1 RES1   0.0000
   108 H47       1.5722    2.8092    6.0304   H         1 RES1   0.0000
   109 H48       4.2563    3.7644    4.9238   H         1 RES1   0.0000
   110 H49       3.5105    4.2664    6.4329   H         1 RES1   0.0000
   111 H50       2.7510    4.6931    4.9016   H         1 RES1   0.0000
   112 N5       -2.8146   -0.9856    1.0420   N.3       1 RES1   0.0000
   113 O3       -3.9328   -0.7842    1.3443   O.2       1 RES1   0.0000
   114 O4       -2.4598   -1.0611   -0.1569   O.co2     1 RES1   0.0000
   115 O5       -1.8916   -1.1507    1.8611   O.co2     1 RES1   0.0000
@<TRIPOS>BOND
     1     1     8    1
     2     1    45    1
     3     1    53    1
     4     1    55    1
     5     1    58    1
     6     1    61    1
     7     1   114    1
     8     1   115    1
     9     2     3    1
    10     2    62    1
    11     2    63    1
    12     2    64    1
    13     3     4    1
    14     3    65    1
    15     3    66    1
    16     4     5    1
    17     4    67    1
    18     4    68    1
    19     5     6    1
    20     5    69    1
    21     5    70    1
    22     6     7    1
    23     6    71    1
    24     6    72    1
    25     7     8    1
    26     7    73    1
    27     7    74    1
    28     8     9    1
    29     8    60    1
    30     9    10    1
    31     9    16    2
    32    10    11    1
    33    10    15    2
    34    11    12    2
    35    11    75    1
    36    12    13    1
    37    12    76    1
    38    13    14    2
    39    13    77    1
    40    14    15    1
    41    14    78    1
    42    15    79    1
    43    16    17    1
    44    16    23    1
    45    17    18    1
    46    17    22    2
    47    18    19    2
    48    18    80    1
    49    19    20    1
    50    19    81    1
    51    20    21    2
    52    20    82    1
    53    21    22    1
    54    21    83    1
    55    22    84    1
    56    23    24    1
    57    23    59    2
    58    24    25    2
    59    24    85    1
    60    25    26    1
    61    25    57    1
    62    26    27    2
    63    26    86    1
    64    27    28    1
    65    27    87    1
    66    28    29    1
    67    28    56    2
    68    29    30    2
    69    29    88    1
    70    30    31    1
    71    30    54    1
    72    31    32    1
    73    31    38    2
    74    32    33    1
    75    32    37    2
    76    33    34    2
    77    33    89    1
    78    34    35    1
    79    34    90    1
    80    35    36    2
    81    35    91    1
    82    36    37    1
    83    36    92    1
    84    37    93    1
    85    38    39    1
    86    38    45    1
    87    39    40    1
    88    39    44    2
    89    40    41    2
    90    40    94    1
    91    41    42    1
    92    41    95    1
    93    42    43    2
    94    42    96    1
    95    43    44    1
    96    43    97    1
    97    44    98    1
    98    45    46    1
    99    45    52    1
   100    46    47    1
   101    46    99    1
   102    46   100    1
   103    47    48    1
   104    47   101    1
   105    47   102    1
   106    48    49    1
   107    48   103    1
   108    48   104    1
   109    49    50    1
   110    49   105    1
   111    49   106    1
   112    50    51    1
   113    50   107    1
   114    50   108    1
   115    51   109    1
   116    51   110    1
   117    51   111    1
   118    52    53    2
   119    52    54    1
   120    54    55    2
   121    55    56    1
   122    56    57    1
   123    57    58    2
   124    58    59    1
   125    59    60    1
   126    60    61    2
   127   112   113    2
   128   112   114    1
   129   112   115    1
@<TRIPOS>SUBSTRUCTURE
     1 RES1      115 GROUP             0 ****  ****    0  
