@<TRIPOS>MOLECULE
ICIGOT_geomtry_0_nunpairedes_0_charge_3 Charge: 3 Unpaired_Electrons: 1 XTB_Unpaired_Electrons: 0 XTB_Charge: 3
   157   168     1     0     0
SMALL
NoCharges
****
Generated from Architector

@<TRIPOS>ATOM
     1 Yb1       0.0364   -0.0066    0.1428   Yb        1 RES1   0.0000
     2 C1       -2.9516   -2.9772   -2.3268   C.3       1 RES1   0.0000
     3 N1       -3.6538   -2.2421   -1.2843   N.am      1 RES1   0.0000
     4 C2       -2.9512   -1.4545   -0.4655   C.2       1 RES1   0.0000
     5 O1       -1.7336   -1.2407   -0.6504   O.2       1 RES1   0.0000
     6 C3       -3.6958   -0.8191    0.7057   C.3       1 RES1   0.0000
     7 C4       -2.8157   -0.7731    1.9519   C.2       1 RES1   0.0000
     8 O2       -1.6307   -0.4089    1.8558   O.2       1 RES1   0.0000
     9 N2       -3.3834   -1.0677    3.1221   N.am      1 RES1   0.0000
    10 C5       -4.7685   -1.4729    3.3417   C.3       1 RES1   0.0000
    11 C6       -2.6007   -0.9543    4.3218   C.ar      1 RES1   0.0000
    12 C7       -1.5723   -1.8480    4.5623   C.ar      1 RES1   0.0000
    13 C8       -0.8871   -1.7922    5.7637   C.ar      1 RES1   0.0000
    14 C9       -1.2127   -0.8318    6.7063   C.ar      1 RES1   0.0000
    15 C10      -2.2248    0.0783    6.4492   C.ar      1 RES1   0.0000
    16 C11      -2.9314    0.0101    5.2617   C.ar      1 RES1   0.0000
    17 C12      -5.0777   -2.3894   -1.2699   C.ar      1 RES1   0.0000
    18 C13      -5.6621   -3.6399   -1.4270   C.ar      1 RES1   0.0000
    19 C14      -7.0409   -3.7643   -1.4737   C.ar      1 RES1   0.0000
    20 C15      -7.8516   -2.6489   -1.3572   C.ar      1 RES1   0.0000
    21 C16      -7.2755   -1.3997   -1.2039   C.ar      1 RES1   0.0000
    22 C17      -5.8989   -1.2703   -1.1790   C.ar      1 RES1   0.0000
    23 H1       -1.9491   -2.5598   -2.4136   H         1 RES1   0.0000
    24 H2       -3.4915   -2.8899   -3.2696   H         1 RES1   0.0000
    25 H3       -2.8816   -4.0343   -2.0649   H         1 RES1   0.0000
    26 H4       -4.6448   -1.3156    0.8968   H         1 RES1   0.0000
    27 H5       -3.8801    0.2300    0.4492   H         1 RES1   0.0000
    28 H6       -5.0340   -2.3439    2.7373   H         1 RES1   0.0000
    29 H7       -5.4617   -0.6514    3.1394   H         1 RES1   0.0000
    30 H8       -4.8814   -1.7638    4.3882   H         1 RES1   0.0000
    31 H9       -1.3296   -2.5879    3.8171   H         1 RES1   0.0000
    32 H10      -0.1108   -2.5129    5.9666   H         1 RES1   0.0000
    33 H11      -0.6876   -0.8046    7.6472   H         1 RES1   0.0000
    34 H12      -2.4697    0.8331    7.1786   H         1 RES1   0.0000
    35 H13      -3.7419    0.6931    5.0669   H         1 RES1   0.0000
    36 H14      -5.0470   -4.5189   -1.5103   H         1 RES1   0.0000
    37 H15      -7.4827   -4.7380   -1.6071   H         1 RES1   0.0000
    38 H16      -8.9225   -2.7486   -1.3968   H         1 RES1   0.0000
    39 H17      -7.8996   -0.5251   -1.1141   H         1 RES1   0.0000
    40 H18      -5.4472   -0.2965   -1.0992   H         1 RES1   0.0000
    41 C18       1.2347   -2.7465   -3.6201   C.3       1 RES1   0.0000
    42 N3        1.4206   -1.3751   -4.0712   N.am      1 RES1   0.0000
    43 C19       1.2042   -0.3870   -3.1985   C.2       1 RES1   0.0000
    44 O3        1.0399   -0.5937   -1.9830   O.2       1 RES1   0.0000
    45 C20       1.0542    1.0269   -3.7448   C.3       1 RES1   0.0000
    46 C21      -0.2881    1.5323   -3.2106   C.2       1 RES1   0.0000
    47 O4       -0.5317    1.4665   -1.9951   O.2       1 RES1   0.0000
    48 N4       -1.1520    2.0536   -4.0838   N.am      1 RES1   0.0000
    49 C22      -0.8948    2.1685   -5.5121   C.3       1 RES1   0.0000
    50 C23      -2.4307    2.5443   -3.6643   C.ar      1 RES1   0.0000
    51 C24      -3.3023    1.7512   -2.9319   C.ar      1 RES1   0.0000
    52 C25      -4.5893    2.2021   -2.6843   C.ar      1 RES1   0.0000
    53 C26      -5.0067    3.4353   -3.1579   C.ar      1 RES1   0.0000
    54 C27      -4.1226    4.2422   -3.8545   C.ar      1 RES1   0.0000
    55 C28      -2.8356    3.8003   -4.1013   C.ar      1 RES1   0.0000
    56 C29       2.0044   -1.2116   -5.3602   C.ar      1 RES1   0.0000
    57 C30       1.6388   -2.0604   -6.3989   C.ar      1 RES1   0.0000
    58 C31       2.3318   -2.0190   -7.5952   C.ar      1 RES1   0.0000
    59 C32       3.3673   -1.1162   -7.7652   C.ar      1 RES1   0.0000
    60 C33       3.7007   -0.2323   -6.7533   C.ar      1 RES1   0.0000
    61 C34       3.0343   -0.2926   -5.5443   C.ar      1 RES1   0.0000
    62 H19       1.4644   -2.8076   -2.5600   H         1 RES1   0.0000
    63 H20       1.8782   -3.4213   -4.1796   H         1 RES1   0.0000
    64 H21       0.1965   -3.0492   -3.7608   H         1 RES1   0.0000
    65 H22       1.1246    1.0514   -4.8262   H         1 RES1   0.0000
    66 H23       1.8403    1.6594   -3.3265   H         1 RES1   0.0000
    67 H24      -0.5789    1.2083   -5.9208   H         1 RES1   0.0000
    68 H25      -0.1385    2.9302   -5.7095   H         1 RES1   0.0000
    69 H26      -1.8194    2.4512   -6.0131   H         1 RES1   0.0000
    70 H27      -2.9796    0.7826   -2.5798   H         1 RES1   0.0000
    71 H28      -5.2918    1.5792   -2.1500   H         1 RES1   0.0000
    72 H29      -6.0205    3.7618   -2.9906   H         1 RES1   0.0000
    73 H30      -4.4438    5.2003   -4.2316   H         1 RES1   0.0000
    74 H31      -2.1515    4.4213   -4.6553   H         1 RES1   0.0000
    75 H32       0.8318   -2.7640   -6.2699   H         1 RES1   0.0000
    76 H33       2.0641   -2.7032   -8.3843   H         1 RES1   0.0000
    77 H34       3.9227   -1.1075   -8.6832   H         1 RES1   0.0000
    78 H35       4.4906    0.4896   -6.8919   H         1 RES1   0.0000
    79 H36       3.3359    0.3483   -4.7307   H         1 RES1   0.0000
    80 C35      -3.3166    3.6386    0.1069   C.3       1 RES1   0.0000
    81 N5       -1.9482    4.0689   -0.1191   N.am      1 RES1   0.0000
    82 C36      -0.9658    3.1981    0.1092   C.2       1 RES1   0.0000
    83 O5       -1.1935    2.0228    0.4557   O.2       1 RES1   0.0000
    84 C37       0.4778    3.6846   -0.0299   C.3       1 RES1   0.0000
    85 C38       1.3124    2.9562    1.0066   C.2       1 RES1   0.0000
    86 O6        1.5451    1.7409    0.8225   O.2       1 RES1   0.0000
    87 N6        1.7685    3.6433    2.0449   N.am      1 RES1   0.0000
    88 C39       1.5352    5.0694    2.2146   C.3       1 RES1   0.0000
    89 C40       2.4275    3.0446    3.1712   C.ar      1 RES1   0.0000
    90 C41       1.7733    2.0761    3.9164   C.ar      1 RES1   0.0000
    91 C42       2.2937    1.6921    5.1416   C.ar      1 RES1   0.0000
    92 C43       3.4739    2.2471    5.6078   C.ar      1 RES1   0.0000
    93 C44       4.1493    3.1821    4.8399   C.ar      1 RES1   0.0000
    94 C45       3.6243    3.5882    3.6255   C.ar      1 RES1   0.0000
    95 C46      -1.7744    5.4104   -0.5616   C.ar      1 RES1   0.0000
    96 C47      -2.5560    6.4208   -0.0154   C.ar      1 RES1   0.0000
    97 C48      -2.3859    7.7265   -0.4376   C.ar      1 RES1   0.0000
    98 C49      -1.4194    8.0306   -1.3804   C.ar      1 RES1   0.0000
    99 C50      -0.6496    7.0251   -1.9387   C.ar      1 RES1   0.0000
   100 C51      -0.8533    5.7123   -1.5583   C.ar      1 RES1   0.0000
   101 H37      -3.3496    2.5579   -0.0046   H         1 RES1   0.0000
   102 H38      -3.9659    4.1043   -0.6307   H         1 RES1   0.0000
   103 H39      -3.6483    3.9021    1.1119   H         1 RES1   0.0000
   104 H40       0.5740    4.7641    0.0252   H         1 RES1   0.0000
   105 H41       0.8393    3.3497   -1.0048   H         1 RES1   0.0000
   106 H42       0.4808    5.3063    2.0875   H         1 RES1   0.0000
   107 H43       2.1429    5.6455    1.5176   H         1 RES1   0.0000
   108 H44       1.8195    5.3470    3.2264   H         1 RES1   0.0000
   109 H45       0.8474    1.6532    3.5543   H         1 RES1   0.0000
   110 H46       1.7412    0.9987    5.7577   H         1 RES1   0.0000
   111 H47       3.8605    1.9638    6.5735   H         1 RES1   0.0000
   112 H48       5.0591    3.6289    5.2100   H         1 RES1   0.0000
   113 H49       4.1259    4.3491    3.0493   H         1 RES1   0.0000
   114 H50      -3.2867    6.1957    0.7426   H         1 RES1   0.0000
   115 H51      -3.0078    8.5026   -0.0230   H         1 RES1   0.0000
   116 H52      -1.2796    9.0472   -1.6970   H         1 RES1   0.0000
   117 H53       0.1038    7.2567   -2.6747   H         1 RES1   0.0000
   118 H54      -0.3103    4.9126   -2.0331   H         1 RES1   0.0000
   119 C52       2.2109   -1.6651    4.4780   C.3       1 RES1   0.0000
   120 N7        3.0515   -1.1774    3.3996   N.am      1 RES1   0.0000
   121 C53       2.4646   -0.8869    2.2279   C.2       1 RES1   0.0000
   122 O7        1.2513   -0.6299    2.1285   O.2       1 RES1   0.0000
   123 C54       3.2912   -1.0530    0.9565   C.3       1 RES1   0.0000
   124 C55       2.5915   -2.2292    0.2497   C.2       1 RES1   0.0000
   125 O8        1.3793   -2.1089    0.0059   O.2       1 RES1   0.0000
   126 N8        3.3026   -3.3133   -0.0836   N.am      1 RES1   0.0000
   127 C56       4.7045   -3.4777    0.2742   C.3       1 RES1   0.0000
   128 C57       2.7312   -4.3507   -0.8934   C.ar      1 RES1   0.0000
   129 C58       1.4254   -4.7859   -0.6989   C.ar      1 RES1   0.0000
   130 C59       0.8885   -5.7644   -1.5197   C.ar      1 RES1   0.0000
   131 C60       1.6541   -6.3405   -2.5188   C.ar      1 RES1   0.0000
   132 C61       2.9660   -5.9326   -2.6947   C.ar      1 RES1   0.0000
   133 C62       3.4995   -4.9339   -1.8981   C.ar      1 RES1   0.0000
   134 C63       4.4013   -0.8738    3.7198   C.ar      1 RES1   0.0000
   135 C64       5.0461   -1.5149    4.7718   C.ar      1 RES1   0.0000
   136 C65       6.3149   -1.1144    5.1523   C.ar      1 RES1   0.0000
   137 C66       6.9613   -0.0998    4.4698   C.ar      1 RES1   0.0000
   138 C67       6.3331    0.5286    3.4082   C.ar      1 RES1   0.0000
   139 C68       5.0462    0.1683    3.0585   C.ar      1 RES1   0.0000
   140 H55       1.1753   -1.5286    4.1841   H         1 RES1   0.0000
   141 H56       2.3988   -1.1283    5.4028   H         1 RES1   0.0000
   142 H57       2.4198   -2.7261    4.6321   H         1 RES1   0.0000
   143 H58       4.3534   -1.1959    1.1335   H         1 RES1   0.0000
   144 H59       3.1398   -0.1769    0.3131   H         1 RES1   0.0000
   145 H60       4.8664   -3.1754    1.3067   H         1 RES1   0.0000
   146 H61       5.3576   -2.9038   -0.3875   H         1 RES1   0.0000
   147 H62       4.9776   -4.5291    0.1968   H         1 RES1   0.0000
   148 H63       0.8280   -4.3663    0.0923   H         1 RES1   0.0000
   149 H64      -0.1315   -6.0864   -1.3676   H         1 RES1   0.0000
   150 H65       1.2341   -7.1100   -3.1464   H         1 RES1   0.0000
   151 H66       3.5774   -6.4006   -3.4505   H         1 RES1   0.0000
   152 H67       4.5178   -4.6248   -2.0624   H         1 RES1   0.0000
   153 H68       4.5691   -2.3220    5.3001   H         1 RES1   0.0000
   154 H69       6.7934   -1.5967    5.9891   H         1 RES1   0.0000
   155 H70       7.9378    0.2218    4.7814   H         1 RES1   0.0000
   156 H71       6.8351    1.3147    2.8669   H         1 RES1   0.0000
   157 H72       4.5157    0.7097    2.2922   H         1 RES1   0.0000
@<TRIPOS>BOND
     1     1     5    1
     2     1     8    1
     3     1    44    1
     4     1    47    1
     5     1    83    1
     6     1    86    1
     7     1   122    1
     8     1   125    1
     9     2     3    1
    10     2    23    1
    11     2    24    1
    12     2    25    1
    13     3     4    1
    14     3    17    1
    15     4     5    2
    16     4     6    1
    17     6     7    1
    18     6    26    1
    19     6    27    1
    20     7     8    2
    21     7     9    1
    22     9    10    1
    23     9    11    1
    24    10    28    1
    25    10    29    1
    26    10    30    1
    27    11    12    1
    28    11    16    2
    29    12    13    2
    30    12    31    1
    31    13    14    1
    32    13    32    1
    33    14    15    2
    34    14    33    1
    35    15    16    1
    36    15    34    1
    37    16    35    1
    38    17    18    1
    39    17    22    2
    40    18    19    2
    41    18    36    1
    42    19    20    1
    43    19    37    1
    44    20    21    2
    45    20    38    1
    46    21    22    1
    47    21    39    1
    48    22    40    1
    49    41    42    1
    50    41    62    1
    51    41    63    1
    52    41    64    1
    53    42    43    1
    54    42    56    1
    55    43    44    2
    56    43    45    1
    57    45    46    1
    58    45    65    1
    59    45    66    1
    60    46    47    2
    61    46    48    1
    62    48    49    1
    63    48    50    1
    64    49    67    1
    65    49    68    1
    66    49    69    1
    67    50    51    1
    68    50    55    2
    69    51    52    2
    70    51    70    1
    71    52    53    1
    72    52    71    1
    73    53    54    2
    74    53    72    1
    75    54    55    1
    76    54    73    1
    77    55    74    1
    78    56    57    1
    79    56    61    2
    80    57    58    2
    81    57    75    1
    82    58    59    1
    83    58    76    1
    84    59    60    2
    85    59    77    1
    86    60    61    1
    87    60    78    1
    88    61    79    1
    89    80    81    1
    90    80   101    1
    91    80   102    1
    92    80   103    1
    93    81    82    1
    94    81    95    1
    95    82    83    2
    96    82    84    1
    97    84    85    1
    98    84   104    1
    99    84   105    1
   100    85    86    2
   101    85    87    1
   102    87    88    1
   103    87    89    1
   104    88   106    1
   105    88   107    1
   106    88   108    1
   107    89    90    1
   108    89    94    2
   109    90    91    2
   110    90   109    1
   111    91    92    1
   112    91   110    1
   113    92    93    2
   114    92   111    1
   115    93    94    1
   116    93   112    1
   117    94   113    1
   118    95    96    1
   119    95   100    2
   120    96    97    2
   121    96   114    1
   122    97    98    1
   123    97   115    1
   124    98    99    2
   125    98   116    1
   126    99   100    1
   127    99   117    1
   128   100   118    1
   129   119   120    1
   130   119   140    1
   131   119   141    1
   132   119   142    1
   133   120   121    1
   134   120   134    1
   135   121   122    2
   136   121   123    1
   137   123   124    1
   138   123   143    1
   139   123   144    1
   140   124   125    2
   141   124   126    1
   142   126   127    1
   143   126   128    1
   144   127   145    1
   145   127   146    1
   146   127   147    1
   147   128   129    1
   148   128   133    2
   149   129   130    2
   150   129   148    1
   151   130   131    1
   152   130   149    1
   153   131   132    2
   154   131   150    1
   155   132   133    1
   156   132   151    1
   157   133   152    1
   158   134   135    1
   159   134   139    2
   160   135   136    2
   161   135   153    1
   162   136   137    1
   163   136   154    1
   164   137   138    2
   165   137   155    1
   166   138   139    1
   167   138   156    1
   168   139   157    1
@<TRIPOS>SUBSTRUCTURE
     1 RES1      157 GROUP             0 ****  ****    0  
