@<TRIPOS>MOLECULE
ICIGOT_geomtry_0_nunpairedes_0_charge_3 Charge: 3 Unpaired_Electrons: 1 XTB_Unpaired_Electrons: 0 XTB_Charge: 3
   281   288     1     0     0
SMALL
NoCharges
****
Generated from Architector

@<TRIPOS>ATOM
     1 Yb1      -0.0980    0.0301   -0.2133   Yb        1 RES1   0.0000
     2 C1        4.2116   -3.7790    4.7258   C.3       1 RES1   0.0000
     3 C2        3.8220   -3.5765    6.1866   C.3       1 RES1   0.0000
     4 C3        2.7987   -4.5940    6.7118   C.3       1 RES1   0.0000
     5 C4        1.3398   -4.1340    6.6286   C.3       1 RES1   0.0000
     6 C5        0.6695   -4.2787    5.2613   C.3       1 RES1   0.0000
     7 C6       -0.6481   -3.5002    5.2143   C.3       1 RES1   0.0000
     8 C7       -1.2112   -3.3602    3.7930   C.3       1 RES1   0.0000
     9 C8       -2.2486   -2.2380    3.7020   C.3       1 RES1   0.0000
    10 P1       -2.3786   -1.5018    2.0231   P.3       1 RES1   0.0000
    11 O1       -1.2045   -0.6525    1.6229   O.2       1 RES1   0.0000
    12 C9       -2.4850   -2.9618    0.9053   C.3       1 RES1   0.0000
    13 C10      -2.6705   -2.4914   -0.5076   C.2       1 RES1   0.0000
    14 O2       -1.9148   -1.5739   -0.9117   O.2       1 RES1   0.0000
    15 N1       -3.6101   -3.0500   -1.2757   N.am      1 RES1   0.0000
    16 C11      -3.8432   -2.4547   -2.5870   C.3       1 RES1   0.0000
    17 C12      -3.1915   -3.1955   -3.7629   C.3       1 RES1   0.0000
    18 C13      -1.7143   -3.4758   -3.4822   C.3       1 RES1   0.0000
    19 C14      -3.4124   -2.3775   -5.0365   C.3       1 RES1   0.0000
    20 C15      -4.6055   -4.0137   -0.7982   C.3       1 RES1   0.0000
    21 C16      -4.2889   -5.5323   -0.8148   C.3       1 RES1   0.0000
    22 C17      -2.9881   -5.9393   -0.1211   C.3       1 RES1   0.0000
    23 C18      -4.3349   -6.1406   -2.2147   C.3       1 RES1   0.0000
    24 C19      -3.8651   -0.4699    2.0223   C.ar      1 RES1   0.0000
    25 C20      -4.9132   -0.5795    1.1255   C.ar      1 RES1   0.0000
    26 C21      -5.9798    0.3013    1.2087   C.ar      1 RES1   0.0000
    27 C22      -6.0052    1.2886    2.1808   C.ar      1 RES1   0.0000
    28 C23      -4.9485    1.4047    3.0728   C.ar      1 RES1   0.0000
    29 C24      -3.8827    0.5293    2.9904   C.ar      1 RES1   0.0000
    30 H1        4.9206   -3.0114    4.4157   H         1 RES1   0.0000
    31 H2        3.3421   -3.7319    4.0724   H         1 RES1   0.0000
    32 H3        4.6850   -4.7499    4.5953   H         1 RES1   0.0000
    33 H4        4.7320   -3.6518    6.7842   H         1 RES1   0.0000
    34 H5        3.4287   -2.5657    6.3215   H         1 RES1   0.0000
    35 H6        3.0159   -4.7714    7.7656   H         1 RES1   0.0000
    36 H7        2.9159   -5.5449    6.1917   H         1 RES1   0.0000
    37 H8        1.2959   -3.0890    6.9440   H         1 RES1   0.0000
    38 H9        0.7526   -4.7057    7.3477   H         1 RES1   0.0000
    39 H10       0.4794   -5.3327    5.0627   H         1 RES1   0.0000
    40 H11       1.3242   -3.9119    4.4701   H         1 RES1   0.0000
    41 H12      -0.4783   -2.5031    5.6310   H         1 RES1   0.0000
    42 H13      -1.3866   -3.9937    5.8466   H         1 RES1   0.0000
    43 H14      -1.6586   -4.3080    3.4898   H         1 RES1   0.0000
    44 H15      -0.3873   -3.1450    3.1066   H         1 RES1   0.0000
    45 H16      -1.9764   -1.4224    4.3764   H         1 RES1   0.0000
    46 H17      -3.2374   -2.5910    3.9986   H         1 RES1   0.0000
    47 H18      -3.2208   -3.6667    1.2692   H         1 RES1   0.0000
    48 H19      -1.4856   -3.4023    0.9776   H         1 RES1   0.0000
    49 H20      -3.4451   -1.4354   -2.5500   H         1 RES1   0.0000
    50 H21      -4.9218   -2.4004   -2.7554   H         1 RES1   0.0000
    51 H22      -3.6969   -4.1525   -3.9082   H         1 RES1   0.0000
    52 H23      -1.1944   -2.5874   -3.1276   H         1 RES1   0.0000
    53 H24      -1.2159   -3.8431   -4.3762   H         1 RES1   0.0000
    54 H25      -1.6179   -4.2473   -2.7206   H         1 RES1   0.0000
    55 H26      -3.0602   -1.3515   -4.9235   H         1 RES1   0.0000
    56 H27      -4.4730   -2.3460   -5.2784   H         1 RES1   0.0000
    57 H28      -2.8968   -2.8400   -5.8749   H         1 RES1   0.0000
    58 H29      -5.4936   -3.8707   -1.4211   H         1 RES1   0.0000
    59 H30      -4.8887   -3.7408    0.2204   H         1 RES1   0.0000
    60 H31      -5.1151   -5.9772   -0.2474   H         1 RES1   0.0000
    61 H32      -2.1273   -5.4362   -0.5575   H         1 RES1   0.0000
    62 H33      -2.8411   -7.0091   -0.2525   H         1 RES1   0.0000
    63 H34      -3.0200   -5.7535    0.9509   H         1 RES1   0.0000
    64 H35      -3.4572   -5.8702   -2.7942   H         1 RES1   0.0000
    65 H36      -5.2290   -5.8299   -2.7514   H         1 RES1   0.0000
    66 H37      -4.3480   -7.2244   -2.1265   H         1 RES1   0.0000
    67 H38      -4.8979   -1.3394    0.3586   H         1 RES1   0.0000
    68 H39      -6.7995    0.2179    0.5148   H         1 RES1   0.0000
    69 H40      -6.8551    1.9531    2.2456   H         1 RES1   0.0000
    70 H41      -4.9637    2.1709    3.8317   H         1 RES1   0.0000
    71 H42      -3.0441    0.6091    3.6685   H         1 RES1   0.0000
    72 C25       1.3607    2.7517   -9.8767   C.3       1 RES1   0.0000
    73 C26       0.4709    1.7731  -10.6408   C.3       1 RES1   0.0000
    74 C27       0.2665    0.4270   -9.9364   C.3       1 RES1   0.0000
    75 C28      -0.2562    0.5114   -8.4992   C.3       1 RES1   0.0000
    76 C29      -1.6067    1.2093   -8.3629   C.3       1 RES1   0.0000
    77 C30      -2.0861    1.2882   -6.9101   C.3       1 RES1   0.0000
    78 C31      -1.2889    2.3037   -6.0912   C.3       1 RES1   0.0000
    79 C32      -1.6444    2.3028   -4.5944   C.3       1 RES1   0.0000
    80 P2       -0.4180    1.5021   -3.4856   P.3       1 RES1   0.0000
    81 O3       -0.8615    1.3264   -2.0575   O.2       1 RES1   0.0000
    82 C33      -0.1810   -0.1499   -4.2852   C.3       1 RES1   0.0000
    83 C34       0.9198   -0.8762   -3.5604   C.2       1 RES1   0.0000
    84 O4        0.9515   -0.8018   -2.3096   O.2       1 RES1   0.0000
    85 N2        1.8499   -1.5143   -4.2700   N.am      1 RES1   0.0000
    86 C35       3.1007   -1.8651   -3.6105   C.3       1 RES1   0.0000
    87 C36       4.0615   -0.6682   -3.4676   C.3       1 RES1   0.0000
    88 C37       4.1952    0.1355   -4.7604   C.3       1 RES1   0.0000
    89 C38       5.4410   -1.1700   -3.0409   C.3       1 RES1   0.0000
    90 C39       1.7518   -1.8442   -5.6911   C.3       1 RES1   0.0000
    91 C40       2.0244   -3.3302   -6.0340   C.3       1 RES1   0.0000
    92 C41       0.8356   -3.9116   -6.7999   C.3       1 RES1   0.0000
    93 C42       3.2888   -3.4683   -6.8827   C.3       1 RES1   0.0000
    94 C43       1.1319    2.4370   -3.5832   C.ar      1 RES1   0.0000
    95 C44       2.1454    2.1091   -2.6897   C.ar      1 RES1   0.0000
    96 C45       3.3712    2.7501   -2.7720   C.ar      1 RES1   0.0000
    97 C46       3.5966    3.7063   -3.7504   C.ar      1 RES1   0.0000
    98 C47       2.5652    4.0855   -4.5971   C.ar      1 RES1   0.0000
    99 C48       1.3311    3.4611   -4.5050   C.ar      1 RES1   0.0000
   100 H43       1.5079    3.6532  -10.4686   H         1 RES1   0.0000
   101 H44       2.3381    2.3121   -9.6803   H         1 RES1   0.0000
   102 H45       0.9128    3.0461   -8.9273   H         1 RES1   0.0000
   103 H46       0.9316    1.5731  -11.6116   H         1 RES1   0.0000
   104 H47      -0.4978    2.2391  -10.8321   H         1 RES1   0.0000
   105 H48       1.2239   -0.1031   -9.9112   H         1 RES1   0.0000
   106 H49      -0.4273   -0.1666  -10.5359   H         1 RES1   0.0000
   107 H50       0.4937    1.0247   -7.8947   H         1 RES1   0.0000
   108 H51      -0.3584   -0.5102   -8.1196   H         1 RES1   0.0000
   109 H52      -2.3447    0.6613   -8.9505   H         1 RES1   0.0000
   110 H53      -1.5499    2.2169   -8.7707   H         1 RES1   0.0000
   111 H54      -2.0262    0.2940   -6.4604   H         1 RES1   0.0000
   112 H55      -3.1313    1.5969   -6.9002   H         1 RES1   0.0000
   113 H56      -1.5041    3.2914   -6.5027   H         1 RES1   0.0000
   114 H57      -0.2286    2.1150   -6.2520   H         1 RES1   0.0000
   115 H58      -2.5956    1.7898   -4.4471   H         1 RES1   0.0000
   116 H59      -1.7718    3.3226   -4.2274   H         1 RES1   0.0000
   117 H60       0.0189   -0.0117   -5.3418   H         1 RES1   0.0000
   118 H61      -1.1374   -0.6565   -4.1420   H         1 RES1   0.0000
   119 H62       3.5850   -2.6472   -4.1890   H         1 RES1   0.0000
   120 H63       2.8607   -2.2457   -2.6155   H         1 RES1   0.0000
   121 H64       3.6594   -0.0101   -2.6900   H         1 RES1   0.0000
   122 H65       4.5077   -0.5034   -5.5837   H         1 RES1   0.0000
   123 H66       4.9499    0.9097   -4.6371   H         1 RES1   0.0000
   124 H67       3.2561    0.6231   -5.0178   H         1 RES1   0.0000
   125 H68       6.0971   -0.3260   -2.8375   H         1 RES1   0.0000
   126 H69       5.8986   -1.7664   -3.8276   H         1 RES1   0.0000
   127 H70       5.3791   -1.7897   -2.1490   H         1 RES1   0.0000
   128 H71       2.4615   -1.2220   -6.2403   H         1 RES1   0.0000
   129 H72       0.7471   -1.6161   -6.0293   H         1 RES1   0.0000
   130 H73       2.1478   -3.9012   -5.1076   H         1 RES1   0.0000
   131 H74       0.7094   -3.3983   -7.7514   H         1 RES1   0.0000
   132 H75      -0.0895   -3.8122   -6.2337   H         1 RES1   0.0000
   133 H76       0.9996   -4.9663   -7.0036   H         1 RES1   0.0000
   134 H77       3.1471   -3.0055   -7.8585   H         1 RES1   0.0000
   135 H78       3.5149   -4.5191   -7.0364   H         1 RES1   0.0000
   136 H79       4.1490   -3.0050   -6.4042   H         1 RES1   0.0000
   137 H80       1.9698    1.3483   -1.9361   H         1 RES1   0.0000
   138 H81       4.1596    2.5027   -2.0780   H         1 RES1   0.0000
   139 H82       4.5745    4.1527   -3.8485   H         1 RES1   0.0000
   140 H83       2.7174    4.8599   -5.3343   H         1 RES1   0.0000
   141 H84       0.5260    3.7776   -5.1479   H         1 RES1   0.0000
   142 C49       8.2764   -0.5163    2.9076   C.3       1 RES1   0.0000
   143 C50       8.3352    0.5329    4.0185   C.3       1 RES1   0.0000
   144 C51       7.0324    0.5772    4.8369   C.3       1 RES1   0.0000
   145 C52       6.4887    1.9963    5.0633   C.3       1 RES1   0.0000
   146 C53       4.9691    1.9937    5.2781   C.3       1 RES1   0.0000
   147 C54       4.2352    3.2228    4.7171   C.3       1 RES1   0.0000
   148 C55       2.7671    2.8683    4.4575   C.3       1 RES1   0.0000
   149 C56       1.9743    3.9416    3.7116   C.3       1 RES1   0.0000
   150 P3        0.8853    3.2769    2.3455   P.3       1 RES1   0.0000
   151 O5        1.2099    1.8618    2.0101   O.2       1 RES1   0.0000
   152 C57      -0.9423    3.3679    2.7082   C.3       1 RES1   0.0000
   153 C58      -1.6673    3.0191    1.4137   C.2       1 RES1   0.0000
   154 O6       -1.1964    2.1048    0.7017   O.2       1 RES1   0.0000
   155 N3       -2.7919    3.6675    1.0798   N.am      1 RES1   0.0000
   156 C59      -3.4955    4.6439    1.9134   C.3       1 RES1   0.0000
   157 C60      -3.4144    6.1290    1.4960   C.3       1 RES1   0.0000
   158 C61      -2.0697    6.7651    1.8373   C.3       1 RES1   0.0000
   159 C62      -4.5668    6.8484    2.1957   C.3       1 RES1   0.0000
   160 C63      -3.5471    3.1503   -0.0650   C.3       1 RES1   0.0000
   161 C64      -3.7648    4.1023   -1.2492   C.3       1 RES1   0.0000
   162 C65      -4.4332    3.3135   -2.3775   C.3       1 RES1   0.0000
   163 C66      -2.4565    4.7143   -1.7345   C.3       1 RES1   0.0000
   164 C67       1.0036    4.5258    1.0111   C.ar      1 RES1   0.0000
   165 C68       1.3120    5.8477    1.3255   C.ar      1 RES1   0.0000
   166 C69       1.3699    6.8118    0.3324   C.ar      1 RES1   0.0000
   167 C70       1.1207    6.4714   -0.9865   C.ar      1 RES1   0.0000
   168 C71       0.8270    5.1533   -1.3064   C.ar      1 RES1   0.0000
   169 C72       0.7538    4.1909   -0.3154   C.ar      1 RES1   0.0000
   170 H85       9.2235   -0.5522    2.3690   H         1 RES1   0.0000
   171 H86       7.4942   -0.2705    2.1876   H         1 RES1   0.0000
   172 H87       8.0813   -1.5078    3.3181   H         1 RES1   0.0000
   173 H88       8.5089    1.5095    3.5606   H         1 RES1   0.0000
   174 H89       9.1909    0.3299    4.6646   H         1 RES1   0.0000
   175 H90       7.1562    0.0730    5.7977   H         1 RES1   0.0000
   176 H91       6.2779    0.0070    4.2860   H         1 RES1   0.0000
   177 H92       6.7132    2.6030    4.1802   H         1 RES1   0.0000
   178 H93       6.9996    2.4732    5.9007   H         1 RES1   0.0000
   179 H94       4.5679    1.1118    4.7722   H         1 RES1   0.0000
   180 H95       4.7373    1.8772    6.3350   H         1 RES1   0.0000
   181 H96       4.6969    3.5213    3.7708   H         1 RES1   0.0000
   182 H97       4.3187    4.0602    5.4104   H         1 RES1   0.0000
   183 H98       2.2920    2.6230    5.4066   H         1 RES1   0.0000
   184 H99       2.7811    1.9841    3.8227   H         1 RES1   0.0000
   185 H100      2.6755    4.5894    3.1774   H         1 RES1   0.0000
   186 H101      1.3938    4.5638    4.3938   H         1 RES1   0.0000
   187 H102     -1.1782    4.3504    3.1051   H         1 RES1   0.0000
   188 H103     -1.1757    2.5947    3.4470   H         1 RES1   0.0000
   189 H104     -3.1672    4.5595    2.9512   H         1 RES1   0.0000
   190 H105     -4.5495    4.3498    1.8952   H         1 RES1   0.0000
   191 H106     -3.5710    6.2201    0.4199   H         1 RES1   0.0000
   192 H107     -1.8915    6.7462    2.9111   H         1 RES1   0.0000
   193 H108     -2.0683    7.8048    1.5178   H         1 RES1   0.0000
   194 H109     -1.2559    6.2547    1.3238   H         1 RES1   0.0000
   195 H110     -4.4895    6.7504    3.2758   H         1 RES1   0.0000
   196 H111     -5.5174    6.4257    1.8760   H         1 RES1   0.0000
   197 H112     -4.5643    7.9046    1.9469   H         1 RES1   0.0000
   198 H113     -4.5256    2.8341    0.3084   H         1 RES1   0.0000
   199 H114     -3.0140    2.2609   -0.4181   H         1 RES1   0.0000
   200 H115     -4.4444    4.9036   -0.9473   H         1 RES1   0.0000
   201 H116     -3.8465    2.4249   -2.6084   H         1 RES1   0.0000
   202 H117     -4.5137    3.9313   -3.2701   H         1 RES1   0.0000
   203 H118     -5.4353    2.9978   -2.0992   H         1 RES1   0.0000
   204 H119     -1.7777    3.9280   -2.0615   H         1 RES1   0.0000
   205 H120     -1.9702    5.2768   -0.9432   H         1 RES1   0.0000
   206 H121     -2.6398    5.3969   -2.5620   H         1 RES1   0.0000
   207 H122      1.4963    6.1515    2.3457   H         1 RES1   0.0000
   208 H123      1.6109    7.8335    0.5869   H         1 RES1   0.0000
   209 H124      1.1509    7.2293   -1.7544   H         1 RES1   0.0000
   210 H125      0.6523    4.8807   -2.3338   H         1 RES1   0.0000
   211 H126      0.4921    3.1692   -0.5698   H         1 RES1   0.0000
   212 C73       0.7369    0.8629   10.2974   C.3       1 RES1   0.0000
   213 C74       1.7933    0.4692    9.2724   C.3       1 RES1   0.0000
   214 C75       1.8277    1.4521    8.0996   C.3       1 RES1   0.0000
   215 C76       0.7673    1.1834    7.0226   C.3       1 RES1   0.0000
   216 C77       1.2692    0.1551    5.9966   C.3       1 RES1   0.0000
   217 C78       0.6375    0.2920    4.6142   C.3       1 RES1   0.0000
   218 C79       1.1702   -0.7198    3.5957   C.3       1 RES1   0.0000
   219 C80       2.5709   -0.4795    3.0244   C.3       1 RES1   0.0000
   220 P4        2.8518    0.2157    1.2873   P.3       1 RES1   0.0000
   221 O7        1.8664    0.4295    0.1595   O.2       1 RES1   0.0000
   222 C81       3.8051   -1.2558    0.6579   C.3       1 RES1   0.0000
   223 C82       2.7951   -2.3565    0.3692   C.2       1 RES1   0.0000
   224 O8        1.5877   -2.0881    0.2270   O.2       1 RES1   0.0000
   225 N4        3.2574   -3.6157    0.1881   N.am      1 RES1   0.0000
   226 C83       2.2868   -4.5633   -0.3733   C.3       1 RES1   0.0000
   227 C84       2.7756   -5.6171   -1.3969   C.3       1 RES1   0.0000
   228 C85       3.8440   -5.1073   -2.3766   C.3       1 RES1   0.0000
   229 C86       3.2031   -6.9312   -0.7478   C.3       1 RES1   0.0000
   230 C87       4.3148   -4.2104    1.0207   C.3       1 RES1   0.0000
   231 C88       5.7243   -4.4186    0.4275   C.3       1 RES1   0.0000
   232 C89       6.5621   -3.1435    0.4370   C.3       1 RES1   0.0000
   233 C90       6.4487   -5.5031    1.2310   C.3       1 RES1   0.0000
   234 C91       3.9683    1.6491    1.2226   C.ar      1 RES1   0.0000
   235 C92       3.5005    2.7374    0.4974   C.ar      1 RES1   0.0000
   236 C93       4.2953    3.8472    0.2932   C.ar      1 RES1   0.0000
   237 C94       5.5972    3.8523    0.7653   C.ar      1 RES1   0.0000
   238 C95       6.0702    2.7690    1.4897   C.ar      1 RES1   0.0000
   239 C96       5.2495    1.6794    1.7461   C.ar      1 RES1   0.0000
   240 H127      0.6881    0.1377   11.1052   H         1 RES1   0.0000
   241 H128     -0.2479    0.9357    9.8391   H         1 RES1   0.0000
   242 H129      0.9853    1.8288   10.7330   H         1 RES1   0.0000
   243 H130      1.6092   -0.5447    8.9121   H         1 RES1   0.0000
   244 H131      2.7679    0.4689    9.7635   H         1 RES1   0.0000
   245 H132      2.8164    1.4231    7.6371   H         1 RES1   0.0000
   246 H133      1.6943    2.4556    8.5024   H         1 RES1   0.0000
   247 H134      0.5108    2.1211    6.5187   H         1 RES1   0.0000
   248 H135     -0.1481    0.8246    7.4958   H         1 RES1   0.0000
   249 H136      1.0797   -0.8499    6.3736   H         1 RES1   0.0000
   250 H137      2.3514    0.2623    5.9048   H         1 RES1   0.0000
   251 H138      0.7992    1.3000    4.2431   H         1 RES1   0.0000
   252 H139     -0.4417    0.1416    4.6952   H         1 RES1   0.0000
   253 H140      0.4826   -0.7669    2.7548   H         1 RES1   0.0000
   254 H141      1.1792   -1.6931    4.0834   H         1 RES1   0.0000
   255 H142      3.0865   -1.4451    2.9982   H         1 RES1   0.0000
   256 H143      3.1614    0.1564    3.6839   H         1 RES1   0.0000
   257 H144      4.6106   -1.5494    1.3283   H         1 RES1   0.0000
   258 H145      4.2321   -0.9537   -0.3029   H         1 RES1   0.0000
   259 H146      1.5323   -3.9438   -0.8663   H         1 RES1   0.0000
   260 H147      1.8001   -5.0914    0.4558   H         1 RES1   0.0000
   261 H148      1.8751   -5.8475   -1.9769   H         1 RES1   0.0000
   262 H149      4.1353   -4.0795   -2.1693   H         1 RES1   0.0000
   263 H150      3.4776   -5.1681   -3.3978   H         1 RES1   0.0000
   264 H151      4.7334   -5.7329   -2.3389   H         1 RES1   0.0000
   265 H152      4.1139   -6.8111   -0.1709   H         1 RES1   0.0000
   266 H153      3.3844   -7.6760   -1.5176   H         1 RES1   0.0000
   267 H154      2.4171   -7.3156   -0.1026   H         1 RES1   0.0000
   268 H155      3.9404   -5.1948    1.3147   H         1 RES1   0.0000
   269 H156      4.4171   -3.6280    1.9407   H         1 RES1   0.0000
   270 H157      5.6317   -4.7733   -0.5978   H         1 RES1   0.0000
   271 H158      6.6414   -2.7474    1.4471   H         1 RES1   0.0000
   272 H159      6.1362   -2.3819   -0.2078   H         1 RES1   0.0000
   273 H160      7.5676   -3.3587    0.0875   H         1 RES1   0.0000
   274 H161      6.4965   -5.2383    2.2835   H         1 RES1   0.0000
   275 H162      7.4644   -5.6242    0.8624   H         1 RES1   0.0000
   276 H163      5.9480   -6.4632    1.1383   H         1 RES1   0.0000
   277 H164      2.5105    2.6935    0.0760   H         1 RES1   0.0000
   278 H165      3.8990    4.6860   -0.2600   H         1 RES1   0.0000
   279 H166      6.2357    4.6974    0.5669   H         1 RES1   0.0000
   280 H167      7.0869    2.7588    1.8537   H         1 RES1   0.0000
   281 H168      5.6144    0.8624    2.3487   H         1 RES1   0.0000
@<TRIPOS>BOND
     1     1    11    1
     2     1    14    1
     3     1    81    1
     4     1    84    1
     5     1   151    1
     6     1   154    1
     7     1   221    1
     8     1   224    1
     9     2     3    1
    10     2    30    1
    11     2    31    1
    12     2    32    1
    13     3     4    1
    14     3    33    1
    15     3    34    1
    16     4     5    1
    17     4    35    1
    18     4    36    1
    19     5     6    1
    20     5    37    1
    21     5    38    1
    22     6     7    1
    23     6    39    1
    24     6    40    1
    25     7     8    1
    26     7    41    1
    27     7    42    1
    28     8     9    1
    29     8    43    1
    30     8    44    1
    31     9    10    1
    32     9    45    1
    33     9    46    1
    34    10    11    2
    35    10    12    1
    36    10    24    1
    37    12    13    1
    38    12    47    1
    39    12    48    1
    40    13    14    2
    41    13    15    1
    42    15    16    1
    43    15    20    1
    44    16    17    1
    45    16    49    1
    46    16    50    1
    47    17    18    1
    48    17    19    1
    49    17    51    1
    50    18    52    1
    51    18    53    1
    52    18    54    1
    53    19    55    1
    54    19    56    1
    55    19    57    1
    56    20    21    1
    57    20    58    1
    58    20    59    1
    59    21    22    1
    60    21    23    1
    61    21    60    1
    62    22    61    1
    63    22    62    1
    64    22    63    1
    65    23    64    1
    66    23    65    1
    67    23    66    1
    68    24    25    1
    69    24    29    2
    70    25    26    2
    71    25    67    1
    72    26    27    1
    73    26    68    1
    74    27    28    2
    75    27    69    1
    76    28    29    1
    77    28    70    1
    78    29    71    1
    79    72    73    1
    80    72   100    1
    81    72   101    1
    82    72   102    1
    83    73    74    1
    84    73   103    1
    85    73   104    1
    86    74    75    1
    87    74   105    1
    88    74   106    1
    89    75    76    1
    90    75   107    1
    91    75   108    1
    92    76    77    1
    93    76   109    1
    94    76   110    1
    95    77    78    1
    96    77   111    1
    97    77   112    1
    98    78    79    1
    99    78   113    1
   100    78   114    1
   101    79    80    1
   102    79   115    1
   103    79   116    1
   104    80    81    2
   105    80    82    1
   106    80    94    1
   107    82    83    1
   108    82   117    1
   109    82   118    1
   110    83    84    2
   111    83    85    1
   112    85    86    1
   113    85    90    1
   114    86    87    1
   115    86   119    1
   116    86   120    1
   117    87    88    1
   118    87    89    1
   119    87   121    1
   120    88   122    1
   121    88   123    1
   122    88   124    1
   123    89   125    1
   124    89   126    1
   125    89   127    1
   126    90    91    1
   127    90   128    1
   128    90   129    1
   129    91    92    1
   130    91    93    1
   131    91   130    1
   132    92   131    1
   133    92   132    1
   134    92   133    1
   135    93   134    1
   136    93   135    1
   137    93   136    1
   138    94    95    1
   139    94    99    2
   140    95    96    2
   141    95   137    1
   142    96    97    1
   143    96   138    1
   144    97    98    2
   145    97   139    1
   146    98    99    1
   147    98   140    1
   148    99   141    1
   149   142   143    1
   150   142   170    1
   151   142   171    1
   152   142   172    1
   153   143   144    1
   154   143   173    1
   155   143   174    1
   156   144   145    1
   157   144   175    1
   158   144   176    1
   159   145   146    1
   160   145   177    1
   161   145   178    1
   162   146   147    1
   163   146   179    1
   164   146   180    1
   165   147   148    1
   166   147   181    1
   167   147   182    1
   168   148   149    1
   169   148   183    1
   170   148   184    1
   171   149   150    1
   172   149   185    1
   173   149   186    1
   174   150   151    2
   175   150   152    1
   176   150   164    1
   177   152   153    1
   178   152   187    1
   179   152   188    1
   180   153   154    2
   181   153   155    1
   182   155   156    1
   183   155   160    1
   184   156   157    1
   185   156   189    1
   186   156   190    1
   187   157   158    1
   188   157   159    1
   189   157   191    1
   190   158   192    1
   191   158   193    1
   192   158   194    1
   193   159   195    1
   194   159   196    1
   195   159   197    1
   196   160   161    1
   197   160   198    1
   198   160   199    1
   199   161   162    1
   200   161   163    1
   201   161   200    1
   202   162   201    1
   203   162   202    1
   204   162   203    1
   205   163   204    1
   206   163   205    1
   207   163   206    1
   208   164   165    1
   209   164   169    2
   210   165   166    2
   211   165   207    1
   212   166   167    1
   213   166   208    1
   214   167   168    2
   215   167   209    1
   216   168   169    1
   217   168   210    1
   218   169   211    1
   219   212   213    1
   220   212   240    1
   221   212   241    1
   222   212   242    1
   223   213   214    1
   224   213   243    1
   225   213   244    1
   226   214   215    1
   227   214   245    1
   228   214   246    1
   229   215   216    1
   230   215   247    1
   231   215   248    1
   232   216   217    1
   233   216   249    1
   234   216   250    1
   235   217   218    1
   236   217   251    1
   237   217   252    1
   238   218   219    1
   239   218   253    1
   240   218   254    1
   241   219   220    1
   242   219   255    1
   243   219   256    1
   244   220   221    2
   245   220   222    1
   246   220   234    1
   247   222   223    1
   248   222   257    1
   249   222   258    1
   250   223   224    2
   251   223   225    1
   252   225   226    1
   253   225   230    1
   254   226   227    1
   255   226   259    1
   256   226   260    1
   257   227   228    1
   258   227   229    1
   259   227   261    1
   260   228   262    1
   261   228   263    1
   262   228   264    1
   263   229   265    1
   264   229   266    1
   265   229   267    1
   266   230   231    1
   267   230   268    1
   268   230   269    1
   269   231   232    1
   270   231   233    1
   271   231   270    1
   272   232   271    1
   273   232   272    1
   274   232   273    1
   275   233   274    1
   276   233   275    1
   277   233   276    1
   278   234   235    1
   279   234   239    2
   280   235   236    2
   281   235   277    1
   282   236   237    1
   283   236   278    1
   284   237   238    2
   285   237   279    1
   286   238   239    1
   287   238   280    1
   288   239   281    1
@<TRIPOS>SUBSTRUCTURE
     1 RES1      281 GROUP             0 ****  ****    0  
