@<TRIPOS>MOLECULE
square_prismatic_0_nunpairedes_0_charge_3 Charge: 3 Unpaired_Electrons: 1 XTB_Unpaired_Electrons: 0 XTB_Charge: 3
   157   168     1     0     0
SMALL
NoCharges
****
Generated from Architector

@<TRIPOS>ATOM
     1 Yb1       0.0272    0.0979   -0.0690   Yb        1 RES1   0.0000
     2 C1       -1.1503   -6.2614   -3.9430   C.3       1 RES1   0.0000
     3 C2       -0.0885   -5.2215   -4.2866   C.3       1 RES1   0.0000
     4 C3       -0.7435   -3.8994   -4.6864   C.3       1 RES1   0.0000
     5 C4        0.2705   -2.7881   -4.9950   C.3       1 RES1   0.0000
     6 N1        0.9051   -2.2750   -3.7858   N.am      1 RES1   0.0000
     7 C5        2.3731   -2.3688   -3.7218   C.3       1 RES1   0.0000
     8 C6        3.0401   -2.8422   -2.4293   C.3       1 RES1   0.0000
     9 C7        2.5539   -4.2094   -1.9567   C.3       1 RES1   0.0000
    10 C8        3.3490   -4.7121   -0.7569   C.3       1 RES1   0.0000
    11 C9        0.2080   -1.6641   -2.8306   C.2       1 RES1   0.0000
    12 O1        0.6398   -1.5468   -1.6571   O.2       1 RES1   0.0000
    13 C10      -1.0819   -0.8925   -3.0885   C.ar      1 RES1   0.0000
    14 C11      -2.1479   -1.0896   -3.9807   C.ar      1 RES1   0.0000
    15 C12      -3.2056   -0.2042   -3.9898   C.ar      1 RES1   0.0000
    16 C13      -3.1793    0.9389   -3.1712   C.ar      1 RES1   0.0000
    17 C14      -4.1995    1.9358   -3.1140   C.ar      1 RES1   0.0000
    18 C15      -4.0501    3.0614   -2.3667   C.ar      1 RES1   0.0000
    19 C16      -2.8946    3.2636   -1.5520   C.ar      1 RES1   0.0000
    20 C17      -2.6057    4.4041   -0.7774   C.ar      1 RES1   0.0000
    21 C18      -1.5836    4.3875    0.1476   C.ar      1 RES1   0.0000
    22 C19      -0.8641    3.1957    0.3591   C.ar      1 RES1   0.0000
    23 C20       0.1350    2.8006    1.4428   C.2       1 RES1   0.0000
    24 O2        0.5182    1.6067    1.4229   O.2       1 RES1   0.0000
    25 N2        0.6691    3.6606    2.3119   N.am      1 RES1   0.0000
    26 C21       2.0649    3.5164    2.7579   C.3       1 RES1   0.0000
    27 C22       2.6066    2.1781    3.2744   C.3       1 RES1   0.0000
    28 C23       1.9680    1.6384    4.5509   C.3       1 RES1   0.0000
    29 C24       2.7075    0.4018    5.0550   C.3       1 RES1   0.0000
    30 C25      -0.0650    4.7437    2.9423   C.3       1 RES1   0.0000
    31 C26      -0.2776    4.4575    4.4354   C.3       1 RES1   0.0000
    32 C27      -1.1949    3.2550    4.6802   C.3       1 RES1   0.0000
    33 C28      -1.1682    2.8418    6.1503   C.3       1 RES1   0.0000
    34 N3       -0.9905    2.2040   -0.5205   N.ar      1 RES1   0.0000
    35 C29      -1.9476    2.2227   -1.4566   C.ar      1 RES1   0.0000
    36 C30      -2.0526    1.0768   -2.3299   C.ar      1 RES1   0.0000
    37 N4       -1.0815    0.1574   -2.2616   N.ar      1 RES1   0.0000
    38 H1       -0.6820   -7.1948   -3.6432   H         1 RES1   0.0000
    39 H2       -1.7861   -6.4561   -4.8021   H         1 RES1   0.0000
    40 H3       -1.7766   -5.9043   -3.1258   H         1 RES1   0.0000
    41 H4        0.5445   -5.5871   -5.0967   H         1 RES1   0.0000
    42 H5        0.5454   -5.0615   -3.4148   H         1 RES1   0.0000
    43 H6       -1.3976   -3.6096   -3.8613   H         1 RES1   0.0000
    44 H7       -1.3605   -4.0723   -5.5719   H         1 RES1   0.0000
    45 H8       -0.1979   -1.9690   -5.5420   H         1 RES1   0.0000
    46 H9        1.0333   -3.2088   -5.6509   H         1 RES1   0.0000
    47 H10       2.7617   -1.3712   -3.9506   H         1 RES1   0.0000
    48 H11       2.6885   -3.0363   -4.5241   H         1 RES1   0.0000
    49 H12       2.9096   -2.1091   -1.6305   H         1 RES1   0.0000
    50 H13       4.1096   -2.9060   -2.6460   H         1 RES1   0.0000
    51 H14       2.6553   -4.9300   -2.7723   H         1 RES1   0.0000
    52 H15       1.4979   -4.1244   -1.6813   H         1 RES1   0.0000
    53 H16       4.4039   -4.8125   -1.0017   H         1 RES1   0.0000
    54 H17       2.9797   -5.6864   -0.4496   H         1 RES1   0.0000
    55 H18       3.2512   -4.0247    0.0810   H         1 RES1   0.0000
    56 H19      -2.1784   -1.9300   -4.6496   H         1 RES1   0.0000
    57 H20      -4.0499   -0.3920   -4.6351   H         1 RES1   0.0000
    58 H21      -5.0890    1.7817   -3.7071   H         1 RES1   0.0000
    59 H22      -4.8165    3.8210   -2.3701   H         1 RES1   0.0000
    60 H23      -3.1964    5.2972   -0.8874   H         1 RES1   0.0000
    61 H24      -1.3692    5.2854    0.7013   H         1 RES1   0.0000
    62 H25       2.2234    4.2710    3.5275   H         1 RES1   0.0000
    63 H26       2.6728    3.7927    1.8897   H         1 RES1   0.0000
    64 H27       3.6623    2.3562    3.4898   H         1 RES1   0.0000
    65 H28       2.5555    1.4148    2.4937   H         1 RES1   0.0000
    66 H29       0.9268    1.3763    4.3582   H         1 RES1   0.0000
    67 H30       1.9975    2.4052    5.3281   H         1 RES1   0.0000
    68 H31       2.6828   -0.3925    4.3093   H         1 RES1   0.0000
    69 H32       2.2435    0.0349    5.9665   H         1 RES1   0.0000
    70 H33       3.7468    0.6327    5.2762   H         1 RES1   0.0000
    71 H34      -1.0540    4.8157    2.5070   H         1 RES1   0.0000
    72 H35       0.4698    5.6858    2.8056   H         1 RES1   0.0000
    73 H36      -0.7299    5.3385    4.8937   H         1 RES1   0.0000
    74 H37       0.6743    4.2795    4.9328   H         1 RES1   0.0000
    75 H38      -0.8824    2.4083    4.0594   H         1 RES1   0.0000
    76 H39      -2.2190    3.5043    4.3904   H         1 RES1   0.0000
    77 H40      -0.1572    2.5741    6.4490   H         1 RES1   0.0000
    78 H41      -1.8194    1.9891    6.3326   H         1 RES1   0.0000
    79 H42      -1.5035    3.6624    6.7776   H         1 RES1   0.0000
    80 C31      -7.0025    2.8345   -0.4521   C.3       1 RES1   0.0000
    81 C32      -6.1118    2.9748    0.7796   C.3       1 RES1   0.0000
    82 C33      -5.7651    1.6397    1.4522   C.3       1 RES1   0.0000
    83 C34      -4.8645    0.8046    0.5425   C.3       1 RES1   0.0000
    84 N5       -4.3608   -0.4438    1.1215   N.am      1 RES1   0.0000
    85 C35      -5.3961   -1.3910    1.5116   C.3       1 RES1   0.0000
    86 C36      -5.5113   -2.6600    0.6543   C.3       1 RES1   0.0000
    87 C37      -6.2664   -2.4773   -0.6671   C.3       1 RES1   0.0000
    88 C38      -5.4040   -1.9304   -1.8016   C.3       1 RES1   0.0000
    89 C39      -3.0368   -0.6073    1.1499   C.2       1 RES1   0.0000
    90 O3       -2.2900    0.2967    0.6940   O.2       1 RES1   0.0000
    91 C40      -2.2688   -1.7897    1.7106   C.ar      1 RES1   0.0000
    92 C41      -2.7270   -2.8564    2.4983   C.ar      1 RES1   0.0000
    93 C42      -1.8157   -3.7437    3.0314   C.ar      1 RES1   0.0000
    94 C43      -0.4374   -3.5589    2.8210   C.ar      1 RES1   0.0000
    95 C44       0.5712   -4.3533    3.4408   C.ar      1 RES1   0.0000
    96 C45       1.8877   -4.0653    3.2855   C.ar      1 RES1   0.0000
    97 C46       2.3117   -2.9748    2.4736   C.ar      1 RES1   0.0000
    98 C47       3.6481   -2.5584    2.3558   C.ar      1 RES1   0.0000
    99 C48       3.9876   -1.5078    1.5337   C.ar      1 RES1   0.0000
   100 C49       2.9908   -0.8834    0.7680   C.ar      1 RES1   0.0000
   101 C50       3.1445    0.2330   -0.2513   C.2       1 RES1   0.0000
   102 O4        2.0737    0.8083   -0.5862   O.2       1 RES1   0.0000
   103 N6        4.2873    0.6614   -0.7854   N.am      1 RES1   0.0000
   104 C51       4.1804    1.8644   -1.6139   C.3       1 RES1   0.0000
   105 C52       3.6025    1.6389   -3.0128   C.3       1 RES1   0.0000
   106 C53       4.5315    0.8894   -3.9663   C.3       1 RES1   0.0000
   107 C54       3.9695    0.8644   -5.3854   C.3       1 RES1   0.0000
   108 C55       5.6085    0.0563   -0.7589   C.3       1 RES1   0.0000
   109 C56       6.7142    0.9119   -0.1173   C.3       1 RES1   0.0000
   110 C57       6.4669    1.4460    1.2964   C.3       1 RES1   0.0000
   111 C58       5.5424    2.6591    1.3513   C.3       1 RES1   0.0000
   112 N7        1.7088   -1.2121    0.9506   N.ar      1 RES1   0.0000
   113 C59       1.3524   -2.2070    1.7741   C.ar      1 RES1   0.0000
   114 C60      -0.0589   -2.4813    1.9855   C.ar      1 RES1   0.0000
   115 N8       -0.9628   -1.6548    1.4388   N.ar      1 RES1   0.0000
   116 H43      -7.2581    3.8193   -0.8347   H         1 RES1   0.0000
   117 H44      -7.9306    2.3288   -0.2012   H         1 RES1   0.0000
   118 H45      -6.5142    2.2797   -1.2497   H         1 RES1   0.0000
   119 H46      -6.6387    3.5954    1.5058   H         1 RES1   0.0000
   120 H47      -5.1876    3.4950    0.5082   H         1 RES1   0.0000
   121 H48      -6.6934    1.1167    1.6758   H         1 RES1   0.0000
   122 H49      -5.2504    1.8356    2.3942   H         1 RES1   0.0000
   123 H50      -4.0011    1.4133    0.2797   H         1 RES1   0.0000
   124 H51      -5.4080    0.5494   -0.3694   H         1 RES1   0.0000
   125 H52      -6.3546   -0.8757    1.4382   H         1 RES1   0.0000
   126 H53      -5.2653   -1.6516    2.5623   H         1 RES1   0.0000
   127 H54      -6.0601   -3.3914    1.2503   H         1 RES1   0.0000
   128 H55      -4.5298   -3.0820    0.4389   H         1 RES1   0.0000
   129 H56      -7.1392   -1.8403   -0.5099   H         1 RES1   0.0000
   130 H57      -6.6346   -3.4570   -0.9751   H         1 RES1   0.0000
   131 H58      -5.0653   -0.9147   -1.6125   H         1 RES1   0.0000
   132 H59      -5.9702   -1.9250   -2.7297   H         1 RES1   0.0000
   133 H60      -4.5235   -2.5568   -1.9386   H         1 RES1   0.0000
   134 H61      -3.7744   -2.9872    2.7063   H         1 RES1   0.0000
   135 H62      -2.1598   -4.5664    3.6404   H         1 RES1   0.0000
   136 H63       0.2579   -5.1627    4.0791   H         1 RES1   0.0000
   137 H64       2.6434   -4.6363    3.7992   H         1 RES1   0.0000
   138 H65       4.4167   -3.0638    2.9162   H         1 RES1   0.0000
   139 H66       5.0072   -1.1703    1.5051   H         1 RES1   0.0000
   140 H67       5.1674    2.3162   -1.6914   H         1 RES1   0.0000
   141 H68       3.5120    2.5423   -1.0820   H         1 RES1   0.0000
   142 H69       3.4081    2.6251   -3.4378   H         1 RES1   0.0000
   143 H70       2.6415    1.1230   -2.9298   H         1 RES1   0.0000
   144 H71       4.6839   -0.1370   -3.6209   H         1 RES1   0.0000
   145 H72       5.5043    1.3844   -3.9892   H         1 RES1   0.0000
   146 H73       2.9748    0.4213   -5.4060   H         1 RES1   0.0000
   147 H74       4.6202    0.2853   -6.0353   H         1 RES1   0.0000
   148 H75       3.8966    1.8728   -5.7840   H         1 RES1   0.0000
   149 H76       5.9112   -0.1056   -1.7976   H         1 RES1   0.0000
   150 H77       5.5608   -0.9201   -0.2912   H         1 RES1   0.0000
   151 H78       6.9331    1.7609   -0.7653   H         1 RES1   0.0000
   152 H79       7.6133    0.2921   -0.0967   H         1 RES1   0.0000
   153 H80       7.4350    1.7542    1.6948   H         1 RES1   0.0000
   154 H81       6.0839    0.6636    1.9558   H         1 RES1   0.0000
   155 H82       5.8788    3.4270    0.6597   H         1 RES1   0.0000
   156 H83       5.5608    3.0922    2.3484   H         1 RES1   0.0000
   157 H84       4.5149    2.3965    1.1134   H         1 RES1   0.0000
@<TRIPOS>BOND
     1     1    12    1
     2     1    24    1
     3     1    34    1
     4     1    37    1
     5     1    90    1
     6     1   102    1
     7     1   112    1
     8     1   115    1
     9     2     3    1
    10     2    38    1
    11     2    39    1
    12     2    40    1
    13     3     4    1
    14     3    41    1
    15     3    42    1
    16     4     5    1
    17     4    43    1
    18     4    44    1
    19     5     6    1
    20     5    45    1
    21     5    46    1
    22     6     7    1
    23     6    11    1
    24     7     8    1
    25     7    47    1
    26     7    48    1
    27     8     9    1
    28     8    49    1
    29     8    50    1
    30     9    10    1
    31     9    51    1
    32     9    52    1
    33    10    53    1
    34    10    54    1
    35    10    55    1
    36    11    12    2
    37    11    13    1
    38    13    14    1
    39    13    37    2
    40    14    15    2
    41    14    56    1
    42    15    16    1
    43    15    57    1
    44    16    17    1
    45    16    36    2
    46    17    18    2
    47    17    58    1
    48    18    19    1
    49    18    59    1
    50    19    20    1
    51    19    35    2
    52    20    21    2
    53    20    60    1
    54    21    22    1
    55    21    61    1
    56    22    23    1
    57    22    34    2
    58    23    24    2
    59    23    25    1
    60    25    26    1
    61    25    30    1
    62    26    27    1
    63    26    62    1
    64    26    63    1
    65    27    28    1
    66    27    64    1
    67    27    65    1
    68    28    29    1
    69    28    66    1
    70    28    67    1
    71    29    68    1
    72    29    69    1
    73    29    70    1
    74    30    31    1
    75    30    71    1
    76    30    72    1
    77    31    32    1
    78    31    73    1
    79    31    74    1
    80    32    33    1
    81    32    75    1
    82    32    76    1
    83    33    77    1
    84    33    78    1
    85    33    79    1
    86    34    35    1
    87    35    36    1
    88    36    37    1
    89    80    81    1
    90    80   116    1
    91    80   117    1
    92    80   118    1
    93    81    82    1
    94    81   119    1
    95    81   120    1
    96    82    83    1
    97    82   121    1
    98    82   122    1
    99    83    84    1
   100    83   123    1
   101    83   124    1
   102    84    85    1
   103    84    89    1
   104    85    86    1
   105    85   125    1
   106    85   126    1
   107    86    87    1
   108    86   127    1
   109    86   128    1
   110    87    88    1
   111    87   129    1
   112    87   130    1
   113    88   131    1
   114    88   132    1
   115    88   133    1
   116    89    90    2
   117    89    91    1
   118    91    92    1
   119    91   115    2
   120    92    93    2
   121    92   134    1
   122    93    94    1
   123    93   135    1
   124    94    95    1
   125    94   114    2
   126    95    96    2
   127    95   136    1
   128    96    97    1
   129    96   137    1
   130    97    98    1
   131    97   113    2
   132    98    99    2
   133    98   138    1
   134    99   100    1
   135    99   139    1
   136   100   101    1
   137   100   112    2
   138   101   102    2
   139   101   103    1
   140   103   104    1
   141   103   108    1
   142   104   105    1
   143   104   140    1
   144   104   141    1
   145   105   106    1
   146   105   142    1
   147   105   143    1
   148   106   107    1
   149   106   144    1
   150   106   145    1
   151   107   146    1
   152   107   147    1
   153   107   148    1
   154   108   109    1
   155   108   149    1
   156   108   150    1
   157   109   110    1
   158   109   151    1
   159   109   152    1
   160   110   111    1
   161   110   153    1
   162   110   154    1
   163   111   155    1
   164   111   156    1
   165   111   157    1
   166   112   113    1
   167   113   114    1
   168   114   115    1
@<TRIPOS>SUBSTRUCTURE
     1 RES1      157 GROUP             0 ****  ****    0  
