@<TRIPOS>MOLECULE
ICIGOT_geomtry_0_nunpairedes_0_charge_3 Charge: 3 Unpaired_Electrons: 1 XTB_Unpaired_Electrons: 0 XTB_Charge: 3
   145   158     1     0     0
SMALL
NoCharges
****
Generated from Architector

@<TRIPOS>ATOM
     1 Yb1      -0.0032    0.0497    0.0558   Yb        1 RES1   0.0000
     2 C1       -4.5109   -4.8853   -0.6295   C.3       1 RES1   0.0000
     3 C2       -3.8593   -3.6716   -1.2840   C.3       1 RES1   0.0000
     4 N1       -2.4759   -3.4847   -0.8574   N.am      1 RES1   0.0000
     5 C3       -2.0451   -2.3769   -0.2601   C.2       1 RES1   0.0000
     6 O1       -0.8286   -2.0643   -0.2505   O.2       1 RES1   0.0000
     7 C4       -2.9489   -1.4374    0.4720   C.ar      1 RES1   0.0000
     8 C5       -4.1521   -1.7527    1.1000   C.ar      1 RES1   0.0000
     9 C6       -4.8276   -0.7378    1.7618   C.ar      1 RES1   0.0000
    10 C7       -4.2781    0.5335    1.8219   C.ar      1 RES1   0.0000
    11 C8       -3.0138    0.7429    1.2583   C.ar      1 RES1   0.0000
    12 C9       -2.3099    2.0520    1.2732   C.ar      1 RES1   0.0000
    13 C10      -3.0254    3.2489    1.3626   C.ar      1 RES1   0.0000
    14 C11      -2.3406    4.4285    1.1278   C.ar      1 RES1   0.0000
    15 C12      -0.9744    4.4026    0.8643   C.ar      1 RES1   0.0000
    16 C13      -0.2894    3.1842    0.9400   C.ar      1 RES1   0.0000
    17 C14       1.1978    2.8767    0.7114   C.2       1 RES1   0.0000
    18 O2        1.3505    1.7365    0.1935   O.2       1 RES1   0.0000
    19 N2        2.1969    3.6931    1.0778   N.am      1 RES1   0.0000
    20 C15       1.8372    4.9988    1.6195   C.3       1 RES1   0.0000
    21 C16       1.9081    6.0951    0.5554   C.3       1 RES1   0.0000
    22 C17       3.6155    3.4025    0.9712   C.ar      1 RES1   0.0000
    23 C18       3.9980    2.2395    0.2864   C.ar      1 RES1   0.0000
    24 C19       5.3072    1.8111    0.1604   C.ar      1 RES1   0.0000
    25 C20       5.6601    0.5268   -0.5172   C.3       1 RES1   0.0000
    26 C21       6.3166    2.6015    0.6860   C.ar      1 RES1   0.0000
    27 C22       5.9722    3.7616    1.3325   C.ar      1 RES1   0.0000
    28 C23       4.6573    4.1944    1.5274   C.ar      1 RES1   0.0000
    29 C24       4.6253    5.4663    2.3410   C.3       1 RES1   0.0000
    30 N3       -0.9809    2.0385    1.1013   N.ar      1 RES1   0.0000
    31 N4       -2.3798   -0.2308    0.5989   N.ar      1 RES1   0.0000
    32 C25      -1.5329   -4.5093   -1.1865   C.ar      1 RES1   0.0000
    33 C26      -1.5783   -5.1090   -2.4418   C.ar      1 RES1   0.0000
    34 C27      -0.7502   -6.1685   -2.7718   C.ar      1 RES1   0.0000
    35 C28      -0.8765   -6.8732   -4.0795   C.3       1 RES1   0.0000
    36 C29       0.1864   -6.5835   -1.8302   C.ar      1 RES1   0.0000
    37 C30       0.2558   -5.9764   -0.5960   C.ar      1 RES1   0.0000
    38 C31      -0.6115   -4.9529   -0.2291   C.ar      1 RES1   0.0000
    39 C32      -0.5659   -4.4527    1.1807   C.3       1 RES1   0.0000
    40 H1       -5.5461   -4.9677   -0.9523   H         1 RES1   0.0000
    41 H2       -4.4878   -4.8128    0.4556   H         1 RES1   0.0000
    42 H3       -4.0001   -5.8011   -0.9173   H         1 RES1   0.0000
    43 H4       -4.4180   -2.7556   -1.0846   H         1 RES1   0.0000
    44 H5       -3.8676   -3.8108   -2.3677   H         1 RES1   0.0000
    45 H6       -4.5581   -2.7521    1.1018   H         1 RES1   0.0000
    46 H7       -5.7758   -0.9422    2.2329   H         1 RES1   0.0000
    47 H8       -4.8224    1.3182    2.3251   H         1 RES1   0.0000
    48 H9       -4.0929    3.2640    1.5315   H         1 RES1   0.0000
    49 H10      -2.8690    5.3728    1.1092   H         1 RES1   0.0000
    50 H11      -0.5098    5.3301    0.5670   H         1 RES1   0.0000
    51 H12       2.5093    5.2396    2.4330   H         1 RES1   0.0000
    52 H13       0.8430    4.9369    2.0584   H         1 RES1   0.0000
    53 H14       2.8991    6.1815    0.1176   H         1 RES1   0.0000
    54 H15       1.6573    7.0460    1.0175   H         1 RES1   0.0000
    55 H16       1.2325    5.9211   -0.2787   H         1 RES1   0.0000
    56 H17       3.2554    1.6225   -0.1866   H         1 RES1   0.0000
    57 H18       4.7794   -0.0073   -0.8627   H         1 RES1   0.0000
    58 H19       6.2100   -0.1104    0.1735   H         1 RES1   0.0000
    59 H20       6.3109    0.7161   -1.3682   H         1 RES1   0.0000
    60 H21       7.3529    2.3201    0.5873   H         1 RES1   0.0000
    61 H22       6.7746    4.3723    1.7175   H         1 RES1   0.0000
    62 H23       5.6476    5.7821    2.5334   H         1 RES1   0.0000
    63 H24       4.1772    5.3268    3.3233   H         1 RES1   0.0000
    64 H25       4.1539    6.3010    1.8347   H         1 RES1   0.0000
    65 H26      -2.2892   -4.7682   -3.1771   H         1 RES1   0.0000
    66 H27      -1.6675   -6.4547   -4.6928   H         1 RES1   0.0000
    67 H28      -1.0996   -7.9233   -3.9075   H         1 RES1   0.0000
    68 H29       0.0546   -6.8325   -4.6378   H         1 RES1   0.0000
    69 H30       0.8421   -7.4052   -2.0628   H         1 RES1   0.0000
    70 H31       0.9712   -6.3315    0.1301   H         1 RES1   0.0000
    71 H32       0.1463   -5.0366    1.7555   H         1 RES1   0.0000
    72 H33      -1.5425   -4.5390    1.6535   H         1 RES1   0.0000
    73 H34      -0.2646   -3.4068    1.2376   H         1 RES1   0.0000
    74 C33      -1.9878    1.0789   -6.3332   C.3       1 RES1   0.0000
    75 C34      -2.2181    0.3760   -4.9995   C.3       1 RES1   0.0000
    76 N5       -1.8284    1.1687   -3.8343   N.am      1 RES1   0.0000
    77 C35      -0.9549    0.7276   -2.9234   C.2       1 RES1   0.0000
    78 O3       -0.9721    1.1472   -1.7360   O.2       1 RES1   0.0000
    79 C36       0.1277   -0.2747   -3.2391   C.ar      1 RES1   0.0000
    80 C37       0.6401   -0.5945   -4.4967   C.ar      1 RES1   0.0000
    81 C38       1.6235   -1.5712   -4.5820   C.ar      1 RES1   0.0000
    82 C39       2.1010   -2.1761   -3.4312   C.ar      1 RES1   0.0000
    83 C40       1.6370   -1.7124   -2.1956   C.ar      1 RES1   0.0000
    84 C41       2.1488   -2.2403   -0.9004   C.ar      1 RES1   0.0000
    85 C42       2.7981   -3.4759   -0.8258   C.ar      1 RES1   0.0000
    86 C43       3.0922   -3.9825    0.4262   C.ar      1 RES1   0.0000
    87 C44       2.7420   -3.2672    1.5658   C.ar      1 RES1   0.0000
    88 C45       2.1954   -1.9882    1.4250   C.ar      1 RES1   0.0000
    89 C46       1.6842   -1.0115    2.4960   C.2       1 RES1   0.0000
    90 O4        0.6407   -0.4215    2.1061   O.2       1 RES1   0.0000
    91 N6        2.3093   -0.7855    3.6627   N.am      1 RES1   0.0000
    92 C47       3.3503   -1.7373    4.0448   C.3       1 RES1   0.0000
    93 C48       2.7789   -2.8889    4.8764   C.3       1 RES1   0.0000
    94 C49       2.0227    0.2977    4.5899   C.ar      1 RES1   0.0000
    95 C50       0.9787    1.1846    4.2773   C.ar      1 RES1   0.0000
    96 C51       0.6490    2.2916    5.0403   C.ar      1 RES1   0.0000
    97 C52      -0.4396    3.2474    4.6637   C.3       1 RES1   0.0000
    98 C53       1.3572    2.5257    6.2077   C.ar      1 RES1   0.0000
    99 C54       2.3711    1.6669    6.5460   C.ar      1 RES1   0.0000
   100 C55       2.7585    0.5661    5.7762   C.ar      1 RES1   0.0000
   101 C56       3.9529   -0.1234    6.3903   C.3       1 RES1   0.0000
   102 N7        1.9047   -1.5132    0.1982   N.ar      1 RES1   0.0000
   103 N8        0.6755   -0.7850   -2.1238   N.ar      1 RES1   0.0000
   104 C57      -2.5756    2.3757   -3.6110   C.ar      1 RES1   0.0000
   105 C58      -3.9445    2.4117   -3.8826   C.ar      1 RES1   0.0000
   106 C59      -4.6874    3.5756   -3.7663   C.ar      1 RES1   0.0000
   107 C60      -6.1398    3.6267   -4.1082   C.3       1 RES1   0.0000
   108 C61      -4.0429    4.7280   -3.3261   C.ar      1 RES1   0.0000
   109 C62      -2.6948    4.7041   -3.0511   C.ar      1 RES1   0.0000
   110 C63      -1.9290    3.5518   -3.2068   C.ar      1 RES1   0.0000
   111 C64      -0.4516    3.6656   -3.0066   C.3       1 RES1   0.0000
   112 H35      -2.2854    0.4103   -7.1377   H         1 RES1   0.0000
   113 H36      -0.9465    1.3550   -6.4807   H         1 RES1   0.0000
   114 H37      -2.5897    1.9806   -6.4122   H         1 RES1   0.0000
   115 H38      -1.7062   -0.5851   -4.9625   H         1 RES1   0.0000
   116 H39      -3.2852    0.1586   -4.9109   H         1 RES1   0.0000
   117 H40       0.3149   -0.1003   -5.3974   H         1 RES1   0.0000
   118 H41       2.0248   -1.8528   -5.5437   H         1 RES1   0.0000
   119 H42       2.8430   -2.9556   -3.5093   H         1 RES1   0.0000
   120 H43       3.0223   -4.0602   -1.7046   H         1 RES1   0.0000
   121 H44       3.5573   -4.9531    0.5296   H         1 RES1   0.0000
   122 H45       2.8759   -3.7531    2.5175   H         1 RES1   0.0000
   123 H46       4.1201   -1.2314    4.6099   H         1 RES1   0.0000
   124 H47       3.8412   -2.1091    3.1471   H         1 RES1   0.0000
   125 H48       2.3494   -2.5517    5.8161   H         1 RES1   0.0000
   126 H49       3.5829   -3.5811    5.1099   H         1 RES1   0.0000
   127 H50       1.9852   -3.4304    4.3662   H         1 RES1   0.0000
   128 H51       0.3720    1.0147    3.4056   H         1 RES1   0.0000
   129 H52      -0.9267    2.9753    3.7329   H         1 RES1   0.0000
   130 H53      -0.0253    4.2506    4.5714   H         1 RES1   0.0000
   131 H54      -1.1909    3.2844    5.4503   H         1 RES1   0.0000
   132 H55       1.1164    3.3609    6.8449   H         1 RES1   0.0000
   133 H56       2.9014    1.8596    7.4660   H         1 RES1   0.0000
   134 H57       4.1708    0.3445    7.3470   H         1 RES1   0.0000
   135 H58       4.8555    0.0060    5.7941   H         1 RES1   0.0000
   136 H59       3.7912   -1.1738    6.6048   H         1 RES1   0.0000
   137 H60      -4.4637    1.5253   -4.2097   H         1 RES1   0.0000
   138 H61      -6.5159    2.6720   -4.4610   H         1 RES1   0.0000
   139 H62      -6.3130    4.3692   -4.8848   H         1 RES1   0.0000
   140 H63      -6.7233    3.9300   -3.2414   H         1 RES1   0.0000
   141 H64      -4.6003    5.6449   -3.2239   H         1 RES1   0.0000
   142 H65      -2.2029    5.6150   -2.7424   H         1 RES1   0.0000
   143 H66      -0.1884    4.7038   -2.8283   H         1 RES1   0.0000
   144 H67       0.0882    3.3294   -3.8896   H         1 RES1   0.0000
   145 H68      -0.1056    3.0765   -2.1569   H         1 RES1   0.0000
@<TRIPOS>BOND
     1     1     6    1
     2     1    18    1
     3     1    30    1
     4     1    31    1
     5     1    78    1
     6     1    90    1
     7     1   102    1
     8     1   103    1
     9     2     3    1
    10     2    40    1
    11     2    41    1
    12     2    42    1
    13     3     4    1
    14     3    43    1
    15     3    44    1
    16     4     5    1
    17     4    32    1
    18     5     6    2
    19     5     7    1
    20     7     8    1
    21     7    31    2
    22     8     9    2
    23     8    45    1
    24     9    10    1
    25     9    46    1
    26    10    11    2
    27    10    47    1
    28    11    12    1
    29    11    31    1
    30    12    13    1
    31    12    30    2
    32    13    14    2
    33    13    48    1
    34    14    15    1
    35    14    49    1
    36    15    16    2
    37    15    50    1
    38    16    17    1
    39    16    30    1
    40    17    18    2
    41    17    19    1
    42    19    20    1
    43    19    22    1
    44    20    21    1
    45    20    51    1
    46    20    52    1
    47    21    53    1
    48    21    54    1
    49    21    55    1
    50    22    23    1
    51    22    28    2
    52    23    24    2
    53    23    56    1
    54    24    25    1
    55    24    26    1
    56    25    57    1
    57    25    58    1
    58    25    59    1
    59    26    27    2
    60    26    60    1
    61    27    28    1
    62    27    61    1
    63    28    29    1
    64    29    62    1
    65    29    63    1
    66    29    64    1
    67    32    33    1
    68    32    38    2
    69    33    34    2
    70    33    65    1
    71    34    35    1
    72    34    36    1
    73    35    66    1
    74    35    67    1
    75    35    68    1
    76    36    37    2
    77    36    69    1
    78    37    38    1
    79    37    70    1
    80    38    39    1
    81    39    71    1
    82    39    72    1
    83    39    73    1
    84    74    75    1
    85    74   112    1
    86    74   113    1
    87    74   114    1
    88    75    76    1
    89    75   115    1
    90    75   116    1
    91    76    77    1
    92    76   104    1
    93    77    78    2
    94    77    79    1
    95    79    80    1
    96    79   103    2
    97    80    81    2
    98    80   117    1
    99    81    82    1
   100    81   118    1
   101    82    83    2
   102    82   119    1
   103    83    84    1
   104    83   103    1
   105    84    85    1
   106    84   102    2
   107    85    86    2
   108    85   120    1
   109    86    87    1
   110    86   121    1
   111    87    88    2
   112    87   122    1
   113    88    89    1
   114    88   102    1
   115    89    90    2
   116    89    91    1
   117    91    92    1
   118    91    94    1
   119    92    93    1
   120    92   123    1
   121    92   124    1
   122    93   125    1
   123    93   126    1
   124    93   127    1
   125    94    95    1
   126    94   100    2
   127    95    96    2
   128    95   128    1
   129    96    97    1
   130    96    98    1
   131    97   129    1
   132    97   130    1
   133    97   131    1
   134    98    99    2
   135    98   132    1
   136    99   100    1
   137    99   133    1
   138   100   101    1
   139   101   134    1
   140   101   135    1
   141   101   136    1
   142   104   105    1
   143   104   110    2
   144   105   106    2
   145   105   137    1
   146   106   107    1
   147   106   108    1
   148   107   138    1
   149   107   139    1
   150   107   140    1
   151   108   109    2
   152   108   141    1
   153   109   110    1
   154   109   142    1
   155   110   111    1
   156   111   143    1
   157   111   144    1
   158   111   145    1
@<TRIPOS>SUBSTRUCTURE
     1 RES1      145 GROUP             0 ****  ****    0  
