@<TRIPOS>MOLECULE
square_prismatic_0_nunpairedes_0_charge_3 Charge: 3 Unpaired_Electrons: 1 XTB_Unpaired_Electrons: 0 XTB_Charge: 3
   145   158     1     0     0
SMALL
NoCharges
****
Generated from Architector

@<TRIPOS>ATOM
     1 Yb1       0.1654    0.0236    0.0065   Yb        1 RES1   0.0000
     2 C1        1.1748   -4.2595   -5.0005   C.3       1 RES1   0.0000
     3 C2        0.9584   -4.2322   -3.4898   C.3       1 RES1   0.0000
     4 N1        0.0752   -3.1609   -3.0323   N.am      1 RES1   0.0000
     5 C3        0.4553   -2.1771   -2.2048   C.2       1 RES1   0.0000
     6 O1       -0.3941   -1.4813   -1.5916   O.2       1 RES1   0.0000
     7 C4        1.9041   -1.7794   -1.9565   C.ar      1 RES1   0.0000
     8 C5        3.0040   -2.0151   -2.7831   C.ar      1 RES1   0.0000
     9 C6        4.2286   -1.4671   -2.4239   C.ar      1 RES1   0.0000
    10 C7        4.3356   -0.6368   -1.3191   C.ar      1 RES1   0.0000
    11 C8        3.1839   -0.3779   -0.5735   C.ar      1 RES1   0.0000
    12 C9        3.1892    0.5997    0.5616   C.ar      1 RES1   0.0000
    13 C10       4.3639    1.0510    1.1712   C.ar      1 RES1   0.0000
    14 C11       4.2718    1.9906    2.1861   C.ar      1 RES1   0.0000
    15 C12       3.0373    2.4710    2.6051   C.ar      1 RES1   0.0000
    16 C13       1.9032    1.9688    1.9720   C.ar      1 RES1   0.0000
    17 C14       0.4617    2.3485    2.2400   C.2       1 RES1   0.0000
    18 O2       -0.3994    1.7506    1.5423   O.2       1 RES1   0.0000
    19 N2        0.1014    3.3036    3.0963   N.am      1 RES1   0.0000
    20 C15      -1.3218    3.6697    3.1783   C.3       1 RES1   0.0000
    21 C16      -2.1452    2.6749    3.9852   C.3       1 RES1   0.0000
    22 C17       0.8900    3.9030    4.1355   C.ar      1 RES1   0.0000
    23 C18       1.2785    3.1120    5.2174   C.ar      1 RES1   0.0000
    24 C19       1.9281    3.6717    6.2987   C.ar      1 RES1   0.0000
    25 C20       2.1886    5.0382    6.3427   C.ar      1 RES1   0.0000
    26 C21       2.8791    5.6695    7.5042   C.3       1 RES1   0.0000
    27 C22       1.7741    5.8110    5.2665   C.ar      1 RES1   0.0000
    28 C23       1.1226    5.2814    4.1595   C.ar      1 RES1   0.0000
    29 C24       0.7216    6.2275    3.0677   C.3       1 RES1   0.0000
    30 N3        2.0054    1.0665    0.9786   N.ar      1 RES1   0.0000
    31 N4        2.0281   -0.9699   -0.8944   N.ar      1 RES1   0.0000
    32 C25      -1.2896   -3.1856   -3.5161   C.ar      1 RES1   0.0000
    33 C26      -1.8236   -1.9493   -3.8977   C.ar      1 RES1   0.0000
    34 C27      -3.1132   -1.8138   -4.3694   C.ar      1 RES1   0.0000
    35 C28      -3.9222   -2.9317   -4.5238   C.ar      1 RES1   0.0000
    36 C29      -5.3200   -2.8434   -5.0420   C.3       1 RES1   0.0000
    37 C30      -3.3721   -4.1599   -4.1875   C.ar      1 RES1   0.0000
    38 C31      -2.0864   -4.3383   -3.6807   C.ar      1 RES1   0.0000
    39 C32      -1.7147   -5.7651   -3.3701   C.3       1 RES1   0.0000
    40 H1        1.8685   -5.0654   -5.2207   H         1 RES1   0.0000
    41 H2        1.5816   -3.3300   -5.3908   H         1 RES1   0.0000
    42 H3        0.2484   -4.4610   -5.5307   H         1 RES1   0.0000
    43 H4        1.9013   -4.1671   -2.9495   H         1 RES1   0.0000
    44 H5        0.4939   -5.1702   -3.1889   H         1 RES1   0.0000
    45 H6        2.9272   -2.5540   -3.7129   H         1 RES1   0.0000
    46 H7        5.0891   -1.6623   -3.0427   H         1 RES1   0.0000
    47 H8        5.2749   -0.1567   -1.0953   H         1 RES1   0.0000
    48 H9        5.3324    0.6732    0.8892   H         1 RES1   0.0000
    49 H10       5.1690    2.3463    2.6666   H         1 RES1   0.0000
    50 H11       2.9744    3.1878    3.4115   H         1 RES1   0.0000
    51 H12      -1.7152    3.7388    2.1612   H         1 RES1   0.0000
    52 H13      -1.3752    4.6513    3.6506   H         1 RES1   0.0000
    53 H14      -2.1082    1.6911    3.5246   H         1 RES1   0.0000
    54 H15      -3.1735    3.0202    3.9967   H         1 RES1   0.0000
    55 H16      -1.8030    2.6160    5.0150   H         1 RES1   0.0000
    56 H17       1.0605    2.0530    5.2090   H         1 RES1   0.0000
    57 H18       2.2218    3.0448    7.1245   H         1 RES1   0.0000
    58 H19       3.1405    4.9245    8.2521   H         1 RES1   0.0000
    59 H20       2.2332    6.4214    7.9580   H         1 RES1   0.0000
    60 H21       3.7824    6.1810    7.1706   H         1 RES1   0.0000
    61 H22       1.9582    6.8731    5.2932   H         1 RES1   0.0000
    62 H23       1.5993    6.7814    2.7404   H         1 RES1   0.0000
    63 H24       0.0134    6.9520    3.4683   H         1 RES1   0.0000
    64 H25       0.2761    5.7343    2.2085   H         1 RES1   0.0000
    65 H26      -1.2087   -1.0606   -3.8465   H         1 RES1   0.0000
    66 H27      -3.4886   -0.8385   -4.6455   H         1 RES1   0.0000
    67 H28      -5.5873   -1.8111   -5.2545   H         1 RES1   0.0000
    68 H29      -6.0216   -3.2593   -4.3186   H         1 RES1   0.0000
    69 H30      -5.4202   -3.4310   -5.9547   H         1 RES1   0.0000
    70 H31      -3.9913   -5.0314   -4.3343   H         1 RES1   0.0000
    71 H32      -2.6012   -6.3942   -3.4352   H         1 RES1   0.0000
    72 H33      -1.3039   -5.8745   -2.3681   H         1 RES1   0.0000
    73 H34      -1.0092   -6.1625   -4.0999   H         1 RES1   0.0000
    74 C33       2.3815   -1.4885    4.0446   C.3       1 RES1   0.0000
    75 C34       1.8557   -2.7533    3.3779   C.3       1 RES1   0.0000
    76 N5        0.4023   -2.7272    3.2076   N.am      1 RES1   0.0000
    77 C35      -0.0570   -2.0681    2.1536   C.2       1 RES1   0.0000
    78 O3        0.7560   -1.5403    1.3525   O.2       1 RES1   0.0000
    79 C36      -1.5066   -1.9621    1.7699   C.ar      1 RES1   0.0000
    80 C37      -2.5317   -2.8398    2.1082   C.ar      1 RES1   0.0000
    81 C38      -3.7545   -2.6808    1.4686   C.ar      1 RES1   0.0000
    82 C39      -3.9167   -1.6977    0.5006   C.ar      1 RES1   0.0000
    83 C40      -2.8521   -0.8371    0.2338   C.ar      1 RES1   0.0000
    84 C41      -2.8630    0.2149   -0.8199   C.ar      1 RES1   0.0000
    85 C42      -3.9372    0.4731   -1.6718   C.ar      1 RES1   0.0000
    86 C43      -3.7836    1.4320   -2.6649   C.ar      1 RES1   0.0000
    87 C44      -2.5620    2.0726   -2.8387   C.ar      1 RES1   0.0000
    88 C45      -1.5296    1.7423   -1.9669   C.ar      1 RES1   0.0000
    89 C46      -0.0750    2.1056   -2.1118   C.2       1 RES1   0.0000
    90 O4        0.7441    1.2926   -1.6086   O.2       1 RES1   0.0000
    91 N6        0.3797    3.1444   -2.7940   N.am      1 RES1   0.0000
    92 C47       1.8310    3.2640   -2.9496   C.3       1 RES1   0.0000
    93 C48       2.4593    4.1084   -1.8483   C.3       1 RES1   0.0000
    94 C49      -0.3911    4.2773   -3.1646   C.ar      1 RES1   0.0000
    95 C50      -0.3281    4.7235   -4.4812   C.ar      1 RES1   0.0000
    96 C51      -1.0073    5.8618   -4.8583   C.ar      1 RES1   0.0000
    97 C52      -1.7683    6.5677   -3.9321   C.ar      1 RES1   0.0000
    98 C53      -2.5514    7.7760   -4.3137   C.3       1 RES1   0.0000
    99 C54      -1.7825    6.1262   -2.6140   C.ar      1 RES1   0.0000
   100 C55      -1.0946    4.9968   -2.1959   C.ar      1 RES1   0.0000
   101 C56      -1.0734    4.6344   -0.7393   C.3       1 RES1   0.0000
   102 N7       -1.7080    0.8666   -0.9738   N.ar      1 RES1   0.0000
   103 N8       -1.6925   -0.9768    0.8843   N.ar      1 RES1   0.0000
   104 C57      -0.3670   -2.9933    4.3703   C.ar      1 RES1   0.0000
   105 C58      -1.1168   -1.9298    4.8747   C.ar      1 RES1   0.0000
   106 C59      -1.8019   -2.0605    6.0595   C.ar      1 RES1   0.0000
   107 C60      -1.7312   -3.2491    6.7796   C.ar      1 RES1   0.0000
   108 C61      -2.4433   -3.3936    8.0800   C.3       1 RES1   0.0000
   109 C62      -0.9756   -4.2924    6.2603   C.ar      1 RES1   0.0000
   110 C63      -0.2832   -4.2073    5.0575   C.ar      1 RES1   0.0000
   111 C64       0.4776   -5.4184    4.5955   C.3       1 RES1   0.0000
   112 H35       3.4562   -1.5967    4.1415   H         1 RES1   0.0000
   113 H36       1.9509   -1.3709    5.0353   H         1 RES1   0.0000
   114 H37       2.1647   -0.6003    3.4526   H         1 RES1   0.0000
   115 H38       2.1036   -3.6150    3.9922   H         1 RES1   0.0000
   116 H39       2.2930   -2.8669    2.3844   H         1 RES1   0.0000
   117 H40      -2.3638   -3.6244    2.8300   H         1 RES1   0.0000
   118 H41      -4.5634   -3.3506    1.7093   H         1 RES1   0.0000
   119 H42      -4.8362   -1.6227   -0.0564   H         1 RES1   0.0000
   120 H43      -4.8532   -0.0896   -1.5806   H         1 RES1   0.0000
   121 H44      -4.6061    1.6536   -3.3252   H         1 RES1   0.0000
   122 H45      -2.3988    2.7806   -3.6359   H         1 RES1   0.0000
   123 H46       2.0240    3.7199   -3.9204   H         1 RES1   0.0000
   124 H47       2.2396    2.2511   -2.9319   H         1 RES1   0.0000
   125 H48       2.0642    5.1202   -1.8718   H         1 RES1   0.0000
   126 H49       3.5300    4.1465   -2.0198   H         1 RES1   0.0000
   127 H50       2.2782    3.6772   -0.8649   H         1 RES1   0.0000
   128 H51       0.2501    4.1792   -5.2128   H         1 RES1   0.0000
   129 H52      -0.9330    6.2107   -5.8741   H         1 RES1   0.0000
   130 H53      -2.4430    7.9991   -5.3715   H         1 RES1   0.0000
   131 H54      -2.2253    8.6362   -3.7301   H         1 RES1   0.0000
   132 H55      -3.6046    7.6119   -4.0862   H         1 RES1   0.0000
   133 H56      -2.3297    6.7065   -1.8882   H         1 RES1   0.0000
   134 H57      -0.8079    5.5229   -0.1690   H         1 RES1   0.0000
   135 H58      -0.3567    3.8445   -0.5119   H         1 RES1   0.0000
   136 H59      -2.0613    4.3036   -0.4221   H         1 RES1   0.0000
   137 H60      -1.1206   -0.9860    4.3424   H         1 RES1   0.0000
   138 H61      -2.3706   -1.2299    6.4437   H         1 RES1   0.0000
   139 H62      -2.9800   -2.4802    8.3255   H         1 RES1   0.0000
   140 H63      -1.7344   -3.6191    8.8756   H         1 RES1   0.0000
   141 H64      -3.1486   -4.2219    8.0295   H         1 RES1   0.0000
   142 H65      -0.9190   -5.2086    6.8251   H         1 RES1   0.0000
   143 H66      -0.1830   -6.2835    4.6292   H         1 RES1   0.0000
   144 H67       1.2949   -5.6211    5.2886   H         1 RES1   0.0000
   145 H68       0.8828   -5.3357    3.5900   H         1 RES1   0.0000
@<TRIPOS>BOND
     1     1     6    1
     2     1    18    1
     3     1    30    1
     4     1    31    1
     5     1    78    1
     6     1    90    1
     7     1   102    1
     8     1   103    1
     9     2     3    1
    10     2    40    1
    11     2    41    1
    12     2    42    1
    13     3     4    1
    14     3    43    1
    15     3    44    1
    16     4     5    1
    17     4    32    1
    18     5     6    2
    19     5     7    1
    20     7     8    1
    21     7    31    2
    22     8     9    2
    23     8    45    1
    24     9    10    1
    25     9    46    1
    26    10    11    2
    27    10    47    1
    28    11    12    1
    29    11    31    1
    30    12    13    1
    31    12    30    2
    32    13    14    2
    33    13    48    1
    34    14    15    1
    35    14    49    1
    36    15    16    2
    37    15    50    1
    38    16    17    1
    39    16    30    1
    40    17    18    2
    41    17    19    1
    42    19    20    1
    43    19    22    1
    44    20    21    1
    45    20    51    1
    46    20    52    1
    47    21    53    1
    48    21    54    1
    49    21    55    1
    50    22    23    1
    51    22    28    2
    52    23    24    2
    53    23    56    1
    54    24    25    1
    55    24    57    1
    56    25    26    1
    57    25    27    2
    58    26    58    1
    59    26    59    1
    60    26    60    1
    61    27    28    1
    62    27    61    1
    63    28    29    1
    64    29    62    1
    65    29    63    1
    66    29    64    1
    67    32    33    1
    68    32    38    2
    69    33    34    2
    70    33    65    1
    71    34    35    1
    72    34    66    1
    73    35    36    1
    74    35    37    2
    75    36    67    1
    76    36    68    1
    77    36    69    1
    78    37    38    1
    79    37    70    1
    80    38    39    1
    81    39    71    1
    82    39    72    1
    83    39    73    1
    84    74    75    1
    85    74   112    1
    86    74   113    1
    87    74   114    1
    88    75    76    1
    89    75   115    1
    90    75   116    1
    91    76    77    1
    92    76   104    1
    93    77    78    2
    94    77    79    1
    95    79    80    1
    96    79   103    2
    97    80    81    2
    98    80   117    1
    99    81    82    1
   100    81   118    1
   101    82    83    2
   102    82   119    1
   103    83    84    1
   104    83   103    1
   105    84    85    1
   106    84   102    2
   107    85    86    2
   108    85   120    1
   109    86    87    1
   110    86   121    1
   111    87    88    2
   112    87   122    1
   113    88    89    1
   114    88   102    1
   115    89    90    2
   116    89    91    1
   117    91    92    1
   118    91    94    1
   119    92    93    1
   120    92   123    1
   121    92   124    1
   122    93   125    1
   123    93   126    1
   124    93   127    1
   125    94    95    1
   126    94   100    2
   127    95    96    2
   128    95   128    1
   129    96    97    1
   130    96   129    1
   131    97    98    1
   132    97    99    2
   133    98   130    1
   134    98   131    1
   135    98   132    1
   136    99   100    1
   137    99   133    1
   138   100   101    1
   139   101   134    1
   140   101   135    1
   141   101   136    1
   142   104   105    1
   143   104   110    2
   144   105   106    2
   145   105   137    1
   146   106   107    1
   147   106   138    1
   148   107   108    1
   149   107   109    2
   150   108   139    1
   151   108   140    1
   152   108   141    1
   153   109   110    1
   154   109   142    1
   155   110   111    1
   156   111   143    1
   157   111   144    1
   158   111   145    1
@<TRIPOS>SUBSTRUCTURE
     1 RES1      145 GROUP             0 ****  ****    0  
