@<TRIPOS>MOLECULE
ICIGOT_geomtry_0_nunpairedes_0_charge_3 Charge: 3 Unpaired_Electrons: 1 XTB_Unpaired_Electrons: 0 XTB_Charge: 3
   149   152     1     0     0
SMALL
NoCharges
****
Generated from Architector

@<TRIPOS>ATOM
     1 Yb1      -0.0638   -0.1480    0.1262   Yb        1 RES1   0.0000
     2 C1       -6.2358    0.6806   -1.6035   C.3       1 RES1   0.0000
     3 C2       -6.6279    0.2197   -0.2040   C.3       1 RES1   0.0000
     4 C3       -6.3479    1.2842    0.8595   C.3       1 RES1   0.0000
     5 C4       -4.8689    1.3414    1.2338   C.3       1 RES1   0.0000
     6 C5       -4.5247    2.4528    2.2269   C.3       1 RES1   0.0000
     7 C6       -4.7371    3.8771    1.7100   C.3       1 RES1   0.0000
     8 C7       -4.0459    4.2159    0.3879   C.3       1 RES1   0.0000
     9 C8       -2.5110    4.1956    0.4824   C.3       1 RES1   0.0000
    10 N1       -1.9213    3.7757   -0.7870   N.am      1 RES1   0.0000
    11 C9       -2.1322    4.6689   -1.9099   C.3       1 RES1   0.0000
    12 C10      -1.2823    2.6284   -0.8797   C.2       1 RES1   0.0000
    13 O1       -0.9864    1.9191    0.1202   O.2       1 RES1   0.0000
    14 C11      -0.8820    2.0613   -2.2520   C.3       1 RES1   0.0000
    15 O2       -0.7101    0.6496   -2.1009   O.3       1 RES1   0.0000
    16 C12      -1.7694   -0.1286   -2.6645   C.3       1 RES1   0.0000
    17 C13      -1.9676   -1.4104   -1.8394   C.2       1 RES1   0.0000
    18 O3       -1.4690   -1.4646   -0.6816   O.2       1 RES1   0.0000
    19 N2       -2.7042   -2.3917   -2.3142   N.am      1 RES1   0.0000
    20 C14      -3.0192   -3.5422   -1.4780   C.3       1 RES1   0.0000
    21 C15      -3.1857   -2.4464   -3.6876   C.3       1 RES1   0.0000
    22 C16      -4.3854   -1.5475   -3.9963   C.3       1 RES1   0.0000
    23 C17      -4.6246   -1.4583   -5.5063   C.3       1 RES1   0.0000
    24 C18      -3.4367   -0.8698   -6.2785   C.3       1 RES1   0.0000
    25 C19      -2.5037   -1.9183   -6.9000   C.3       1 RES1   0.0000
    26 C20      -1.0408   -1.4838   -7.0161   C.3       1 RES1   0.0000
    27 C21      -0.7747   -0.3673   -8.0297   C.3       1 RES1   0.0000
    28 C22      -1.1091    1.0405   -7.5454   C.3       1 RES1   0.0000
    29 H1       -6.5146   -0.0665   -2.3415   H         1 RES1   0.0000
    30 H2       -5.1607    0.8542   -1.6767   H         1 RES1   0.0000
    31 H3       -6.7508    1.6066   -1.8473   H         1 RES1   0.0000
    32 H4       -6.0983   -0.7045    0.0485   H         1 RES1   0.0000
    33 H5       -7.6931   -0.0105   -0.2062   H         1 RES1   0.0000
    34 H6       -6.9154    1.0489    1.7594   H         1 RES1   0.0000
    35 H7       -6.7007    2.2466    0.4944   H         1 RES1   0.0000
    36 H8       -4.2523    1.4342    0.3361   H         1 RES1   0.0000
    37 H9       -4.6440    0.3726    1.6872   H         1 RES1   0.0000
    38 H10      -3.4840    2.3404    2.5500   H         1 RES1   0.0000
    39 H11      -5.1485    2.3279    3.1121   H         1 RES1   0.0000
    40 H12      -4.4027    4.5759    2.4757   H         1 RES1   0.0000
    41 H13      -5.8037    4.0397    1.5754   H         1 RES1   0.0000
    42 H14      -4.3758    5.2067    0.0791   H         1 RES1   0.0000
    43 H15      -4.3681    3.5088   -0.3760   H         1 RES1   0.0000
    44 H16      -2.1913    3.4827    1.2402   H         1 RES1   0.0000
    45 H17      -2.1285    5.1833    0.7484   H         1 RES1   0.0000
    46 H18      -2.6025    5.5788   -1.5478   H         1 RES1   0.0000
    47 H19      -2.7852    4.2280   -2.6602   H         1 RES1   0.0000
    48 H20      -1.1853    4.9359   -2.3737   H         1 RES1   0.0000
    49 H21       0.0804    2.4806   -2.5710   H         1 RES1   0.0000
    50 H22      -1.6230    2.3038   -3.0187   H         1 RES1   0.0000
    51 H23      -1.5372   -0.3545   -3.7149   H         1 RES1   0.0000
    52 H24      -2.7118    0.4338   -2.6184   H         1 RES1   0.0000
    53 H25      -2.6265   -3.3881   -0.4755   H         1 RES1   0.0000
    54 H26      -2.5883   -4.4553   -1.8932   H         1 RES1   0.0000
    55 H27      -4.1017   -3.6596   -1.4251   H         1 RES1   0.0000
    56 H28      -3.4821   -3.4755   -3.8899   H         1 RES1   0.0000
    57 H29      -2.3616   -2.1876   -4.3536   H         1 RES1   0.0000
    58 H30      -4.2351   -0.5405   -3.6089   H         1 RES1   0.0000
    59 H31      -5.2756   -1.9488   -3.5137   H         1 RES1   0.0000
    60 H32      -5.5029   -0.8335   -5.6642   H         1 RES1   0.0000
    61 H33      -4.8620   -2.4440   -5.9003   H         1 RES1   0.0000
    62 H34      -2.8690   -0.2086   -5.6183   H         1 RES1   0.0000
    63 H35      -3.8258   -0.2548   -7.0858   H         1 RES1   0.0000
    64 H36      -2.8660   -2.1651   -7.8957   H         1 RES1   0.0000
    65 H37      -2.5375   -2.8472   -6.3293   H         1 RES1   0.0000
    66 H38      -0.4646   -2.3565   -7.3307   H         1 RES1   0.0000
    67 H39      -0.6555   -1.1859   -6.0323   H         1 RES1   0.0000
    68 H40      -1.3331   -0.5808   -8.9409   H         1 RES1   0.0000
    69 H41       0.2857   -0.3904   -8.2900   H         1 RES1   0.0000
    70 H42      -2.1799    1.2002   -7.4644   H         1 RES1   0.0000
    71 H43      -0.7190    1.7657   -8.2542   H         1 RES1   0.0000
    72 H44      -0.6476    1.2336   -6.5757   H         1 RES1   0.0000
    73 C23       3.2801   -3.2821    4.7026   C.3       1 RES1   0.0000
    74 C24       2.7033   -4.6604    4.3919   C.3       1 RES1   0.0000
    75 C25       3.1330   -5.1751    3.0178   C.3       1 RES1   0.0000
    76 C26       2.4641   -4.4424    1.8564   C.3       1 RES1   0.0000
    77 C27       3.0631   -4.8184    0.5021   C.3       1 RES1   0.0000
    78 C28       4.5512   -4.5000    0.3300   C.3       1 RES1   0.0000
    79 C29       4.9743   -3.0751    0.6962   C.3       1 RES1   0.0000
    80 C30       4.4021   -2.0574   -0.2919   C.3       1 RES1   0.0000
    81 N3        4.2733   -0.7145    0.2700   N.am      1 RES1   0.0000
    82 C31       5.4893    0.0155    0.5660   C.3       1 RES1   0.0000
    83 C32       3.0692   -0.2031    0.4327   C.2       1 RES1   0.0000
    84 O4        2.0199   -0.8085    0.1076   O.2       1 RES1   0.0000
    85 C33       2.8909    1.2199    0.9786   C.3       1 RES1   0.0000
    86 O5        1.5066    1.4391    1.2679   O.3       1 RES1   0.0000
    87 C34       1.1312    1.3627    2.6460   C.3       1 RES1   0.0000
    88 C35       0.6003   -0.0431    3.0144   C.2       1 RES1   0.0000
    89 O6        0.3130   -0.8340    2.0800   O.2       1 RES1   0.0000
    90 N4        0.4321   -0.3805    4.2754   N.am      1 RES1   0.0000
    91 C36      -0.0417   -1.7084    4.6296   C.3       1 RES1   0.0000
    92 C37       0.7728    0.4693    5.4017   C.3       1 RES1   0.0000
    93 C38       2.1507    0.1259    5.9809   C.3       1 RES1   0.0000
    94 C39       2.6985    1.2370    6.8770   C.3       1 RES1   0.0000
    95 C40       3.0129    2.5348    6.1250   C.3       1 RES1   0.0000
    96 C41       1.9221    3.6042    6.2392   C.3       1 RES1   0.0000
    97 C42       1.8761    4.5908    5.0715   C.3       1 RES1   0.0000
    98 C43       3.1024    5.4994    4.9429   C.3       1 RES1   0.0000
    99 C44       4.3105    4.8645    4.2595   C.3       1 RES1   0.0000
   100 H45       3.0312   -2.9890    5.7198   H         1 RES1   0.0000
   101 H46       2.8974   -2.5258    4.0159   H         1 RES1   0.0000
   102 H47       4.3642   -3.3079    4.6183   H         1 RES1   0.0000
   103 H48       1.6123   -4.6351    4.4548   H         1 RES1   0.0000
   104 H49       3.0578   -5.3585    5.1520   H         1 RES1   0.0000
   105 H50       2.8866   -6.2344    2.9426   H         1 RES1   0.0000
   106 H51       4.2160   -5.0851    2.9450   H         1 RES1   0.0000
   107 H52       2.5193   -3.3607    1.9972   H         1 RES1   0.0000
   108 H53       1.4032   -4.7033    1.8532   H         1 RES1   0.0000
   109 H54       2.4804   -4.3224   -0.2774   H         1 RES1   0.0000
   110 H55       2.9397   -5.8916    0.3579   H         1 RES1   0.0000
   111 H56       4.8281   -4.6997   -0.7049   H         1 RES1   0.0000
   112 H57       5.1256   -5.1883    0.9432   H         1 RES1   0.0000
   113 H58       6.0620   -3.0204    0.6909   H         1 RES1   0.0000
   114 H59       4.6275   -2.8355    1.6998   H         1 RES1   0.0000
   115 H60       3.4011   -2.3770   -0.5774   H         1 RES1   0.0000
   116 H61       5.0266   -2.0027   -1.1858   H         1 RES1   0.0000
   117 H62       6.3441   -0.5949    0.2917   H         1 RES1   0.0000
   118 H63       5.5684    0.2407    1.6274   H         1 RES1   0.0000
   119 H64       5.5347    0.9453    0.0002   H         1 RES1   0.0000
   120 H65       3.1645    1.9312    0.1843   H         1 RES1   0.0000
   121 H66       3.5209    1.4198    1.8514   H         1 RES1   0.0000
   122 H67       0.3187    2.0948    2.7658   H         1 RES1   0.0000
   123 H68       1.9696    1.6546    3.2876   H         1 RES1   0.0000
   124 H69      -0.2007   -2.2989    3.7319   H         1 RES1   0.0000
   125 H70      -0.9688   -1.6440    5.1997   H         1 RES1   0.0000
   126 H71       0.7117   -2.1932    5.2459   H         1 RES1   0.0000
   127 H72       0.0146    0.3320    6.1741   H         1 RES1   0.0000
   128 H73       0.7579    1.5108    5.0947   H         1 RES1   0.0000
   129 H74       2.8519   -0.0542    5.1623   H         1 RES1   0.0000
   130 H75       2.0863   -0.7897    6.5661   H         1 RES1   0.0000
   131 H76       3.6089    0.8608    7.3409   H         1 RES1   0.0000
   132 H77       1.9974    1.4432    7.6829   H         1 RES1   0.0000
   133 H78       3.2028    2.3033    5.0729   H         1 RES1   0.0000
   134 H79       3.9310    2.9542    6.5290   H         1 RES1   0.0000
   135 H80       2.0791    4.1648    7.1583   H         1 RES1   0.0000
   136 H81       0.9391    3.1390    6.3316   H         1 RES1   0.0000
   137 H82       1.0030    5.2298    5.2196   H         1 RES1   0.0000
   138 H83       1.7222    4.0508    4.1293   H         1 RES1   0.0000
   139 H84       3.3860    5.8499    5.9351   H         1 RES1   0.0000
   140 H85       2.8136    6.3771    4.3610   H         1 RES1   0.0000
   141 H86       4.7849    4.1112    4.8807   H         1 RES1   0.0000
   142 H87       5.0498    5.6331    4.0517   H         1 RES1   0.0000
   143 H88       4.0202    4.4090    3.3113   H         1 RES1   0.0000
   144 O7       -2.1467   -0.1113    1.6165   O.3       1 RES1   0.0000
   145 H89      -2.6475    0.5825    2.0781   H         1 RES1   0.0000
   146 H90      -2.6582   -0.9205    1.7668   H         1 RES1   0.0000
   147 O8        0.9787   -1.4690   -2.1284   O.3       1 RES1   0.0000
   148 H91       1.0669   -2.4109   -1.9301   H         1 RES1   0.0000
   149 H92       1.7397   -1.2550   -2.6854   H         1 RES1   0.0000
@<TRIPOS>BOND
     1     1    13    1
     2     1    15    1
     3     1    18    1
     4     1    84    1
     5     1    86    1
     6     1    89    1
     7     1   144    1
     8     1   147    1
     9     2     3    1
    10     2    29    1
    11     2    30    1
    12     2    31    1
    13     3     4    1
    14     3    32    1
    15     3    33    1
    16     4     5    1
    17     4    34    1
    18     4    35    1
    19     5     6    1
    20     5    36    1
    21     5    37    1
    22     6     7    1
    23     6    38    1
    24     6    39    1
    25     7     8    1
    26     7    40    1
    27     7    41    1
    28     8     9    1
    29     8    42    1
    30     8    43    1
    31     9    10    1
    32     9    44    1
    33     9    45    1
    34    10    11    1
    35    10    12    1
    36    11    46    1
    37    11    47    1
    38    11    48    1
    39    12    13    2
    40    12    14    1
    41    14    15    1
    42    14    49    1
    43    14    50    1
    44    15    16    1
    45    16    17    1
    46    16    51    1
    47    16    52    1
    48    17    18    2
    49    17    19    1
    50    19    20    1
    51    19    21    1
    52    20    53    1
    53    20    54    1
    54    20    55    1
    55    21    22    1
    56    21    56    1
    57    21    57    1
    58    22    23    1
    59    22    58    1
    60    22    59    1
    61    23    24    1
    62    23    60    1
    63    23    61    1
    64    24    25    1
    65    24    62    1
    66    24    63    1
    67    25    26    1
    68    25    64    1
    69    25    65    1
    70    26    27    1
    71    26    66    1
    72    26    67    1
    73    27    28    1
    74    27    68    1
    75    27    69    1
    76    28    70    1
    77    28    71    1
    78    28    72    1
    79    73    74    1
    80    73   100    1
    81    73   101    1
    82    73   102    1
    83    74    75    1
    84    74   103    1
    85    74   104    1
    86    75    76    1
    87    75   105    1
    88    75   106    1
    89    76    77    1
    90    76   107    1
    91    76   108    1
    92    77    78    1
    93    77   109    1
    94    77   110    1
    95    78    79    1
    96    78   111    1
    97    78   112    1
    98    79    80    1
    99    79   113    1
   100    79   114    1
   101    80    81    1
   102    80   115    1
   103    80   116    1
   104    81    82    1
   105    81    83    1
   106    82   117    1
   107    82   118    1
   108    82   119    1
   109    83    84    2
   110    83    85    1
   111    85    86    1
   112    85   120    1
   113    85   121    1
   114    86    87    1
   115    87    88    1
   116    87   122    1
   117    87   123    1
   118    88    89    2
   119    88    90    1
   120    90    91    1
   121    90    92    1
   122    91   124    1
   123    91   125    1
   124    91   126    1
   125    92    93    1
   126    92   127    1
   127    92   128    1
   128    93    94    1
   129    93   129    1
   130    93   130    1
   131    94    95    1
   132    94   131    1
   133    94   132    1
   134    95    96    1
   135    95   133    1
   136    95   134    1
   137    96    97    1
   138    96   135    1
   139    96   136    1
   140    97    98    1
   141    97   137    1
   142    97   138    1
   143    98    99    1
   144    98   139    1
   145    98   140    1
   146    99   141    1
   147    99   142    1
   148    99   143    1
   149   144   145    1
   150   144   146    1
   151   147   148    1
   152   147   149    1
@<TRIPOS>SUBSTRUCTURE
     1 RES1      149 GROUP             0 ****  ****    0  
