@<TRIPOS>MOLECULE
ICIGOT_geomtry_0_nunpairedes_0_charge_3 Charge: 3 Unpaired_Electrons: 1 XTB_Unpaired_Electrons: 0 XTB_Charge: 3
   137   140     1     0     0
SMALL
NoCharges
****
Generated from Architector

@<TRIPOS>ATOM
     1 Yb1      -0.0551   -0.3755   -0.1374   Yb        1 RES1   0.0000
     2 C1        2.5103    3.6145   -2.9425   C.3       1 RES1   0.0000
     3 C2        2.6391    2.6057   -4.0783   C.3       1 RES1   0.0000
     4 C3        1.4170    2.5582   -4.9947   C.3       1 RES1   0.0000
     5 C4        0.2112    1.8037   -4.4323   C.3       1 RES1   0.0000
     6 N1       -0.4783    2.4887   -3.3399   N.am      1 RES1   0.0000
     7 C5       -1.1870    3.7135   -3.6696   C.3       1 RES1   0.0000
     8 C6       -2.6657    3.4450   -3.9747   C.3       1 RES1   0.0000
     9 C7       -3.4676    4.7465   -3.9850   C.3       1 RES1   0.0000
    10 C8       -4.9649    4.4831   -4.0800   C.3       1 RES1   0.0000
    11 C9       -0.5353    1.9334   -2.1474   C.2       1 RES1   0.0000
    12 O1        0.0270    0.8432   -1.8771   O.2       1 RES1   0.0000
    13 C10      -1.2555    2.6473   -0.9954   C.3       1 RES1   0.0000
    14 O2       -1.4866    1.7316    0.0790   O.3       1 RES1   0.0000
    15 C11      -2.8514    1.3558    0.2864   C.3       1 RES1   0.0000
    16 C12      -3.0409   -0.1262   -0.0720   C.2       1 RES1   0.0000
    17 O3       -2.0827   -0.6947   -0.6558   O.2       1 RES1   0.0000
    18 N2       -4.1414   -0.7557    0.2789   N.am      1 RES1   0.0000
    19 C13      -4.1947   -2.2199    0.2063   C.3       1 RES1   0.0000
    20 C14      -4.0208   -2.8532   -1.1731   C.3       1 RES1   0.0000
    21 C15      -4.1300   -4.3772   -1.0689   C.3       1 RES1   0.0000
    22 C16      -2.9868   -5.0212   -0.2896   C.3       1 RES1   0.0000
    23 C17      -5.2972   -0.0545    0.8193   C.3       1 RES1   0.0000
    24 C18      -6.1318    0.6194   -0.2778   C.3       1 RES1   0.0000
    25 C19      -7.1936    1.5532    0.3068   C.3       1 RES1   0.0000
    26 C20      -6.6143    2.7533    1.0494   C.3       1 RES1   0.0000
    27 H1        3.4773    3.7732   -2.4705   H         1 RES1   0.0000
    28 H2        2.1829    4.5759   -3.3280   H         1 RES1   0.0000
    29 H3        1.7994    3.2782   -2.1892   H         1 RES1   0.0000
    30 H4        3.4991    2.8872   -4.6853   H         1 RES1   0.0000
    31 H5        2.8324    1.6094   -3.6738   H         1 RES1   0.0000
    32 H6        1.1371    3.5750   -5.2674   H         1 RES1   0.0000
    33 H7        1.6928    2.0435   -5.9154   H         1 RES1   0.0000
    34 H8       -0.5148    1.6437   -5.2338   H         1 RES1   0.0000
    35 H9        0.5310    0.8313   -4.0554   H         1 RES1   0.0000
    36 H10      -1.0904    4.4242   -2.8456   H         1 RES1   0.0000
    37 H11      -0.7101    4.1581   -4.5429   H         1 RES1   0.0000
    38 H12      -2.7656    2.9546   -4.9423   H         1 RES1   0.0000
    39 H13      -3.0868    2.7604   -3.2325   H         1 RES1   0.0000
    40 H14      -3.2563    5.3142   -3.0758   H         1 RES1   0.0000
    41 H15      -3.1518    5.3532   -4.8322   H         1 RES1   0.0000
    42 H16      -5.3143    3.9276   -3.2106   H         1 RES1   0.0000
    43 H17      -5.5064    5.4238   -4.1205   H         1 RES1   0.0000
    44 H18      -5.1980    3.9138   -4.9764   H         1 RES1   0.0000
    45 H19      -0.5892    3.4299   -0.6095   H         1 RES1   0.0000
    46 H20      -2.1931    3.1049   -1.3137   H         1 RES1   0.0000
    47 H21      -3.0438    1.4976    1.3556   H         1 RES1   0.0000
    48 H22      -3.5417    1.9878   -0.2816   H         1 RES1   0.0000
    49 H23      -3.3973   -2.5928    0.8539   H         1 RES1   0.0000
    50 H24      -5.1562   -2.5278    0.6142   H         1 RES1   0.0000
    51 H25      -4.7827   -2.4772   -1.8547   H         1 RES1   0.0000
    52 H26      -3.0436   -2.5946   -1.5818   H         1 RES1   0.0000
    53 H27      -5.0749   -4.6436   -0.5971   H         1 RES1   0.0000
    54 H28      -4.1457   -4.7885   -2.0773   H         1 RES1   0.0000
    55 H29      -3.0549   -4.8065    0.7741   H         1 RES1   0.0000
    56 H30      -3.0263   -6.1013   -0.3978   H         1 RES1   0.0000
    57 H31      -2.0191   -4.6805   -0.6567   H         1 RES1   0.0000
    58 H32      -5.9153   -0.7822    1.3470   H         1 RES1   0.0000
    59 H33      -4.9627    0.6911    1.5434   H         1 RES1   0.0000
    60 H34      -5.4849    1.1880   -0.9505   H         1 RES1   0.0000
    61 H35      -6.6203   -0.1492   -0.8760   H         1 RES1   0.0000
    62 H36      -7.8085    1.9129   -0.5173   H         1 RES1   0.0000
    63 H37      -7.8441    0.9923    0.9766   H         1 RES1   0.0000
    64 H38      -5.9155    3.3039    0.4207   H         1 RES1   0.0000
    65 H39      -7.4141    3.4326    1.3288   H         1 RES1   0.0000
    66 H40      -6.1100    2.4600    1.9682   H         1 RES1   0.0000
    67 C21      -1.8780    1.0883    4.4711   C.3       1 RES1   0.0000
    68 C22      -1.7598   -0.2939    5.1048   C.3       1 RES1   0.0000
    69 C23      -0.3761   -0.6393    5.6566   C.3       1 RES1   0.0000
    70 C24       0.7602   -0.7850    4.6392   C.3       1 RES1   0.0000
    71 N3        1.1417    0.4641    3.9761   N.am      1 RES1   0.0000
    72 C25       1.7622    1.4886    4.8045   C.3       1 RES1   0.0000
    73 C26       3.2933    1.4187    4.7561   C.3       1 RES1   0.0000
    74 C27       3.9504    2.5798    5.5054   C.3       1 RES1   0.0000
    75 C28       5.4640    2.5336    5.3224   C.3       1 RES1   0.0000
    76 C29       1.0031    0.5974    2.6749   C.2       1 RES1   0.0000
    77 O4        0.5713   -0.3207    1.9342   O.2       1 RES1   0.0000
    78 C30       1.3331    1.9202    1.9685   C.3       1 RES1   0.0000
    79 O5        1.4644    1.6664    0.5721   O.3       1 RES1   0.0000
    80 C31       2.8143    1.5169    0.1156   C.3       1 RES1   0.0000
    81 C32       2.9646    0.2076   -0.6604   C.2       1 RES1   0.0000
    82 O6        2.0260   -0.6258   -0.5992   O.2       1 RES1   0.0000
    83 N4        4.0608   -0.0242   -1.3584   N.am      1 RES1   0.0000
    84 C33       4.1206   -1.2842   -2.1058   C.3       1 RES1   0.0000
    85 C34       4.1696   -2.5141   -1.1953   C.3       1 RES1   0.0000
    86 C35       4.3250   -3.8068   -1.9952   C.3       1 RES1   0.0000
    87 C36       3.0987   -4.1341   -2.8395   C.3       1 RES1   0.0000
    88 C37       5.1932    0.8939   -1.4462   C.3       1 RES1   0.0000
    89 C38       6.1076    0.9105   -0.2116   C.3       1 RES1   0.0000
    90 C39       7.0430    2.1257   -0.2242   C.3       1 RES1   0.0000
    91 C40       6.3261    3.4681   -0.1095   C.3       1 RES1   0.0000
    92 H41      -2.9254    1.3209    4.2913   H         1 RES1   0.0000
    93 H42      -1.4916    1.8397    5.1544   H         1 RES1   0.0000
    94 H43      -1.3361    1.1608    3.5268   H         1 RES1   0.0000
    95 H44      -2.4632   -0.3335    5.9364   H         1 RES1   0.0000
    96 H45      -2.0882   -1.0638    4.4009   H         1 RES1   0.0000
    97 H46      -0.1051    0.0950    6.4136   H         1 RES1   0.0000
    98 H47      -0.4567   -1.6005    6.1656   H         1 RES1   0.0000
    99 H48       1.6397   -1.1770    5.1565   H         1 RES1   0.0000
   100 H49       0.4893   -1.5066    3.8674   H         1 RES1   0.0000
   101 H50       1.4112    2.4706    4.4826   H         1 RES1   0.0000
   102 H51       1.4310    1.3326    5.8294   H         1 RES1   0.0000
   103 H52       3.6369    0.4843    5.2007   H         1 RES1   0.0000
   104 H53       3.6431    1.4299    3.7196   H         1 RES1   0.0000
   105 H54       3.5653    3.5337    5.1373   H         1 RES1   0.0000
   106 H55       3.7112    2.5115    6.5663   H         1 RES1   0.0000
   107 H56       5.7272    2.6301    4.2697   H         1 RES1   0.0000
   108 H57       5.9394    3.3452    5.8647   H         1 RES1   0.0000
   109 H58       5.8646    1.5948    5.6982   H         1 RES1   0.0000
   110 H59       0.4898    2.6161    2.0796   H         1 RES1   0.0000
   111 H60       2.2311    2.3900    2.3705   H         1 RES1   0.0000
   112 H61       3.0491    2.3712   -0.5299   H         1 RES1   0.0000
   113 H62       3.5199    1.4948    0.9513   H         1 RES1   0.0000
   114 H63       3.2339   -1.3233   -2.7476   H         1 RES1   0.0000
   115 H64       5.0080   -1.2645   -2.7375   H         1 RES1   0.0000
   116 H65       5.0076   -2.4083   -0.5054   H         1 RES1   0.0000
   117 H66       3.2521   -2.5737   -0.6062   H         1 RES1   0.0000
   118 H67       5.2020   -3.7411   -2.6377   H         1 RES1   0.0000
   119 H68       4.4963   -4.6204   -1.2914   H         1 RES1   0.0000
   120 H69       2.9517   -3.4033   -3.6310   H         1 RES1   0.0000
   121 H70       3.2199   -5.1036   -3.3128   H         1 RES1   0.0000
   122 H71       2.2066   -4.1796   -2.2128   H         1 RES1   0.0000
   123 H72       5.7874    0.6042   -2.3148   H         1 RES1   0.0000
   124 H73       4.8131    1.9001   -1.6325   H         1 RES1   0.0000
   125 H74       5.5197    0.9267    0.7082   H         1 RES1   0.0000
   126 H75       6.7127    0.0036   -0.1872   H         1 RES1   0.0000
   127 H76       7.7279    2.0258    0.6175   H         1 RES1   0.0000
   128 H77       7.6442    2.1151   -1.1328   H         1 RES1   0.0000
   129 H78       5.6700    3.4943    0.7592   H         1 RES1   0.0000
   130 H79       7.0557    4.2637    0.0071   H         1 RES1   0.0000
   131 H80       5.7449    3.7008   -0.9995   H         1 RES1   0.0000
   132 O7       -1.5538   -1.6734    1.7901   O.3       1 RES1   0.0000
   133 H81      -1.2857   -2.5829    1.9648   H         1 RES1   0.0000
   134 H82      -1.6823   -1.2695    2.6667   H         1 RES1   0.0000
   135 O8        0.0201   -2.2543   -1.7007   O.3       1 RES1   0.0000
   136 H83      -0.7372   -2.5111   -2.2500   H         1 RES1   0.0000
   137 H84       0.7873   -2.6913   -2.1106   H         1 RES1   0.0000
@<TRIPOS>BOND
     1     1    12    1
     2     1    14    1
     3     1    17    1
     4     1    77    1
     5     1    79    1
     6     1    82    1
     7     1   132    1
     8     1   135    1
     9     2     3    1
    10     2    27    1
    11     2    28    1
    12     2    29    1
    13     3     4    1
    14     3    30    1
    15     3    31    1
    16     4     5    1
    17     4    32    1
    18     4    33    1
    19     5     6    1
    20     5    34    1
    21     5    35    1
    22     6     7    1
    23     6    11    1
    24     7     8    1
    25     7    36    1
    26     7    37    1
    27     8     9    1
    28     8    38    1
    29     8    39    1
    30     9    10    1
    31     9    40    1
    32     9    41    1
    33    10    42    1
    34    10    43    1
    35    10    44    1
    36    11    12    2
    37    11    13    1
    38    13    14    1
    39    13    45    1
    40    13    46    1
    41    14    15    1
    42    15    16    1
    43    15    47    1
    44    15    48    1
    45    16    17    2
    46    16    18    1
    47    18    19    1
    48    18    23    1
    49    19    20    1
    50    19    49    1
    51    19    50    1
    52    20    21    1
    53    20    51    1
    54    20    52    1
    55    21    22    1
    56    21    53    1
    57    21    54    1
    58    22    55    1
    59    22    56    1
    60    22    57    1
    61    23    24    1
    62    23    58    1
    63    23    59    1
    64    24    25    1
    65    24    60    1
    66    24    61    1
    67    25    26    1
    68    25    62    1
    69    25    63    1
    70    26    64    1
    71    26    65    1
    72    26    66    1
    73    67    68    1
    74    67    92    1
    75    67    93    1
    76    67    94    1
    77    68    69    1
    78    68    95    1
    79    68    96    1
    80    69    70    1
    81    69    97    1
    82    69    98    1
    83    70    71    1
    84    70    99    1
    85    70   100    1
    86    71    72    1
    87    71    76    1
    88    72    73    1
    89    72   101    1
    90    72   102    1
    91    73    74    1
    92    73   103    1
    93    73   104    1
    94    74    75    1
    95    74   105    1
    96    74   106    1
    97    75   107    1
    98    75   108    1
    99    75   109    1
   100    76    77    2
   101    76    78    1
   102    78    79    1
   103    78   110    1
   104    78   111    1
   105    79    80    1
   106    80    81    1
   107    80   112    1
   108    80   113    1
   109    81    82    2
   110    81    83    1
   111    83    84    1
   112    83    88    1
   113    84    85    1
   114    84   114    1
   115    84   115    1
   116    85    86    1
   117    85   116    1
   118    85   117    1
   119    86    87    1
   120    86   118    1
   121    86   119    1
   122    87   120    1
   123    87   121    1
   124    87   122    1
   125    88    89    1
   126    88   123    1
   127    88   124    1
   128    89    90    1
   129    89   125    1
   130    89   126    1
   131    90    91    1
   132    90   127    1
   133    90   128    1
   134    91   129    1
   135    91   130    1
   136    91   131    1
   137   132   133    1
   138   132   134    1
   139   135   136    1
   140   135   137    1
@<TRIPOS>SUBSTRUCTURE
     1 RES1      137 GROUP             0 ****  ****    0  
