@<TRIPOS>MOLECULE
dodecahedral_0_nunpairedes_0_charge_2 Charge: 2 Unpaired_Electrons: 1 XTB_Unpaired_Electrons: 0 XTB_Charge: 2
   297   301     1     0     0
SMALL
NoCharges
****
Generated from Architector

@<TRIPOS>ATOM
     1 Yb1      -0.0916    0.1562    0.3643   Yb        1 RES1   0.0000
     2 C1       -4.1095    7.2404    1.8885   C.3       1 RES1   0.0000
     3 C2       -3.2130    6.8788    0.7106   C.3       1 RES1   0.0000
     4 C3       -3.9605    6.2156   -0.4489   C.3       1 RES1   0.0000
     5 C4       -3.0162    5.5150   -1.4272   C.3       1 RES1   0.0000
     6 C5       -3.7759    4.9015   -2.6044   C.3       1 RES1   0.0000
     7 C6       -2.8960    4.3898   -3.7494   C.3       1 RES1   0.0000
     8 C7       -2.2227    3.0615   -3.4070   C.3       1 RES1   0.0000
     9 C8       -1.2766    2.5425   -4.4845   C.3       1 RES1   0.0000
    10 C9       -0.3258    1.4382   -3.9867   C.3       1 RES1   0.0000
    11 C10      -0.6795   -0.0270   -4.2975   C.3       1 RES1   0.0000
    12 N1       -1.6725   -0.7557   -3.4822   N.am      1 RES1   0.0000
    13 C11      -2.6924   -1.4506   -4.2561   C.3       1 RES1   0.0000
    14 C12      -3.7538   -0.4964   -4.8131   C.3       1 RES1   0.0000
    15 C13      -4.7806   -1.2246   -5.6804   C.3       1 RES1   0.0000
    16 C14      -5.6450   -0.2519   -6.4851   C.3       1 RES1   0.0000
    17 C15      -6.5431    0.6307   -5.6212   C.3       1 RES1   0.0000
    18 C16      -7.5482    1.3865   -6.4875   C.3       1 RES1   0.0000
    19 C17      -8.5540    2.2108   -5.6831   C.3       1 RES1   0.0000
    20 C18      -7.9669    3.4317   -4.9728   C.3       1 RES1   0.0000
    21 C19      -7.5241    4.5317   -5.9356   C.3       1 RES1   0.0000
    22 C20      -7.0449    5.7689   -5.1864   C.3       1 RES1   0.0000
    23 C21      -1.4343   -0.9174   -2.1893   C.2       1 RES1   0.0000
    24 O1       -0.4703   -0.3239   -1.6617   O.2       1 RES1   0.0000
    25 C22      -2.3121   -1.8251   -1.2827   C.3       1 RES1   0.0000
    26 C23      -3.7331   -1.2536   -1.2273   C.3       1 RES1   0.0000
    27 O2       -1.6444   -1.7966   -0.0119   O.3       1 RES1   0.0000
    28 C24      -1.8526   -2.7979    1.0002   C.3       1 RES1   0.0000
    29 C25      -3.3149   -2.9767    1.4496   C.3       1 RES1   0.0000
    30 C26      -3.8728   -1.7592    2.1796   C.3       1 RES1   0.0000
    31 C27      -0.9116   -2.2991    2.1291   C.2       1 RES1   0.0000
    32 O3       -0.3509   -1.2001    1.9582   O.2       1 RES1   0.0000
    33 N2       -0.6205   -3.0057    3.2184   N.am      1 RES1   0.0000
    34 C28      -1.2471   -4.2480    3.6413   C.3       1 RES1   0.0000
    35 C29      -2.3673   -4.0356    4.6837   C.3       1 RES1   0.0000
    36 C30      -2.1912   -4.8602    5.9671   C.3       1 RES1   0.0000
    37 C31      -2.9101   -4.2650    7.1894   C.3       1 RES1   0.0000
    38 C32      -2.0162   -3.2911    7.9684   C.3       1 RES1   0.0000
    39 C33      -2.3615   -3.1042    9.4520   C.3       1 RES1   0.0000
    40 C34      -3.4034   -2.0272    9.7604   C.3       1 RES1   0.0000
    41 C35      -4.8510   -2.4639    9.5532   C.3       1 RES1   0.0000
    42 C36      -5.8293   -1.3418    9.9018   C.3       1 RES1   0.0000
    43 C37      -7.2780   -1.7579    9.6759   C.3       1 RES1   0.0000
    44 C38       0.4581   -2.4954    4.0807   C.3       1 RES1   0.0000
    45 C39       0.0143   -1.6214    5.2526   C.3       1 RES1   0.0000
    46 C40      -0.4182   -0.2046    4.8619   C.3       1 RES1   0.0000
    47 C41      -1.4195    0.3994    5.8521   C.3       1 RES1   0.0000
    48 C42      -2.8455   -0.0431    5.5291   C.3       1 RES1   0.0000
    49 C43      -3.9219    0.6682    6.3458   C.3       1 RES1   0.0000
    50 C44      -5.3276    0.3699    5.8190   C.3       1 RES1   0.0000
    51 C45      -5.6730   -1.1168    5.8327   C.3       1 RES1   0.0000
    52 C46      -7.0913   -1.3978    5.3425   C.3       1 RES1   0.0000
    53 C47      -7.3718   -2.8957    5.2974   C.3       1 RES1   0.0000
    54 H1       -4.8692    7.9638    1.6040   H         1 RES1   0.0000
    55 H2       -3.5133    7.6763    2.6869   H         1 RES1   0.0000
    56 H3       -4.6169    6.3616    2.2785   H         1 RES1   0.0000
    57 H4       -2.7070    7.7781    0.3597   H         1 RES1   0.0000
    58 H5       -2.4433    6.1859    1.0631   H         1 RES1   0.0000
    59 H6       -4.5443    6.9710   -0.9784   H         1 RES1   0.0000
    60 H7       -4.6635    5.4806   -0.0501   H         1 RES1   0.0000
    61 H8       -2.4708    4.7359   -0.8881   H         1 RES1   0.0000
    62 H9       -2.2816    6.2305   -1.7993   H         1 RES1   0.0000
    63 H10      -4.4492    5.6627   -3.0029   H         1 RES1   0.0000
    64 H11      -4.3934    4.0786   -2.2393   H         1 RES1   0.0000
    65 H12      -2.1367    5.1335   -3.9937   H         1 RES1   0.0000
    66 H13      -3.5230    4.2647   -4.6324   H         1 RES1   0.0000
    67 H14      -2.9971    2.3198   -3.2007   H         1 RES1   0.0000
    68 H15      -1.6494    3.2158   -2.4916   H         1 RES1   0.0000
    69 H16      -0.6674    3.3838   -4.8193   H         1 RES1   0.0000
    70 H17      -1.8435    2.2000   -5.3498   H         1 RES1   0.0000
    71 H18      -0.1463    1.5597   -2.9168   H         1 RES1   0.0000
    72 H19       0.6354    1.5856   -4.4845   H         1 RES1   0.0000
    73 H20       0.2526   -0.5939   -4.2068   H         1 RES1   0.0000
    74 H21      -1.0135   -0.0869   -5.3324   H         1 RES1   0.0000
    75 H22      -3.1548   -2.2259   -3.6488   H         1 RES1   0.0000
    76 H23      -2.1919   -1.9533   -5.0883   H         1 RES1   0.0000
    77 H24      -3.2725    0.2680   -5.4201   H         1 RES1   0.0000
    78 H25      -4.2681    0.0144   -3.9998   H         1 RES1   0.0000
    79 H26      -5.4244   -1.8422   -5.0511   H         1 RES1   0.0000
    80 H27      -4.2655   -1.8872   -6.3792   H         1 RES1   0.0000
    81 H28      -6.2746   -0.8291   -7.1653   H         1 RES1   0.0000
    82 H29      -5.0008    0.3809   -7.0995   H         1 RES1   0.0000
    83 H30      -5.9381    1.3415   -5.0573   H         1 RES1   0.0000
    84 H31      -7.0853    0.0064   -4.9075   H         1 RES1   0.0000
    85 H32      -8.1046    0.6589   -7.0821   H         1 RES1   0.0000
    86 H33      -7.0139    2.0341   -7.1837   H         1 RES1   0.0000
    87 H34      -9.0224    1.5621   -4.9388   H         1 RES1   0.0000
    88 H35      -9.3389    2.5518   -6.3615   H         1 RES1   0.0000
    89 H36      -7.1235    3.1344   -4.3455   H         1 RES1   0.0000
    90 H37      -8.7323    3.8427   -4.3097   H         1 RES1   0.0000
    91 H38      -8.3639    4.8001   -6.5792   H         1 RES1   0.0000
    92 H39      -6.7178    4.1690   -6.5762   H         1 RES1   0.0000
    93 H40      -7.8388    6.1619   -4.5553   H         1 RES1   0.0000
    94 H41      -6.7424    6.5484   -5.8814   H         1 RES1   0.0000
    95 H42      -6.1946    5.5224   -4.5536   H         1 RES1   0.0000
    96 H43      -2.2994   -2.8530   -1.6747   H         1 RES1   0.0000
    97 H44      -3.7542   -0.3572   -0.6166   H         1 RES1   0.0000
    98 H45      -4.4397   -1.9686   -0.8222   H         1 RES1   0.0000
    99 H46      -4.0746   -0.9761   -2.2159   H         1 RES1   0.0000
   100 H47      -1.4689   -3.7663    0.6323   H         1 RES1   0.0000
   101 H48      -3.9109   -3.2097    0.5681   H         1 RES1   0.0000
   102 H49      -3.3850   -3.8526    2.0925   H         1 RES1   0.0000
   103 H50      -3.5558   -0.8378    1.7017   H         1 RES1   0.0000
   104 H51      -3.5194   -1.7404    3.2066   H         1 RES1   0.0000
   105 H52      -4.9595   -1.7842    2.1984   H         1 RES1   0.0000
   106 H53      -0.4691   -4.8750    4.0804   H         1 RES1   0.0000
   107 H54      -1.6105   -4.7729    2.7613   H         1 RES1   0.0000
   108 H55      -3.3366   -4.2795    4.2511   H         1 RES1   0.0000
   109 H56      -2.3993   -2.9800    4.9402   H         1 RES1   0.0000
   110 H57      -1.1315   -4.9506    6.2135   H         1 RES1   0.0000
   111 H58      -2.5629   -5.8681    5.7916   H         1 RES1   0.0000
   112 H59      -3.1848   -5.0839    7.8555   H         1 RES1   0.0000
   113 H60      -3.8353   -3.7851    6.8683   H         1 RES1   0.0000
   114 H61      -2.0105   -2.3096    7.4893   H         1 RES1   0.0000
   115 H62      -0.9964   -3.6841    7.9340   H         1 RES1   0.0000
   116 H63      -1.4371   -2.8194    9.9617   H         1 RES1   0.0000
   117 H64      -2.6836   -4.0550    9.8813   H         1 RES1   0.0000
   118 H65      -3.1975   -1.1392    9.1566   H         1 RES1   0.0000
   119 H66      -3.2903   -1.7371   10.8077   H         1 RES1   0.0000
   120 H67      -5.0553   -3.3282   10.1874   H         1 RES1   0.0000
   121 H68      -5.0125   -2.7734    8.5191   H         1 RES1   0.0000
   122 H69      -5.6054   -0.4621    9.2916   H         1 RES1   0.0000
   123 H70      -5.6922   -1.0574   10.9471   H         1 RES1   0.0000
   124 H71      -7.4481   -2.0054    8.6302   H         1 RES1   0.0000
   125 H72      -7.9558   -0.9542    9.9519   H         1 RES1   0.0000
   126 H73      -7.5200   -2.6304   10.2778   H         1 RES1   0.0000
   127 H74       1.1396   -1.9245    3.4471   H         1 RES1   0.0000
   128 H75       0.9884   -3.3634    4.4750   H         1 RES1   0.0000
   129 H76       0.8576   -1.5543    5.9422   H         1 RES1   0.0000
   130 H77      -0.7845   -2.1280    5.7845   H         1 RES1   0.0000
   131 H78      -0.8756   -0.2039    3.8729   H         1 RES1   0.0000
   132 H79       0.4650    0.4313    4.7952   H         1 RES1   0.0000
   133 H80      -1.3665    1.4892    5.8034   H         1 RES1   0.0000
   134 H81      -1.1548    0.1092    6.8711   H         1 RES1   0.0000
   135 H82      -2.9326   -1.1164    5.7036   H         1 RES1   0.0000
   136 H83      -3.0332    0.1448    4.4680   H         1 RES1   0.0000
   137 H84      -3.7540    1.7473    6.3059   H         1 RES1   0.0000
   138 H85      -3.8458    0.3595    7.3898   H         1 RES1   0.0000
   139 H86      -5.4191    0.7493    4.7979   H         1 RES1   0.0000
   140 H87      -6.0523    0.9081    6.4306   H         1 RES1   0.0000
   141 H88      -5.5642   -1.4979    6.8486   H         1 RES1   0.0000
   142 H89      -4.9808   -1.6644    5.1893   H         1 RES1   0.0000
   143 H90      -7.2209   -0.9730    4.3438   H         1 RES1   0.0000
   144 H91      -7.8103   -0.9114    6.0035   H         1 RES1   0.0000
   145 H92      -6.6702   -3.4000    4.6342   H         1 RES1   0.0000
   146 H93      -8.3779   -3.0908    4.9373   H         1 RES1   0.0000
   147 H94      -7.2749   -3.3322    6.2888   H         1 RES1   0.0000
   148 C48      -7.2507   -1.7377   -1.3696   C.3       1 RES1   0.0000
   149 C49      -7.8851   -0.3527   -1.4410   C.3       1 RES1   0.0000
   150 C50      -6.9219    0.8147   -1.2006   C.3       1 RES1   0.0000
   151 C51      -6.5066    1.0151    0.2622   C.3       1 RES1   0.0000
   152 C52      -5.9612    2.4291    0.4907   C.3       1 RES1   0.0000
   153 C53      -5.5173    2.7103    1.9341   C.3       1 RES1   0.0000
   154 C54      -4.0915    2.2218    2.2559   C.3       1 RES1   0.0000
   155 C55      -3.0569    3.3552    2.3220   C.3       1 RES1   0.0000
   156 C56      -1.6449    2.8289    2.6180   C.3       1 RES1   0.0000
   157 C57      -0.5435    3.9021    2.7072   C.3       1 RES1   0.0000
   158 N3        0.6588    3.7302    1.8622   N.am      1 RES1   0.0000
   159 C58       1.3658    4.9849    1.6266   C.3       1 RES1   0.0000
   160 C59       0.7360    5.8544    0.5269   C.3       1 RES1   0.0000
   161 C60       1.7318    6.8905    0.0022   C.3       1 RES1   0.0000
   162 C61       1.0658    7.9852   -0.8335   C.3       1 RES1   0.0000
   163 C62       0.6380    7.5493   -2.2356   C.3       1 RES1   0.0000
   164 C63       0.1534    8.7642   -3.0329   C.3       1 RES1   0.0000
   165 C64      -0.3905    8.4241   -4.4242   C.3       1 RES1   0.0000
   166 C65      -1.8672    8.0267   -4.4252   C.3       1 RES1   0.0000
   167 C66      -2.8190    9.2185   -4.3511   C.3       1 RES1   0.0000
   168 C67      -4.2725    8.7638   -4.4288   C.3       1 RES1   0.0000
   169 C68       1.1284    2.5473    1.5058   C.2       1 RES1   0.0000
   170 O4        0.6503    1.4715    1.9280   O.2       1 RES1   0.0000
   171 C69       2.3308    2.3564    0.5238   C.3       1 RES1   0.0000
   172 C70       2.3563    3.2265   -0.7357   C.3       1 RES1   0.0000
   173 O5        2.1816    0.9896    0.0912   O.3       1 RES1   0.0000
   174 C71       3.2961    0.0883    0.1606   C.3       1 RES1   0.0000
   175 C72       4.2434    0.3055   -1.0328   C.3       1 RES1   0.0000
   176 C73       3.5509    0.0276   -2.3629   C.3       1 RES1   0.0000
   177 C74       2.6308   -1.3030    0.1655   C.2       1 RES1   0.0000
   178 O6        1.3992   -1.3382   -0.0014   O.2       1 RES1   0.0000
   179 N4        3.2968   -2.4338    0.3597   N.am      1 RES1   0.0000
   180 C75       4.7197   -2.5643    0.6360   C.3       1 RES1   0.0000
   181 C76       5.4921   -3.1775   -0.5394   C.3       1 RES1   0.0000
   182 C77       6.6318   -4.1127   -0.1201   C.3       1 RES1   0.0000
   183 C78       6.9025   -5.1585   -1.2066   C.3       1 RES1   0.0000
   184 C79       5.8567   -6.2757   -1.1648   C.3       1 RES1   0.0000
   185 C80       5.9996   -7.3403   -2.2583   C.3       1 RES1   0.0000
   186 C81       5.2842   -7.0361   -3.5802   C.3       1 RES1   0.0000
   187 C82       6.0253   -6.0835   -4.5184   C.3       1 RES1   0.0000
   188 C83       5.4023   -6.0614   -5.9157   C.3       1 RES1   0.0000
   189 C84       6.2442   -5.2584   -6.9014   C.3       1 RES1   0.0000
   190 C85       2.5057   -3.6762    0.4067   C.3       1 RES1   0.0000
   191 C86       2.2051   -4.3082   -0.9606   C.3       1 RES1   0.0000
   192 C87       0.8606   -3.9214   -1.5892   C.3       1 RES1   0.0000
   193 C88       0.8679   -4.1303   -3.1083   C.3       1 RES1   0.0000
   194 C89       1.7561   -3.0984   -3.8004   C.3       1 RES1   0.0000
   195 C90       1.7215   -3.1870   -5.3233   C.3       1 RES1   0.0000
   196 C91       2.5496   -2.0840   -5.9851   C.3       1 RES1   0.0000
   197 C92       4.0315   -2.1362   -5.6203   C.3       1 RES1   0.0000
   198 C93       4.8368   -1.0542   -6.3350   C.3       1 RES1   0.0000
   199 C94       6.2592   -0.9691   -5.7963   C.3       1 RES1   0.0000
   200 H95      -8.0137   -2.5027   -1.4913   H         1 RES1   0.0000
   201 H96      -6.7657   -1.8923   -0.4082   H         1 RES1   0.0000
   202 H97      -6.5227   -1.8668   -2.1684   H         1 RES1   0.0000
   203 H98      -8.6931   -0.2906   -0.7107   H         1 RES1   0.0000
   204 H99      -8.3305   -0.2316   -2.4312   H         1 RES1   0.0000
   205 H100     -7.4230    1.7246   -1.5380   H         1 RES1   0.0000
   206 H101     -6.0308    0.6907   -1.8189   H         1 RES1   0.0000
   207 H102     -5.7568    0.2744    0.5443   H         1 RES1   0.0000
   208 H103     -7.3788    0.8559    0.9000   H         1 RES1   0.0000
   209 H104     -6.7569    3.1295    0.2316   H         1 RES1   0.0000
   210 H105     -5.1245    2.6039   -0.1884   H         1 RES1   0.0000
   211 H106     -6.2363    2.2356    2.6026   H         1 RES1   0.0000
   212 H107     -5.5755    3.7850    2.1157   H         1 RES1   0.0000
   213 H108     -3.7979    1.5206    1.4834   H         1 RES1   0.0000
   214 H109     -4.0857    1.6795    3.1973   H         1 RES1   0.0000
   215 H110     -3.3498    4.0536    3.1063   H         1 RES1   0.0000
   216 H111     -3.0634    3.8924    1.3725   H         1 RES1   0.0000
   217 H112     -1.3766    2.1219    1.8420   H         1 RES1   0.0000
   218 H113     -1.6737    2.2769    3.5569   H         1 RES1   0.0000
   219 H114     -0.2080    3.9998    3.7452   H         1 RES1   0.0000
   220 H115     -0.9660    4.8646    2.4129   H         1 RES1   0.0000
   221 H116      2.4072    4.7632    1.3962   H         1 RES1   0.0000
   222 H117      1.3720    5.5377    2.5683   H         1 RES1   0.0000
   223 H118     -0.1291    6.3861    0.9228   H         1 RES1   0.0000
   224 H119      0.3920    5.2202   -0.2885   H         1 RES1   0.0000
   225 H120      2.5039    6.4029   -0.5986   H         1 RES1   0.0000
   226 H121      2.2303    7.3611    0.8530   H         1 RES1   0.0000
   227 H122      1.7666    8.8177   -0.9252   H         1 RES1   0.0000
   228 H123      0.1921    8.3554   -0.2946   H         1 RES1   0.0000
   229 H124     -0.1516    6.7970   -2.1683   H         1 RES1   0.0000
   230 H125      1.4879    7.0954   -2.7529   H         1 RES1   0.0000
   231 H126      0.9950    9.4532   -3.1381   H         1 RES1   0.0000
   232 H127     -0.6230    9.2748   -2.4590   H         1 RES1   0.0000
   233 H128      0.2033    7.6154   -4.8561   H         1 RES1   0.0000
   234 H129     -0.2685    9.2969   -5.0663   H         1 RES1   0.0000
   235 H130     -2.0697    7.3683   -3.5808   H         1 RES1   0.0000
   236 H131     -2.0881    7.4704   -5.3390   H         1 RES1   0.0000
   237 H132     -2.6100    9.8989   -5.1783   H         1 RES1   0.0000
   238 H133     -2.6619    9.7708   -3.4217   H         1 RES1   0.0000
   239 H134     -4.4530    8.2312   -5.3613   H         1 RES1   0.0000
   240 H135     -4.9470    9.6157   -4.3816   H         1 RES1   0.0000
   241 H136     -4.5078    8.0948   -3.6028   H         1 RES1   0.0000
   242 H137      3.2553    2.4689    1.1088   H         1 RES1   0.0000
   243 H138      1.3864    3.1962   -1.2281   H         1 RES1   0.0000
   244 H139      3.0883    2.8156   -1.4273   H         1 RES1   0.0000
   245 H140      2.6409    4.2527   -0.5366   H         1 RES1   0.0000
   246 H141      3.8313    0.2287    1.1102   H         1 RES1   0.0000
   247 H142      4.5886    1.3399   -0.9959   H         1 RES1   0.0000
   248 H143      5.1280   -0.3218   -0.9374   H         1 RES1   0.0000
   249 H144      2.5539    0.4638   -2.3922   H         1 RES1   0.0000
   250 H145      3.4471   -1.0418   -2.5161   H         1 RES1   0.0000
   251 H146      4.1293    0.4361   -3.1866   H         1 RES1   0.0000
   252 H147      4.8229   -3.2090    1.5118   H         1 RES1   0.0000
   253 H148      5.1235   -1.5923    0.9012   H         1 RES1   0.0000
   254 H149      5.8807   -2.3941   -1.1913   H         1 RES1   0.0000
   255 H150      4.7996   -3.7632   -1.1358   H         1 RES1   0.0000
   256 H151      6.3670   -4.6422    0.7981   H         1 RES1   0.0000
   257 H152      7.5335   -3.5382    0.0808   H         1 RES1   0.0000
   258 H153      7.8872   -5.5978   -1.0468   H         1 RES1   0.0000
   259 H154      6.9203   -4.6720   -2.1820   H         1 RES1   0.0000
   260 H155      4.8480   -5.8573   -1.2154   H         1 RES1   0.0000
   261 H156      5.9460   -6.7720   -0.1944   H         1 RES1   0.0000
   262 H157      5.5779   -8.2698   -1.8656   H         1 RES1   0.0000
   263 H158      7.0578   -7.5210   -2.4536   H         1 RES1   0.0000
   264 H159      4.2799   -6.6517   -3.3777   H         1 RES1   0.0000
   265 H160      5.1659   -7.9849   -4.1078   H         1 RES1   0.0000
   266 H161      7.0624   -6.4118   -4.6022   H         1 RES1   0.0000
   267 H162      6.0279   -5.0652   -4.1227   H         1 RES1   0.0000
   268 H163      4.3953   -5.6380   -5.8575   H         1 RES1   0.0000
   269 H164      5.3020   -7.0833   -6.2863   H         1 RES1   0.0000
   270 H165      6.3996   -4.2429   -6.5427   H         1 RES1   0.0000
   271 H166      5.7601   -5.2104   -7.8737   H         1 RES1   0.0000
   272 H167      7.2185   -5.7220   -7.0310   H         1 RES1   0.0000
   273 H168      1.5652   -3.4498    0.9163   H         1 RES1   0.0000
   274 H169      3.0691   -4.3882    1.0100   H         1 RES1   0.0000
   275 H170      2.2366   -5.3939   -0.8541   H         1 RES1   0.0000
   276 H171      2.9935   -4.0303   -1.6565   H         1 RES1   0.0000
   277 H172      0.6409   -2.8720   -1.3903   H         1 RES1   0.0000
   278 H173      0.0634   -4.5250   -1.1506   H         1 RES1   0.0000
   279 H174     -0.1519   -4.0395   -3.4973   H         1 RES1   0.0000
   280 H175      1.2201   -5.1375   -3.3429   H         1 RES1   0.0000
   281 H176      2.7889   -3.2361   -3.4795   H         1 RES1   0.0000
   282 H177      1.4417   -2.1009   -3.4771   H         1 RES1   0.0000
   283 H178      0.6877   -3.1175   -5.6711   H         1 RES1   0.0000
   284 H179      2.1063   -4.1612   -5.6291   H         1 RES1   0.0000
   285 H180      2.1440   -1.1071   -5.7056   H         1 RES1   0.0000
   286 H181      2.4517   -2.1769   -7.0670   H         1 RES1   0.0000
   287 H182      4.4311   -3.1171   -5.8784   H         1 RES1   0.0000
   288 H183      4.1567   -1.9972   -4.5449   H         1 RES1   0.0000
   289 H184      4.3404   -0.0891   -6.2044   H         1 RES1   0.0000
   290 H185      4.8656   -1.2686   -7.4034   H         1 RES1   0.0000
   291 H186      6.2563   -0.7320   -4.7333   H         1 RES1   0.0000
   292 H187      6.8230   -0.2011   -6.3174   H         1 RES1   0.0000
   293 H188      6.7774   -1.9149   -5.9311   H         1 RES1   0.0000
   294 N5       -1.9216    1.5330   -0.3271   N.3       1 RES1   0.0000
   295 O7       -2.8674    1.9129   -0.9343   O.2       1 RES1   0.0000
   296 O8       -0.7870    2.0107   -0.4772   O.co2     1 RES1   0.0000
   297 O9       -2.0498    0.6405    0.5220   O.co2     1 RES1   0.0000
@<TRIPOS>BOND
     1     1    24    1
     2     1    27    1
     3     1    32    1
     4     1   170    1
     5     1   173    1
     6     1   178    1
     7     1   296    1
     8     1   297    1
     9     2     3    1
    10     2    54    1
    11     2    55    1
    12     2    56    1
    13     3     4    1
    14     3    57    1
    15     3    58    1
    16     4     5    1
    17     4    59    1
    18     4    60    1
    19     5     6    1
    20     5    61    1
    21     5    62    1
    22     6     7    1
    23     6    63    1
    24     6    64    1
    25     7     8    1
    26     7    65    1
    27     7    66    1
    28     8     9    1
    29     8    67    1
    30     8    68    1
    31     9    10    1
    32     9    69    1
    33     9    70    1
    34    10    11    1
    35    10    71    1
    36    10    72    1
    37    11    12    1
    38    11    73    1
    39    11    74    1
    40    12    13    1
    41    12    23    1
    42    13    14    1
    43    13    75    1
    44    13    76    1
    45    14    15    1
    46    14    77    1
    47    14    78    1
    48    15    16    1
    49    15    79    1
    50    15    80    1
    51    16    17    1
    52    16    81    1
    53    16    82    1
    54    17    18    1
    55    17    83    1
    56    17    84    1
    57    18    19    1
    58    18    85    1
    59    18    86    1
    60    19    20    1
    61    19    87    1
    62    19    88    1
    63    20    21    1
    64    20    89    1
    65    20    90    1
    66    21    22    1
    67    21    91    1
    68    21    92    1
    69    22    93    1
    70    22    94    1
    71    22    95    1
    72    23    24    2
    73    23    25    1
    74    25    26    1
    75    25    27    1
    76    25    96    1
    77    26    97    1
    78    26    98    1
    79    26    99    1
    80    27    28    1
    81    28    29    1
    82    28    31    1
    83    28   100    1
    84    29    30    1
    85    29   101    1
    86    29   102    1
    87    30   103    1
    88    30   104    1
    89    30   105    1
    90    31    32    2
    91    31    33    1
    92    33    34    1
    93    33    44    1
    94    34    35    1
    95    34   106    1
    96    34   107    1
    97    35    36    1
    98    35   108    1
    99    35   109    1
   100    36    37    1
   101    36   110    1
   102    36   111    1
   103    37    38    1
   104    37   112    1
   105    37   113    1
   106    38    39    1
   107    38   114    1
   108    38   115    1
   109    39    40    1
   110    39   116    1
   111    39   117    1
   112    40    41    1
   113    40   118    1
   114    40   119    1
   115    41    42    1
   116    41   120    1
   117    41   121    1
   118    42    43    1
   119    42   122    1
   120    42   123    1
   121    43   124    1
   122    43   125    1
   123    43   126    1
   124    44    45    1
   125    44   127    1
   126    44   128    1
   127    45    46    1
   128    45   129    1
   129    45   130    1
   130    46    47    1
   131    46   131    1
   132    46   132    1
   133    47    48    1
   134    47   133    1
   135    47   134    1
   136    48    49    1
   137    48   135    1
   138    48   136    1
   139    49    50    1
   140    49   137    1
   141    49   138    1
   142    50    51    1
   143    50   139    1
   144    50   140    1
   145    51    52    1
   146    51   141    1
   147    51   142    1
   148    52    53    1
   149    52   143    1
   150    52   144    1
   151    53   145    1
   152    53   146    1
   153    53   147    1
   154   148   149    1
   155   148   200    1
   156   148   201    1
   157   148   202    1
   158   149   150    1
   159   149   203    1
   160   149   204    1
   161   150   151    1
   162   150   205    1
   163   150   206    1
   164   151   152    1
   165   151   207    1
   166   151   208    1
   167   152   153    1
   168   152   209    1
   169   152   210    1
   170   153   154    1
   171   153   211    1
   172   153   212    1
   173   154   155    1
   174   154   213    1
   175   154   214    1
   176   155   156    1
   177   155   215    1
   178   155   216    1
   179   156   157    1
   180   156   217    1
   181   156   218    1
   182   157   158    1
   183   157   219    1
   184   157   220    1
   185   158   159    1
   186   158   169    1
   187   159   160    1
   188   159   221    1
   189   159   222    1
   190   160   161    1
   191   160   223    1
   192   160   224    1
   193   161   162    1
   194   161   225    1
   195   161   226    1
   196   162   163    1
   197   162   227    1
   198   162   228    1
   199   163   164    1
   200   163   229    1
   201   163   230    1
   202   164   165    1
   203   164   231    1
   204   164   232    1
   205   165   166    1
   206   165   233    1
   207   165   234    1
   208   166   167    1
   209   166   235    1
   210   166   236    1
   211   167   168    1
   212   167   237    1
   213   167   238    1
   214   168   239    1
   215   168   240    1
   216   168   241    1
   217   169   170    2
   218   169   171    1
   219   171   172    1
   220   171   173    1
   221   171   242    1
   222   172   243    1
   223   172   244    1
   224   172   245    1
   225   173   174    1
   226   174   175    1
   227   174   177    1
   228   174   246    1
   229   175   176    1
   230   175   247    1
   231   175   248    1
   232   176   249    1
   233   176   250    1
   234   176   251    1
   235   177   178    2
   236   177   179    1
   237   179   180    1
   238   179   190    1
   239   180   181    1
   240   180   252    1
   241   180   253    1
   242   181   182    1
   243   181   254    1
   244   181   255    1
   245   182   183    1
   246   182   256    1
   247   182   257    1
   248   183   184    1
   249   183   258    1
   250   183   259    1
   251   184   185    1
   252   184   260    1
   253   184   261    1
   254   185   186    1
   255   185   262    1
   256   185   263    1
   257   186   187    1
   258   186   264    1
   259   186   265    1
   260   187   188    1
   261   187   266    1
   262   187   267    1
   263   188   189    1
   264   188   268    1
   265   188   269    1
   266   189   270    1
   267   189   271    1
   268   189   272    1
   269   190   191    1
   270   190   273    1
   271   190   274    1
   272   191   192    1
   273   191   275    1
   274   191   276    1
   275   192   193    1
   276   192   277    1
   277   192   278    1
   278   193   194    1
   279   193   279    1
   280   193   280    1
   281   194   195    1
   282   194   281    1
   283   194   282    1
   284   195   196    1
   285   195   283    1
   286   195   284    1
   287   196   197    1
   288   196   285    1
   289   196   286    1
   290   197   198    1
   291   197   287    1
   292   197   288    1
   293   198   199    1
   294   198   289    1
   295   198   290    1
   296   199   291    1
   297   199   292    1
   298   199   293    1
   299   294   295    2
   300   294   296    1
   301   294   297    1
@<TRIPOS>SUBSTRUCTURE
     1 RES1      297 GROUP             0 ****  ****    0  
