@<TRIPOS>MOLECULE
ICIGOT_geomtry_0_nunpairedes_0_charge_3 Charge: 3 Unpaired_Electrons: 1 XTB_Unpaired_Electrons: 0 XTB_Charge: 3
   117   130     1     0     0
SMALL
NoCharges
****
Generated from Architector

@<TRIPOS>ATOM
     1 Yb1      -0.6923   -0.4690    0.1568   Yb        1 RES1   0.0000
     2 C1        6.8270    2.7352   -1.9634   C.3       1 RES1   0.0000
     3 C2        5.5583    2.9250   -2.7909   C.3       1 RES1   0.0000
     4 C3        4.3280    3.2893   -1.9487   C.3       1 RES1   0.0000
     5 C4        3.0812    3.5268   -2.8202   C.3       1 RES1   0.0000
     6 C5        2.0475    4.4930   -2.2229   C.3       1 RES1   0.0000
     7 C6        1.0840    3.8919   -1.1939   C.3       1 RES1   0.0000
     8 N1       -0.0208    3.1673   -1.8079   N.ar      1 RES1   0.0000
     9 C7       -0.9290    3.7499   -2.7421   C.ar      1 RES1   0.0000
    10 C8       -1.4344    5.0095   -2.1668   C.ar      1 RES1   0.0000
    11 C9       -1.7478    4.9160   -0.7988   C.ar      1 RES1   0.0000
    12 C10      -2.1628    6.0178   -0.0882   C.ar      1 RES1   0.0000
    13 C11      -2.2747    7.2401   -0.7316   C.ar      1 RES1   0.0000
    14 C12      -2.0565    7.3236   -2.0977   C.ar      1 RES1   0.0000
    15 C13      -1.6278    6.2196   -2.8212   C.ar      1 RES1   0.0000
    16 C14      -1.4225    2.9939   -3.7652   C.ar      1 RES1   0.0000
    17 C15      -2.6639    3.4029   -4.4646   C.ar      1 RES1   0.0000
    18 C16      -2.9087    3.3509   -5.8329   C.ar      1 RES1   0.0000
    19 C17      -4.1407    3.7579   -6.3264   C.ar      1 RES1   0.0000
    20 C18      -5.1396    4.2056   -5.4764   C.ar      1 RES1   0.0000
    21 C19      -4.9165    4.2171   -4.1104   C.ar      1 RES1   0.0000
    22 C20      -3.6999    3.8025   -3.6111   C.ar      1 RES1   0.0000
    23 C21      -0.9382    1.6008   -3.7628   C.ar      1 RES1   0.0000
    24 C22      -0.4257    0.7542   -4.7431   C.ar      1 RES1   0.0000
    25 C23       0.2517   -0.4267   -4.3368   C.ar      1 RES1   0.0000
    26 C24       1.3170   -1.0526   -5.0672   C.ar      1 RES1   0.0000
    27 C25       2.2582   -1.8110   -4.4402   C.ar      1 RES1   0.0000
    28 C26       2.2565   -2.0263   -3.0150   C.ar      1 RES1   0.0000
    29 C27       3.3705   -2.3564   -2.2231   C.ar      1 RES1   0.0000
    30 C28       3.3041   -2.1575   -0.8258   C.ar      1 RES1   0.0000
    31 C29       4.3919   -2.0684    0.1063   C.ar      1 RES1   0.0000
    32 C30       5.7655   -2.5730   -0.0992   C.ar      1 RES1   0.0000
    33 C31       6.0755   -3.8682    0.3007   C.ar      1 RES1   0.0000
    34 C32       7.4010   -4.2450    0.4080   C.ar      1 RES1   0.0000
    35 C33       8.4075   -3.3449    0.0966   C.ar      1 RES1   0.0000
    36 C34       8.0935   -2.0829   -0.3835   C.ar      1 RES1   0.0000
    37 C35       6.7719   -1.6957   -0.4886   C.ar      1 RES1   0.0000
    38 C36       4.2109   -1.3934    1.2917   C.ar      1 RES1   0.0000
    39 C37       5.2259   -1.3346    2.3605   C.ar      1 RES1   0.0000
    40 C38       5.0985   -2.3098    3.3482   C.ar      1 RES1   0.0000
    41 C39       5.8923   -2.2470    4.4770   C.ar      1 RES1   0.0000
    42 C40       6.8073   -1.2168    4.6242   C.ar      1 RES1   0.0000
    43 C41       6.9668   -0.2767    3.6180   C.ar      1 RES1   0.0000
    44 C42       6.1810   -0.3330    2.4791   C.ar      1 RES1   0.0000
    45 N2        3.0024   -0.8222    1.6531   N.ar      1 RES1   0.0000
    46 C43       2.9354    0.3193    2.5819   C.3       1 RES1   0.0000
    47 C44       2.1449    0.1431    3.8947   C.3       1 RES1   0.0000
    48 C45       3.0069    0.1489    5.1639   C.3       1 RES1   0.0000
    49 C46       3.9307    1.3533    5.3786   C.3       1 RES1   0.0000
    50 C47       3.2853    2.7432    5.3939   C.3       1 RES1   0.0000
    51 C48       3.1827    3.4169    4.0310   C.3       1 RES1   0.0000
    52 C49       1.8902   -1.2164    1.0265   C.ar      1 RES1   0.0000
    53 O1        0.7355   -0.8892    1.4681   O.2       1 RES1   0.0000
    54 C50       2.0332   -1.8453   -0.2715   C.ar      1 RES1   0.0000
    55 N3        0.9082   -1.7746   -1.0072   N.ar      1 RES1   0.0000
    56 C51       1.0387   -1.7230   -2.3419   C.ar      1 RES1   0.0000
    57 C52       0.0660   -0.8796   -3.0078   C.ar      1 RES1   0.0000
    58 N4       -0.6537   -0.1649   -2.1189   N.ar      1 RES1   0.0000
    59 C53      -0.8917    1.1144   -2.4262   C.ar      1 RES1   0.0000
    60 C54      -0.4135    1.9863   -1.3486   C.ar      1 RES1   0.0000
    61 O2       -0.1442    1.5289   -0.1892   O.2       1 RES1   0.0000
    62 H1        7.6751    2.5504   -2.6191   H         1 RES1   0.0000
    63 H2        6.7354    1.8959   -1.2751   H         1 RES1   0.0000
    64 H3        7.0487    3.6289   -1.3858   H         1 RES1   0.0000
    65 H4        5.3588    2.0173   -3.3653   H         1 RES1   0.0000
    66 H5        5.7366    3.7298   -3.5043   H         1 RES1   0.0000
    67 H6        4.5667    4.1966   -1.3897   H         1 RES1   0.0000
    68 H7        4.1309    2.4948   -1.2232   H         1 RES1   0.0000
    69 H8        2.6024    2.5729   -3.0683   H         1 RES1   0.0000
    70 H9        3.4218    3.9720   -3.7550   H         1 RES1   0.0000
    71 H10       1.4565    4.9483   -3.0207   H         1 RES1   0.0000
    72 H11       2.5980    5.2938   -1.7258   H         1 RES1   0.0000
    73 H12       0.6945    4.6956   -0.5691   H         1 RES1   0.0000
    74 H13       1.5979    3.1667   -0.5622   H         1 RES1   0.0000
    75 H14      -1.6777    3.9613   -0.2907   H         1 RES1   0.0000
    76 H15      -2.4041    5.9189    0.9591   H         1 RES1   0.0000
    77 H16      -2.5303    8.1204   -0.1666   H         1 RES1   0.0000
    78 H17      -2.2293    8.2599   -2.6033   H         1 RES1   0.0000
    79 H18      -1.4386    6.2981   -3.8809   H         1 RES1   0.0000
    80 H19      -2.1364    3.0353   -6.5187   H         1 RES1   0.0000
    81 H20      -4.3199    3.7465   -7.3887   H         1 RES1   0.0000
    82 H21      -6.0833    4.5497   -5.8693   H         1 RES1   0.0000
    83 H22      -5.6815    4.5615   -3.4335   H         1 RES1   0.0000
    84 H23      -3.5375    3.7643   -2.5459   H         1 RES1   0.0000
    85 H24      -0.3725    1.0681   -5.7773   H         1 RES1   0.0000
    86 H25       1.4325   -0.8226   -6.1157   H         1 RES1   0.0000
    87 H26       3.1003   -2.1644   -5.0131   H         1 RES1   0.0000
    88 H27       4.3067   -2.6561   -2.6810   H         1 RES1   0.0000
    89 H28       5.2800   -4.5506    0.5611   H         1 RES1   0.0000
    90 H29       7.6472   -5.2398    0.7427   H         1 RES1   0.0000
    91 H30       9.4417   -3.6218    0.2155   H         1 RES1   0.0000
    92 H31       8.8745   -1.3945   -0.6649   H         1 RES1   0.0000
    93 H32       6.5036   -0.7116   -0.8467   H         1 RES1   0.0000
    94 H33       4.3747   -3.1028    3.2327   H         1 RES1   0.0000
    95 H34       5.8019   -3.0062    5.2370   H         1 RES1   0.0000
    96 H35       7.3944   -1.1428    5.5266   H         1 RES1   0.0000
    97 H36       7.7120    0.4960    3.7205   H         1 RES1   0.0000
    98 H37       6.2869    0.4051    1.6976   H         1 RES1   0.0000
    99 H38       2.4740    1.1278    1.9943   H         1 RES1   0.0000
   100 H39       3.9609    0.5962    2.8306   H         1 RES1   0.0000
   101 H40       1.5684   -0.7855    3.8694   H         1 RES1   0.0000
   102 H41       1.4411    0.9726    3.9624   H         1 RES1   0.0000
   103 H42       3.6165   -0.7562    5.1834   H         1 RES1   0.0000
   104 H43       2.3201    0.0872    6.0099   H         1 RES1   0.0000
   105 H44       4.7384    1.3416    4.6458   H         1 RES1   0.0000
   106 H45       4.4018    1.1922    6.3488   H         1 RES1   0.0000
   107 H46       3.9057    3.3818    6.0205   H         1 RES1   0.0000
   108 H47       2.3052    2.6971    5.8658   H         1 RES1   0.0000
   109 H48       4.1322    3.3558    3.5073   H         1 RES1   0.0000
   110 H49       2.9453    4.4686    4.1544   H         1 RES1   0.0000
   111 H50       2.4116    2.9793    3.4037   H         1 RES1   0.0000
   112 O3       -1.7571    0.3346    2.0588   O.3       1 RES1   0.0000
   113 H51      -2.3461    1.0431    2.3728   H         1 RES1   0.0000
   114 H52      -1.1889    0.1278    2.8251   H         1 RES1   0.0000
   115 O4       -2.3939   -2.0925    0.0637   O.3       1 RES1   0.0000
   116 H53      -3.3555   -2.0413   -0.0750   H         1 RES1   0.0000
   117 H54      -2.2361   -3.0528    0.0479   H         1 RES1   0.0000
@<TRIPOS>BOND
     1     1     8    1
     2     1    45    1
     3     1    53    1
     4     1    55    1
     5     1    58    1
     6     1    61    1
     7     1   112    1
     8     1   115    1
     9     2     3    1
    10     2    62    1
    11     2    63    1
    12     2    64    1
    13     3     4    1
    14     3    65    1
    15     3    66    1
    16     4     5    1
    17     4    67    1
    18     4    68    1
    19     5     6    1
    20     5    69    1
    21     5    70    1
    22     6     7    1
    23     6    71    1
    24     6    72    1
    25     7     8    1
    26     7    73    1
    27     7    74    1
    28     8     9    1
    29     8    60    1
    30     9    10    1
    31     9    16    2
    32    10    11    1
    33    10    15    2
    34    11    12    2
    35    11    75    1
    36    12    13    1
    37    12    76    1
    38    13    14    2
    39    13    77    1
    40    14    15    1
    41    14    78    1
    42    15    79    1
    43    16    17    1
    44    16    23    1
    45    17    18    1
    46    17    22    2
    47    18    19    2
    48    18    80    1
    49    19    20    1
    50    19    81    1
    51    20    21    2
    52    20    82    1
    53    21    22    1
    54    21    83    1
    55    22    84    1
    56    23    24    1
    57    23    59    2
    58    24    25    2
    59    24    85    1
    60    25    26    1
    61    25    57    1
    62    26    27    2
    63    26    86    1
    64    27    28    1
    65    27    87    1
    66    28    29    1
    67    28    56    2
    68    29    30    2
    69    29    88    1
    70    30    31    1
    71    30    54    1
    72    31    32    1
    73    31    38    2
    74    32    33    1
    75    32    37    2
    76    33    34    2
    77    33    89    1
    78    34    35    1
    79    34    90    1
    80    35    36    2
    81    35    91    1
    82    36    37    1
    83    36    92    1
    84    37    93    1
    85    38    39    1
    86    38    45    1
    87    39    40    1
    88    39    44    2
    89    40    41    2
    90    40    94    1
    91    41    42    1
    92    41    95    1
    93    42    43    2
    94    42    96    1
    95    43    44    1
    96    43    97    1
    97    44    98    1
    98    45    46    1
    99    45    52    1
   100    46    47    1
   101    46    99    1
   102    46   100    1
   103    47    48    1
   104    47   101    1
   105    47   102    1
   106    48    49    1
   107    48   103    1
   108    48   104    1
   109    49    50    1
   110    49   105    1
   111    49   106    1
   112    50    51    1
   113    50   107    1
   114    50   108    1
   115    51   109    1
   116    51   110    1
   117    51   111    1
   118    52    53    2
   119    52    54    1
   120    54    55    2
   121    55    56    1
   122    56    57    1
   123    57    58    2
   124    58    59    1
   125    59    60    1
   126    60    61    2
   127   112   113    1
   128   112   114    1
   129   115   116    1
   130   115   117    1
@<TRIPOS>SUBSTRUCTURE
     1 RES1      117 GROUP             0 ****  ****    0  
