@<TRIPOS>MOLECULE
YEMSEP_geometry_0_nunpairedes_0_charge_3 Charge: 3 Unpaired_Electrons: 1 XTB_Unpaired_Electrons: 0 XTB_Charge: 3
   253   264     1     0     0
SMALL
NoCharges
****
Generated from Architector

@<TRIPOS>ATOM
     1 Yb1      -0.2787   -0.2111   -0.2169   Yb        1 RES1   0.0000
     2 C1        5.4374   -1.3652   -6.1157   C.3       1 RES1   0.0000
     3 C2        4.2562   -2.3216   -5.9939   C.3       1 RES1   0.0000
     4 C3        3.4306   -2.0817   -4.7284   C.3       1 RES1   0.0000
     5 C4        2.5264   -0.8479   -4.7924   C.3       1 RES1   0.0000
     6 C5        1.1853   -1.1031   -5.4686   C.3       1 RES1   0.0000
     7 C6        0.1942    0.0333   -5.2066   C.3       1 RES1   0.0000
     8 C7       -1.2219   -0.3501   -5.6456   C.3       1 RES1   0.0000
     9 C8       -2.0707   -1.0606   -4.5795   C.3       1 RES1   0.0000
    10 N1       -1.4492   -2.1941   -3.8733   N.am      1 RES1   0.0000
    11 C9       -1.8969   -3.4951   -4.3657   C.3       1 RES1   0.0000
    12 C10      -1.3901   -3.8572   -5.7739   C.3       1 RES1   0.0000
    13 C11      -0.0297   -4.5559   -5.8222   C.3       1 RES1   0.0000
    14 C12       0.5945   -4.4918   -7.2199   C.3       1 RES1   0.0000
    15 C13       1.9665   -5.1675   -7.2367   C.3       1 RES1   0.0000
    16 C14       2.7568   -4.8768   -8.5117   C.3       1 RES1   0.0000
    17 C15       4.1466   -5.5061   -8.4475   C.3       1 RES1   0.0000
    18 C16       5.0667   -5.0032   -9.5495   C.3       1 RES1   0.0000
    19 C17      -0.8247   -1.9034   -2.7241   C.2       1 RES1   0.0000
    20 O1       -0.8986   -0.7340   -2.2627   O.2       1 RES1   0.0000
    21 C18       0.0401   -2.8635   -1.9160   C.ar      1 RES1   0.0000
    22 C19       0.4501   -4.1640   -2.2542   C.ar      1 RES1   0.0000
    23 C20       1.2659   -4.8694   -1.3954   C.ar      1 RES1   0.0000
    24 C21       1.7345   -4.2792   -0.2069   C.ar      1 RES1   0.0000
    25 C22       2.5841   -4.9510    0.7226   C.ar      1 RES1   0.0000
    26 C23       3.1421   -4.2770    1.7631   C.ar      1 RES1   0.0000
    27 C24       2.8250   -2.9100    2.0107   C.ar      1 RES1   0.0000
    28 C25       3.3365   -2.2102    3.1163   C.ar      1 RES1   0.0000
    29 C26       2.9287   -0.9215    3.3574   C.ar      1 RES1   0.0000
    30 C27       2.0418   -0.2901    2.4761   C.ar      1 RES1   0.0000
    31 C28       1.5031    1.1367    2.5773   C.2       1 RES1   0.0000
    32 O2        0.4583    1.3053    1.9076   O.2       1 RES1   0.0000
    33 N2        2.1229    2.1757    3.1807   N.am      1 RES1   0.0000
    34 C29       3.0793    2.1148    4.2802   C.3       1 RES1   0.0000
    35 C30       2.4273    2.1310    5.6785   C.3       1 RES1   0.0000
    36 C31       1.3037    1.1212    5.9121   C.3       1 RES1   0.0000
    37 C32       1.7159   -0.1761    6.6084   C.3       1 RES1   0.0000
    38 C33       0.5243   -1.1154    6.8199   C.3       1 RES1   0.0000
    39 C34      -0.1056   -1.6284    5.5235   C.3       1 RES1   0.0000
    40 C35      -1.3659   -2.4543    5.7763   C.3       1 RES1   0.0000
    41 C36      -2.0050   -2.9122    4.4709   C.3       1 RES1   0.0000
    42 C37       1.6015    3.5464    2.9697   C.3       1 RES1   0.0000
    43 C38       2.6184    4.6009    2.4673   C.3       1 RES1   0.0000
    44 C39       1.9565    5.9464    2.1107   C.3       1 RES1   0.0000
    45 C40       2.8082    6.7681    1.1130   C.3       1 RES1   0.0000
    46 C41       2.0467    7.8238    0.2651   C.3       1 RES1   0.0000
    47 C42       2.0491    7.6435   -1.2818   C.3       1 RES1   0.0000
    48 C43       0.6681    7.5450   -1.9653   C.3       1 RES1   0.0000
    49 C44       0.6494    7.9476   -3.4389   C.3       1 RES1   0.0000
    50 N3        1.5387   -0.9518    1.4172   N.ar      1 RES1   0.0000
    51 C45       1.9072   -2.2266    1.1711   C.ar      1 RES1   0.0000
    52 C46       1.3620   -2.9313    0.0175   C.ar      1 RES1   0.0000
    53 N4        0.5169   -2.2885   -0.8045   N.ar      1 RES1   0.0000
    54 H1        6.0730   -1.6674   -6.9430   H         1 RES1   0.0000
    55 H2        6.0372   -1.3769   -5.2059   H         1 RES1   0.0000
    56 H3        5.1076   -0.3457   -6.3034   H         1 RES1   0.0000
    57 H4        4.6408   -3.3428   -5.9699   H         1 RES1   0.0000
    58 H5        3.6199   -2.2346   -6.8751   H         1 RES1   0.0000
    59 H6        4.1235   -1.9800   -3.8876   H         1 RES1   0.0000
    60 H7        2.8110   -2.9607   -4.5288   H         1 RES1   0.0000
    61 H8        3.0428   -0.0424   -5.3131   H         1 RES1   0.0000
    62 H9        2.3092   -0.5109   -3.7757   H         1 RES1   0.0000
    63 H10       0.7729   -2.0351   -5.0849   H         1 RES1   0.0000
    64 H11       1.3206   -1.2179   -6.5443   H         1 RES1   0.0000
    65 H12       0.5142    0.9229   -5.7561   H         1 RES1   0.0000
    66 H13       0.1949    0.3019   -4.1449   H         1 RES1   0.0000
    67 H14      -1.1555   -0.9621   -6.5462   H         1 RES1   0.0000
    68 H15      -1.7783    0.5546   -5.9037   H         1 RES1   0.0000
    69 H16      -2.9820   -1.4163   -5.0622   H         1 RES1   0.0000
    70 H17      -2.3360   -0.3182   -3.8258   H         1 RES1   0.0000
    71 H18      -2.9914   -3.4392   -4.4225   H         1 RES1   0.0000
    72 H19      -1.6613   -4.2751   -3.6461   H         1 RES1   0.0000
    73 H20      -1.3392   -2.9483   -6.3717   H         1 RES1   0.0000
    74 H21      -2.1323   -4.5072   -6.2419   H         1 RES1   0.0000
    75 H22      -0.1373   -5.6002   -5.5175   H         1 RES1   0.0000
    76 H23       0.6694   -4.0698   -5.1366   H         1 RES1   0.0000
    77 H24       0.7219   -3.4425   -7.5032   H         1 RES1   0.0000
    78 H25      -0.0623   -4.9623   -7.9543   H         1 RES1   0.0000
    79 H26       1.8533   -6.2473   -7.1123   H         1 RES1   0.0000
    80 H27       2.5493   -4.7937   -6.3882   H         1 RES1   0.0000
    81 H28       2.8632   -3.7944   -8.6222   H         1 RES1   0.0000
    82 H29       2.2159   -5.2426   -9.3877   H         1 RES1   0.0000
    83 H30       4.0556   -6.5932   -8.5034   H         1 RES1   0.0000
    84 H31       4.6007   -5.2697   -7.4808   H         1 RES1   0.0000
    85 H32       4.6333   -5.1878  -10.5291   H         1 RES1   0.0000
    86 H33       6.0293   -5.5046   -9.4975   H         1 RES1   0.0000
    87 H34       5.2363   -3.9316   -9.4502   H         1 RES1   0.0000
    88 H35       0.1449   -4.6291   -3.1752   H         1 RES1   0.0000
    89 H36       1.5667   -5.8789   -1.6383   H         1 RES1   0.0000
    90 H37       2.7826   -6.0029    0.5669   H         1 RES1   0.0000
    91 H38       3.8312   -4.7734    2.4298   H         1 RES1   0.0000
    92 H39       4.0398   -2.6955    3.7796   H         1 RES1   0.0000
    93 H40       3.2632   -0.4404    4.2547   H         1 RES1   0.0000
    94 H41       3.6986    3.0090    4.2056   H         1 RES1   0.0000
    95 H42       3.7521    1.2702    4.1749   H         1 RES1   0.0000
    96 H43       2.0499    3.1377    5.8650   H         1 RES1   0.0000
    97 H44       3.2239    1.9538    6.3988   H         1 RES1   0.0000
    98 H45       0.8308    0.8928    4.9548   H         1 RES1   0.0000
    99 H46       0.5525    1.5937    6.5428   H         1 RES1   0.0000
   100 H47       2.1360    0.0647    7.5861   H         1 RES1   0.0000
   101 H48       2.4862   -0.7033    6.0456   H         1 RES1   0.0000
   102 H49      -0.2337   -0.5925    7.4046   H         1 RES1   0.0000
   103 H50       0.8490   -1.9729    7.4111   H         1 RES1   0.0000
   104 H51       0.6248   -2.2345    4.9772   H         1 RES1   0.0000
   105 H52      -0.3753   -0.7859    4.8798   H         1 RES1   0.0000
   106 H53      -2.0796   -1.8534    6.3427   H         1 RES1   0.0000
   107 H54      -1.1200   -3.3244    6.3842   H         1 RES1   0.0000
   108 H55      -2.2333   -2.0571    3.8325   H         1 RES1   0.0000
   109 H56      -2.9249   -3.4536    4.6697   H         1 RES1   0.0000
   110 H57      -1.3302   -3.5677    3.9242   H         1 RES1   0.0000
   111 H58       1.1861    3.8995    3.9176   H         1 RES1   0.0000
   112 H59       0.7922    3.4596    2.2449   H         1 RES1   0.0000
   113 H60       3.1291    4.2315    1.5806   H         1 RES1   0.0000
   114 H61       3.3823    4.8055    3.2175   H         1 RES1   0.0000
   115 H62       1.8020    6.5200    3.0265   H         1 RES1   0.0000
   116 H63       0.9706    5.7492    1.7085   H         1 RES1   0.0000
   117 H64       3.3377    6.0833    0.4473   H         1 RES1   0.0000
   118 H65       3.5856    7.2762    1.6842   H         1 RES1   0.0000
   119 H66       2.4964    8.7977    0.4685   H         1 RES1   0.0000
   120 H67       1.0161    7.8887    0.6197   H         1 RES1   0.0000
   121 H68       2.6572    6.7815   -1.5719   H         1 RES1   0.0000
   122 H69       2.5403    8.5149   -1.7139   H         1 RES1   0.0000
   123 H70      -0.0402    8.1849   -1.4313   H         1 RES1   0.0000
   124 H71       0.2865    6.5227   -1.9416   H         1 RES1   0.0000
   125 H72       0.9611    8.9757   -3.5701   H         1 RES1   0.0000
   126 H73      -0.3663    7.8371   -3.8109   H         1 RES1   0.0000
   127 H74       1.2936    7.3085   -4.0360   H         1 RES1   0.0000
   128 C47      -5.7533    4.1486   -0.6605   C.3       1 RES1   0.0000
   129 C48      -5.6010    2.6339   -0.7146   C.3       1 RES1   0.0000
   130 C49      -6.3278    2.0523   -1.9246   C.3       1 RES1   0.0000
   131 C50      -6.3135    0.5261   -1.9692   C.3       1 RES1   0.0000
   132 C51      -4.8919   -0.0148   -2.1063   C.3       1 RES1   0.0000
   133 C52      -4.8015   -1.4630   -2.5866   C.3       1 RES1   0.0000
   134 C53      -5.4462   -2.5208   -1.6907   C.3       1 RES1   0.0000
   135 C54      -4.6253   -2.8850   -0.4438   C.3       1 RES1   0.0000
   136 N5       -4.5005   -1.7726    0.4892   N.am      1 RES1   0.0000
   137 C55      -5.7029   -1.4808    1.2453   C.3       1 RES1   0.0000
   138 C56      -5.6344   -2.1622    2.6200   C.3       1 RES1   0.0000
   139 C57      -6.6265   -1.5541    3.6104   C.3       1 RES1   0.0000
   140 C58      -6.1820   -1.7344    5.0623   C.3       1 RES1   0.0000
   141 C59      -6.9745   -0.8452    6.0205   C.3       1 RES1   0.0000
   142 C60      -6.7028    0.6513    5.8491   C.3       1 RES1   0.0000
   143 C61      -7.4544    1.5043    6.8749   C.3       1 RES1   0.0000
   144 C62      -6.8923    1.3690    8.2843   C.3       1 RES1   0.0000
   145 C63      -3.3303   -1.1764    0.6877   C.2       1 RES1   0.0000
   146 O3       -2.2487   -1.6322    0.2293   O.2       1 RES1   0.0000
   147 C64      -3.2397    0.2244    1.2629   C.ar      1 RES1   0.0000
   148 C65      -3.9906    0.8674    2.2637   C.ar      1 RES1   0.0000
   149 C66      -3.8746    2.2386    2.4011   C.ar      1 RES1   0.0000
   150 C67      -2.9746    2.9604    1.6012   C.ar      1 RES1   0.0000
   151 C68      -2.8403    4.3837    1.6177   C.ar      1 RES1   0.0000
   152 C69      -1.8657    5.0006    0.9023   C.ar      1 RES1   0.0000
   153 C70      -0.8670    4.2346    0.2256   C.ar      1 RES1   0.0000
   154 C71       0.3359    4.7720   -0.2693   C.ar      1 RES1   0.0000
   155 C72       1.3414    3.9423   -0.7287   C.ar      1 RES1   0.0000
   156 C73       1.1200    2.5618   -0.7306   C.ar      1 RES1   0.0000
   157 C74       2.0782    1.4794   -1.1514   C.2       1 RES1   0.0000
   158 O4        1.5398    0.4295   -1.5825   O.2       1 RES1   0.0000
   159 N6        3.4042    1.6196   -1.0954   N.am      1 RES1   0.0000
   160 C75       4.0739    2.3483   -0.0211   C.3       1 RES1   0.0000
   161 C76       5.2889    1.5589    0.4844   C.3       1 RES1   0.0000
   162 C77       5.8166    2.0333    1.8318   C.3       1 RES1   0.0000
   163 C78       6.4392    3.4271    1.8428   C.3       1 RES1   0.0000
   164 C79       6.7343    3.8284    3.2866   C.3       1 RES1   0.0000
   165 C80       7.4861    5.1524    3.4316   C.3       1 RES1   0.0000
   166 C81       7.1152    5.8508    4.7413   C.3       1 RES1   0.0000
   167 C82       7.2792    4.9522    5.9630   C.3       1 RES1   0.0000
   168 C83       4.1845    0.7529   -1.9740   C.3       1 RES1   0.0000
   169 C84       4.6339    1.4637   -3.2582   C.3       1 RES1   0.0000
   170 C85       5.9501    2.2484   -3.1906   C.3       1 RES1   0.0000
   171 C86       5.8945    3.6633   -2.6054   C.3       1 RES1   0.0000
   172 C87       4.7335    4.5112   -3.1199   C.3       1 RES1   0.0000
   173 C88       4.7823    4.6988   -4.6331   C.3       1 RES1   0.0000
   174 C89       3.6245    5.5401   -5.1680   C.3       1 RES1   0.0000
   175 C90       3.8629    7.0352   -5.0080   C.3       1 RES1   0.0000
   176 N7       -0.0753    2.0585   -0.4210   N.ar      1 RES1   0.0000
   177 C91      -1.0210    2.8419    0.1149   C.ar      1 RES1   0.0000
   178 C92      -2.1442    2.2000    0.7500   C.ar      1 RES1   0.0000
   179 N8       -2.2982    0.8806    0.5803   N.ar      1 RES1   0.0000
   180 H75      -5.2217    4.5710    0.1909   H         1 RES1   0.0000
   181 H76      -6.8015    4.4217   -0.5732   H         1 RES1   0.0000
   182 H77      -5.3631    4.5999   -1.5697   H         1 RES1   0.0000
   183 H78      -6.0080    2.1976    0.2011   H         1 RES1   0.0000
   184 H79      -4.5380    2.3796   -0.7621   H         1 RES1   0.0000
   185 H80      -5.8700    2.4403   -2.8354   H         1 RES1   0.0000
   186 H81      -7.3607    2.3968   -1.9137   H         1 RES1   0.0000
   187 H82      -6.9081    0.1956   -2.8216   H         1 RES1   0.0000
   188 H83      -6.7914    0.1361   -1.0697   H         1 RES1   0.0000
   189 H84      -4.3564    0.0919   -1.1646   H         1 RES1   0.0000
   190 H85      -4.3696    0.5981   -2.8434   H         1 RES1   0.0000
   191 H86      -3.7480   -1.7211   -2.7043   H         1 RES1   0.0000
   192 H87      -5.2823   -1.5195   -3.5643   H         1 RES1   0.0000
   193 H88      -5.5526   -3.4438   -2.2666   H         1 RES1   0.0000
   194 H89      -6.4533   -2.2057   -1.4220   H         1 RES1   0.0000
   195 H90      -3.6222   -3.1992   -0.7358   H         1 RES1   0.0000
   196 H91      -5.1191   -3.7073    0.0785   H         1 RES1   0.0000
   197 H92      -6.5653   -1.8498    0.6906   H         1 RES1   0.0000
   198 H93      -5.8183   -0.4037    1.3596   H         1 RES1   0.0000
   199 H94      -4.6181   -2.0484    3.0055   H         1 RES1   0.0000
   200 H95      -5.8172   -3.2302    2.5078   H         1 RES1   0.0000
   201 H96      -7.6122   -1.9969    3.4700   H         1 RES1   0.0000
   202 H97      -6.7161   -0.4869    3.3999   H         1 RES1   0.0000
   203 H98      -5.1179   -1.4951    5.1570   H         1 RES1   0.0000
   204 H99      -6.3133   -2.7776    5.3546   H         1 RES1   0.0000
   205 H100     -6.7113   -1.1300    7.0379   H         1 RES1   0.0000
   206 H101     -8.0408   -1.0310    5.8868   H         1 RES1   0.0000
   207 H102     -7.0138    0.9744    4.8517   H         1 RES1   0.0000
   208 H103     -5.6288    0.8421    5.9430   H         1 RES1   0.0000
   209 H104     -8.5070    1.2162    6.8673   H         1 RES1   0.0000
   210 H105     -7.3989    2.5530    6.5690   H         1 RES1   0.0000
   211 H106     -6.9725    0.3465    8.6430   H         1 RES1   0.0000
   212 H107     -7.4452    2.0076    8.9662   H         1 RES1   0.0000
   213 H108     -5.8443    1.6639    8.3081   H         1 RES1   0.0000
   214 H109     -4.6235    0.3170    2.9432   H         1 RES1   0.0000
   215 H110     -4.4761    2.7720    3.1206   H         1 RES1   0.0000
   216 H111     -3.5380    4.9524    2.2146   H         1 RES1   0.0000
   217 H112     -1.7996    6.0783    0.8716   H         1 RES1   0.0000
   218 H113      0.4801    5.8338   -0.2186   H         1 RES1   0.0000
   219 H114      2.2723    4.3533   -1.0977   H         1 RES1   0.0000
   220 H115      3.3586    2.4534    0.7993   H         1 RES1   0.0000
   221 H116      4.3855    3.3418   -0.3506   H         1 RES1   0.0000
   222 H117      6.1017    1.6144   -0.2380   H         1 RES1   0.0000
   223 H118      4.9899    0.5141    0.6025   H         1 RES1   0.0000
   224 H119      6.5669    1.3108    2.1602   H         1 RES1   0.0000
   225 H120      5.0048    2.0125    2.5562   H         1 RES1   0.0000
   226 H121      5.7493    4.1588    1.4143   H         1 RES1   0.0000
   227 H122      7.3556    3.4349    1.2508   H         1 RES1   0.0000
   228 H123      7.3041    3.0339    3.7705   H         1 RES1   0.0000
   229 H124      5.7788    3.9119    3.8130   H         1 RES1   0.0000
   230 H125      7.2435    5.8159    2.5990   H         1 RES1   0.0000
   231 H126      8.5604    4.9701    3.3950   H         1 RES1   0.0000
   232 H127      6.0772    6.1941    4.6794   H         1 RES1   0.0000
   233 H128      7.7466    6.7300    4.8616   H         1 RES1   0.0000
   234 H129      6.5855    4.1128    5.9331   H         1 RES1   0.0000
   235 H130      7.0894    5.5146    6.8733   H         1 RES1   0.0000
   236 H131      8.2925    4.5617    6.0124   H         1 RES1   0.0000
   237 H132      3.5283   -0.0785   -2.2303   H         1 RES1   0.0000
   238 H133      5.0439    0.3555   -1.4490   H         1 RES1   0.0000
   239 H134      3.8193    2.0964   -3.6112   H         1 RES1   0.0000
   240 H135      4.7736    0.6753   -3.9971   H         1 RES1   0.0000
   241 H136      6.3217    2.3250   -4.2124   H         1 RES1   0.0000
   242 H137      6.6902    1.6641   -2.6385   H         1 RES1   0.0000
   243 H138      6.8305    4.1596   -2.8606   H         1 RES1   0.0000
   244 H139      5.8696    3.6208   -1.5176   H         1 RES1   0.0000
   245 H140      4.7748    5.4858   -2.6326   H         1 RES1   0.0000
   246 H141      3.7793    4.0505   -2.8440   H         1 RES1   0.0000
   247 H142      4.7611    3.7212   -5.1142   H         1 RES1   0.0000
   248 H143      5.7232    5.1782   -4.8976   H         1 RES1   0.0000
   249 H144      2.7046    5.2471   -4.6530   H         1 RES1   0.0000
   250 H145      3.4910    5.3237   -6.2279   H         1 RES1   0.0000
   251 H146      4.0672    7.2922   -3.9722   H         1 RES1   0.0000
   252 H147      2.9984    7.6041   -5.3382   H         1 RES1   0.0000
   253 H148      4.7094    7.3475   -5.6118   H         1 RES1   0.0000
@<TRIPOS>BOND
     1     1    20    1
     2     1    32    1
     3     1    50    1
     4     1    53    1
     5     1   146    1
     6     1   158    1
     7     1   176    1
     8     1   179    1
     9     2     3    1
    10     2    54    1
    11     2    55    1
    12     2    56    1
    13     3     4    1
    14     3    57    1
    15     3    58    1
    16     4     5    1
    17     4    59    1
    18     4    60    1
    19     5     6    1
    20     5    61    1
    21     5    62    1
    22     6     7    1
    23     6    63    1
    24     6    64    1
    25     7     8    1
    26     7    65    1
    27     7    66    1
    28     8     9    1
    29     8    67    1
    30     8    68    1
    31     9    10    1
    32     9    69    1
    33     9    70    1
    34    10    11    1
    35    10    19    1
    36    11    12    1
    37    11    71    1
    38    11    72    1
    39    12    13    1
    40    12    73    1
    41    12    74    1
    42    13    14    1
    43    13    75    1
    44    13    76    1
    45    14    15    1
    46    14    77    1
    47    14    78    1
    48    15    16    1
    49    15    79    1
    50    15    80    1
    51    16    17    1
    52    16    81    1
    53    16    82    1
    54    17    18    1
    55    17    83    1
    56    17    84    1
    57    18    85    1
    58    18    86    1
    59    18    87    1
    60    19    20    2
    61    19    21    1
    62    21    22    1
    63    21    53    2
    64    22    23    2
    65    22    88    1
    66    23    24    1
    67    23    89    1
    68    24    25    1
    69    24    52    2
    70    25    26    2
    71    25    90    1
    72    26    27    1
    73    26    91    1
    74    27    28    1
    75    27    51    2
    76    28    29    2
    77    28    92    1
    78    29    30    1
    79    29    93    1
    80    30    31    1
    81    30    50    2
    82    31    32    2
    83    31    33    1
    84    33    34    1
    85    33    42    1
    86    34    35    1
    87    34    94    1
    88    34    95    1
    89    35    36    1
    90    35    96    1
    91    35    97    1
    92    36    37    1
    93    36    98    1
    94    36    99    1
    95    37    38    1
    96    37   100    1
    97    37   101    1
    98    38    39    1
    99    38   102    1
   100    38   103    1
   101    39    40    1
   102    39   104    1
   103    39   105    1
   104    40    41    1
   105    40   106    1
   106    40   107    1
   107    41   108    1
   108    41   109    1
   109    41   110    1
   110    42    43    1
   111    42   111    1
   112    42   112    1
   113    43    44    1
   114    43   113    1
   115    43   114    1
   116    44    45    1
   117    44   115    1
   118    44   116    1
   119    45    46    1
   120    45   117    1
   121    45   118    1
   122    46    47    1
   123    46   119    1
   124    46   120    1
   125    47    48    1
   126    47   121    1
   127    47   122    1
   128    48    49    1
   129    48   123    1
   130    48   124    1
   131    49   125    1
   132    49   126    1
   133    49   127    1
   134    50    51    1
   135    51    52    1
   136    52    53    1
   137   128   129    1
   138   128   180    1
   139   128   181    1
   140   128   182    1
   141   129   130    1
   142   129   183    1
   143   129   184    1
   144   130   131    1
   145   130   185    1
   146   130   186    1
   147   131   132    1
   148   131   187    1
   149   131   188    1
   150   132   133    1
   151   132   189    1
   152   132   190    1
   153   133   134    1
   154   133   191    1
   155   133   192    1
   156   134   135    1
   157   134   193    1
   158   134   194    1
   159   135   136    1
   160   135   195    1
   161   135   196    1
   162   136   137    1
   163   136   145    1
   164   137   138    1
   165   137   197    1
   166   137   198    1
   167   138   139    1
   168   138   199    1
   169   138   200    1
   170   139   140    1
   171   139   201    1
   172   139   202    1
   173   140   141    1
   174   140   203    1
   175   140   204    1
   176   141   142    1
   177   141   205    1
   178   141   206    1
   179   142   143    1
   180   142   207    1
   181   142   208    1
   182   143   144    1
   183   143   209    1
   184   143   210    1
   185   144   211    1
   186   144   212    1
   187   144   213    1
   188   145   146    2
   189   145   147    1
   190   147   148    1
   191   147   179    2
   192   148   149    2
   193   148   214    1
   194   149   150    1
   195   149   215    1
   196   150   151    1
   197   150   178    2
   198   151   152    2
   199   151   216    1
   200   152   153    1
   201   152   217    1
   202   153   154    1
   203   153   177    2
   204   154   155    2
   205   154   218    1
   206   155   156    1
   207   155   219    1
   208   156   157    1
   209   156   176    2
   210   157   158    2
   211   157   159    1
   212   159   160    1
   213   159   168    1
   214   160   161    1
   215   160   220    1
   216   160   221    1
   217   161   162    1
   218   161   222    1
   219   161   223    1
   220   162   163    1
   221   162   224    1
   222   162   225    1
   223   163   164    1
   224   163   226    1
   225   163   227    1
   226   164   165    1
   227   164   228    1
   228   164   229    1
   229   165   166    1
   230   165   230    1
   231   165   231    1
   232   166   167    1
   233   166   232    1
   234   166   233    1
   235   167   234    1
   236   167   235    1
   237   167   236    1
   238   168   169    1
   239   168   237    1
   240   168   238    1
   241   169   170    1
   242   169   239    1
   243   169   240    1
   244   170   171    1
   245   170   241    1
   246   170   242    1
   247   171   172    1
   248   171   243    1
   249   171   244    1
   250   172   173    1
   251   172   245    1
   252   172   246    1
   253   173   174    1
   254   173   247    1
   255   173   248    1
   256   174   175    1
   257   174   249    1
   258   174   250    1
   259   175   251    1
   260   175   252    1
   261   175   253    1
   262   176   177    1
   263   177   178    1
   264   178   179    1
@<TRIPOS>SUBSTRUCTURE
     1 RES1      253 GROUP             0 ****  ****    0  
