@<TRIPOS>MOLECULE
ICIGOT_geomtry_0_nunpairedes_0_charge_2 Charge: 2 Unpaired_Electrons: 1 XTB_Unpaired_Electrons: 0 XTB_Charge: 2
   147   151     1     0     0
SMALL
NoCharges
****
Generated from Architector

@<TRIPOS>ATOM
     1 Yb1      -0.0163    0.0015    0.0025   Yb        1 RES1   0.0000
     2 C1        3.0611    0.8072    7.0344   C.3       1 RES1   0.0000
     3 C2        2.2192    2.0139    7.4347   C.3       1 RES1   0.0000
     4 C3        1.3646    2.5188    6.2744   C.3       1 RES1   0.0000
     5 C4        0.5304    3.7321    6.6765   C.3       1 RES1   0.0000
     6 C5       -0.2369    4.3503    5.5080   C.3       1 RES1   0.0000
     7 C6       -1.3679    3.4693    4.9780   C.3       1 RES1   0.0000
     8 C7       -2.1496    4.1844    3.8744   C.3       1 RES1   0.0000
     9 C8       -3.1867    3.2719    3.2100   C.3       1 RES1   0.0000
    10 N1       -2.6061    2.0015    2.8022   N.am      1 RES1   0.0000
    11 C9       -2.9495    0.8339    3.6010   C.3       1 RES1   0.0000
    12 C10      -1.7107    1.8690    1.8418   C.2       1 RES1   0.0000
    13 O1       -1.0642    0.8144    1.6761   O.2       1 RES1   0.0000
    14 C11      -1.4116    3.0097    0.8675   C.3       1 RES1   0.0000
    15 O2       -0.9117    2.4165   -0.3320   O.3       1 RES1   0.0000
    16 C12       0.1161    3.1789   -0.9478   C.3       1 RES1   0.0000
    17 C13       1.4450    2.7942   -0.2808   C.2       1 RES1   0.0000
    18 O3        1.4877    1.6822    0.2838   O.2       1 RES1   0.0000
    19 N2        2.4753    3.6191   -0.3250   N.am      1 RES1   0.0000
    20 C14       2.4203    4.8684   -1.0546   C.3       1 RES1   0.0000
    21 C15       3.7166    3.2481    0.3503   C.3       1 RES1   0.0000
    22 C16       3.8919    3.9154    1.7185   C.3       1 RES1   0.0000
    23 C17       4.2083    5.4085    1.6265   C.3       1 RES1   0.0000
    24 C18       4.6269    6.0329    2.9601   C.3       1 RES1   0.0000
    25 C19       3.5353    6.0587    4.0302   C.3       1 RES1   0.0000
    26 C20       2.1928    6.6601    3.6137   C.3       1 RES1   0.0000
    27 C21       2.1991    8.1663    3.3391   C.3       1 RES1   0.0000
    28 C22       2.5590    8.5607    1.9107   C.3       1 RES1   0.0000
    29 H1        3.6554    0.4598    7.8766   H         1 RES1   0.0000
    30 H2        2.4210   -0.0115    6.7059   H         1 RES1   0.0000
    31 H3        3.7387    1.0698    6.2219   H         1 RES1   0.0000
    32 H4        1.5709    1.7433    8.2700   H         1 RES1   0.0000
    33 H5        2.8768    2.8167    7.7746   H         1 RES1   0.0000
    34 H6        2.0209    2.7911    5.4425   H         1 RES1   0.0000
    35 H7        0.7139    1.7095    5.9342   H         1 RES1   0.0000
    36 H8       -0.1718    3.4505    7.4623   H         1 RES1   0.0000
    37 H9        1.1987    4.4912    7.0892   H         1 RES1   0.0000
    38 H10      -0.6533    5.3077    5.8270   H         1 RES1   0.0000
    39 H11       0.4624    4.5431    4.6906   H         1 RES1   0.0000
    40 H12      -0.9316    2.5505    4.5786   H         1 RES1   0.0000
    41 H13      -2.0398    3.2086    5.7979   H         1 RES1   0.0000
    42 H14      -2.6694    5.0462    4.2946   H         1 RES1   0.0000
    43 H15      -1.4440    4.5682    3.1344   H         1 RES1   0.0000
    44 H16      -3.9845    3.0515    3.9195   H         1 RES1   0.0000
    45 H17      -3.6281    3.7773    2.3485   H         1 RES1   0.0000
    46 H18      -4.0265    0.6772    3.5541   H         1 RES1   0.0000
    47 H19      -2.4395   -0.0393    3.1921   H         1 RES1   0.0000
    48 H20      -2.6536    0.9640    4.6418   H         1 RES1   0.0000
    49 H21      -2.3008    3.6092    0.6384   H         1 RES1   0.0000
    50 H22      -0.6489    3.6419    1.3372   H         1 RES1   0.0000
    51 H23       0.1498    2.8669   -1.9992   H         1 RES1   0.0000
    52 H24      -0.1067    4.2488   -0.8982   H         1 RES1   0.0000
    53 H25       2.0675    4.7047   -2.0737   H         1 RES1   0.0000
    54 H26       1.7548    5.5843   -0.5708   H         1 RES1   0.0000
    55 H27       3.4166    5.2987   -1.0893   H         1 RES1   0.0000
    56 H28       3.7065    2.1623    0.4644   H         1 RES1   0.0000
    57 H29       4.5497    3.5282   -0.2952   H         1 RES1   0.0000
    58 H30       2.9995    3.7527    2.3247   H         1 RES1   0.0000
    59 H31       4.7266    3.4188    2.2159   H         1 RES1   0.0000
    60 H32       5.0293    5.5565    0.9213   H         1 RES1   0.0000
    61 H33       3.3482    5.9544    1.2459   H         1 RES1   0.0000
    62 H34       5.4854    5.4880    3.3600   H         1 RES1   0.0000
    63 H35       4.9634    7.0521    2.7666   H         1 RES1   0.0000
    64 H36       3.3603    5.0410    4.3869   H         1 RES1   0.0000
    65 H37       3.9172    6.6292    4.8775   H         1 RES1   0.0000
    66 H38       1.7958    6.1321    2.7423   H         1 RES1   0.0000
    67 H39       1.5018    6.4798    4.4377   H         1 RES1   0.0000
    68 H40       1.1991    8.5524    3.5484   H         1 RES1   0.0000
    69 H41       2.8850    8.6548    4.0322   H         1 RES1   0.0000
    70 H42       1.9417    8.0199    1.1924   H         1 RES1   0.0000
    71 H43       2.3804    9.6234    1.7666   H         1 RES1   0.0000
    72 H44       3.6038    8.3681    1.6856   H         1 RES1   0.0000
    73 C23       5.1235    1.3937   -2.8847   C.3       1 RES1   0.0000
    74 C24       5.2423    0.3592   -1.7710   C.3       1 RES1   0.0000
    75 C25       5.7830   -0.9643   -2.3138   C.3       1 RES1   0.0000
    76 C26       6.1591   -1.9674   -1.2250   C.3       1 RES1   0.0000
    77 C27       4.9626   -2.5079   -0.4444   C.3       1 RES1   0.0000
    78 C28       5.4206   -3.5396    0.5847   C.3       1 RES1   0.0000
    79 C29       4.2848   -4.3210    1.2439   C.3       1 RES1   0.0000
    80 C30       3.5359   -3.6110    2.3816   C.3       1 RES1   0.0000
    81 N3        2.9967   -2.2869    2.1158   N.am      1 RES1   0.0000
    82 C31       3.6245   -1.1291    2.7368   C.3       1 RES1   0.0000
    83 C32       1.9002   -2.0312    1.4241   C.2       1 RES1   0.0000
    84 O4        1.4235   -0.8777    1.3867   O.2       1 RES1   0.0000
    85 C33       1.2084   -3.1061    0.5886   C.3       1 RES1   0.0000
    86 O5        0.5472   -2.4243   -0.4774   O.3       1 RES1   0.0000
    87 C34       0.9106   -2.7702   -1.8052   C.3       1 RES1   0.0000
    88 C35       1.1443   -1.4543   -2.5680   C.2       1 RES1   0.0000
    89 O6        1.1380   -0.3919   -1.9053   O.2       1 RES1   0.0000
    90 N4        1.3561   -1.4757   -3.8716   N.am      1 RES1   0.0000
    91 C36       1.4319   -2.6669   -4.6912   C.3       1 RES1   0.0000
    92 C37       1.6365   -0.2136   -4.5545   C.3       1 RES1   0.0000
    93 C38       0.4023    0.5898   -4.9677   C.3       1 RES1   0.0000
    94 C39      -0.4435   -0.0482   -6.0762   C.3       1 RES1   0.0000
    95 C40      -1.5862   -0.9301   -5.5508   C.3       1 RES1   0.0000
    96 C41      -2.9291   -0.2028   -5.4374   C.3       1 RES1   0.0000
    97 C42      -2.9919    0.8863   -4.3616   C.3       1 RES1   0.0000
    98 C43      -2.6820    2.2915   -4.8753   C.3       1 RES1   0.0000
    99 C44      -2.7772    3.3286   -3.7603   C.3       1 RES1   0.0000
   100 H45       4.7086    2.3274   -2.5116   H         1 RES1   0.0000
   101 H46       4.4802    1.0230   -3.6800   H         1 RES1   0.0000
   102 H47       6.1019    1.5992   -3.3117   H         1 RES1   0.0000
   103 H48       4.2602    0.2080   -1.3072   H         1 RES1   0.0000
   104 H49       5.9257    0.7324   -1.0039   H         1 RES1   0.0000
   105 H50       6.6777   -0.7537   -2.9031   H         1 RES1   0.0000
   106 H51       5.0448   -1.4102   -2.9873   H         1 RES1   0.0000
   107 H52       6.8624   -1.5016   -0.5324   H         1 RES1   0.0000
   108 H53       6.6716   -2.8095   -1.6928   H         1 RES1   0.0000
   109 H54       4.2698   -2.9806   -1.1485   H         1 RES1   0.0000
   110 H55       4.4356   -1.6855    0.0400   H         1 RES1   0.0000
   111 H56       6.0326   -3.0552    1.3460   H         1 RES1   0.0000
   112 H57       6.0655   -4.2567    0.0706   H         1 RES1   0.0000
   113 H58       4.7123   -5.2111    1.7058   H         1 RES1   0.0000
   114 H59       3.6056   -4.6774    0.4670   H         1 RES1   0.0000
   115 H60       4.2316   -3.4822    3.2106   H         1 RES1   0.0000
   116 H61       2.7237   -4.2664    2.7113   H         1 RES1   0.0000
   117 H62       4.4894   -1.4430    3.3116   H         1 RES1   0.0000
   118 H63       2.9145   -0.6073    3.3809   H         1 RES1   0.0000
   119 H64       3.9325   -0.4246    1.9605   H         1 RES1   0.0000
   120 H65       0.4466   -3.6065    1.2034   H         1 RES1   0.0000
   121 H66       1.9212   -3.8380    0.2083   H         1 RES1   0.0000
   122 H67       0.0808   -3.3287   -2.2603   H         1 RES1   0.0000
   123 H68       1.8162   -3.3901   -1.8342   H         1 RES1   0.0000
   124 H69       1.0299   -3.5397   -4.1880   H         1 RES1   0.0000
   125 H70       2.4719   -2.8647   -4.9639   H         1 RES1   0.0000
   126 H71       0.8631   -2.5084   -5.6082   H         1 RES1   0.0000
   127 H72       2.2340   -0.4411   -5.4362   H         1 RES1   0.0000
   128 H73       2.2240    0.4019   -3.8700   H         1 RES1   0.0000
   129 H74       0.7750    1.5550   -5.3166   H         1 RES1   0.0000
   130 H75      -0.2179    0.7624   -4.0878   H         1 RES1   0.0000
   131 H76       0.2051   -0.6228   -6.7423   H         1 RES1   0.0000
   132 H77      -0.8833    0.7374   -6.6926   H         1 RES1   0.0000
   133 H78      -1.3229   -1.3286   -4.5660   H         1 RES1   0.0000
   134 H79      -1.7226   -1.7814   -6.2238   H         1 RES1   0.0000
   135 H80      -3.6848   -0.9569   -5.2138   H         1 RES1   0.0000
   136 H81      -3.1795    0.2266   -6.4091   H         1 RES1   0.0000
   137 H82      -2.3158    0.6352   -3.5409   H         1 RES1   0.0000
   138 H83      -3.9973    0.8998   -3.9418   H         1 RES1   0.0000
   139 H84      -3.3948    2.5517   -5.6598   H         1 RES1   0.0000
   140 H85      -1.6840    2.3321   -5.3121   H         1 RES1   0.0000
   141 H86      -3.8016    3.4069   -3.4025   H         1 RES1   0.0000
   142 H87      -2.4643    4.3083   -4.1185   H         1 RES1   0.0000
   143 H88      -2.1446    3.0424   -2.9187   H         1 RES1   0.0000
   144 N5       -2.1686   -0.9501   -0.6484   N.3       1 RES1   0.0000
   145 O7       -3.2145   -1.3659   -1.0089   O.2       1 RES1   0.0000
   146 O8       -1.5390   -0.1021   -1.3250   O.co2     1 RES1   0.0000
   147 O9       -1.6245   -1.3322    0.3974   O.co2     1 RES1   0.0000
@<TRIPOS>BOND
     1     1    13    1
     2     1    15    1
     3     1    18    1
     4     1    84    1
     5     1    86    1
     6     1    89    1
     7     1   146    1
     8     1   147    1
     9     2     3    1
    10     2    29    1
    11     2    30    1
    12     2    31    1
    13     3     4    1
    14     3    32    1
    15     3    33    1
    16     4     5    1
    17     4    34    1
    18     4    35    1
    19     5     6    1
    20     5    36    1
    21     5    37    1
    22     6     7    1
    23     6    38    1
    24     6    39    1
    25     7     8    1
    26     7    40    1
    27     7    41    1
    28     8     9    1
    29     8    42    1
    30     8    43    1
    31     9    10    1
    32     9    44    1
    33     9    45    1
    34    10    11    1
    35    10    12    1
    36    11    46    1
    37    11    47    1
    38    11    48    1
    39    12    13    2
    40    12    14    1
    41    14    15    1
    42    14    49    1
    43    14    50    1
    44    15    16    1
    45    16    17    1
    46    16    51    1
    47    16    52    1
    48    17    18    2
    49    17    19    1
    50    19    20    1
    51    19    21    1
    52    20    53    1
    53    20    54    1
    54    20    55    1
    55    21    22    1
    56    21    56    1
    57    21    57    1
    58    22    23    1
    59    22    58    1
    60    22    59    1
    61    23    24    1
    62    23    60    1
    63    23    61    1
    64    24    25    1
    65    24    62    1
    66    24    63    1
    67    25    26    1
    68    25    64    1
    69    25    65    1
    70    26    27    1
    71    26    66    1
    72    26    67    1
    73    27    28    1
    74    27    68    1
    75    27    69    1
    76    28    70    1
    77    28    71    1
    78    28    72    1
    79    73    74    1
    80    73   100    1
    81    73   101    1
    82    73   102    1
    83    74    75    1
    84    74   103    1
    85    74   104    1
    86    75    76    1
    87    75   105    1
    88    75   106    1
    89    76    77    1
    90    76   107    1
    91    76   108    1
    92    77    78    1
    93    77   109    1
    94    77   110    1
    95    78    79    1
    96    78   111    1
    97    78   112    1
    98    79    80    1
    99    79   113    1
   100    79   114    1
   101    80    81    1
   102    80   115    1
   103    80   116    1
   104    81    82    1
   105    81    83    1
   106    82   117    1
   107    82   118    1
   108    82   119    1
   109    83    84    2
   110    83    85    1
   111    85    86    1
   112    85   120    1
   113    85   121    1
   114    86    87    1
   115    87    88    1
   116    87   122    1
   117    87   123    1
   118    88    89    2
   119    88    90    1
   120    90    91    1
   121    90    92    1
   122    91   124    1
   123    91   125    1
   124    91   126    1
   125    92    93    1
   126    92   127    1
   127    92   128    1
   128    93    94    1
   129    93   129    1
   130    93   130    1
   131    94    95    1
   132    94   131    1
   133    94   132    1
   134    95    96    1
   135    95   133    1
   136    95   134    1
   137    96    97    1
   138    96   135    1
   139    96   136    1
   140    97    98    1
   141    97   137    1
   142    97   138    1
   143    98    99    1
   144    98   139    1
   145    98   140    1
   146    99   141    1
   147    99   142    1
   148    99   143    1
   149   144   145    2
   150   144   146    1
   151   144   147    1
@<TRIPOS>SUBSTRUCTURE
     1 RES1      147 GROUP             0 ****  ****    0  
