@<TRIPOS>MOLECULE
ICIGOT_geomtry_0_nunpairedes_0_charge_3 Charge: 3 Unpaired_Electrons: 1 XTB_Unpaired_Electrons: 0 XTB_Charge: 3
   193   206     1     0     0
SMALL
NoCharges
****
Generated from Architector

@<TRIPOS>ATOM
     1 Yb1      -0.1559    0.1420   -0.0133   Yb        1 RES1   0.0000
     2 C1       -5.3547   -6.3772   -0.7929   C.3       1 RES1   0.0000
     3 C2       -4.6308   -6.9973    0.3957   C.3       1 RES1   0.0000
     4 C3       -5.3550   -8.2164    0.9632   C.3       1 RES1   0.0000
     5 C4       -6.7504   -7.9708    1.5429   C.3       1 RES1   0.0000
     6 C5       -6.8194   -7.3831    2.9606   C.3       1 RES1   0.0000
     7 C6       -6.9648   -5.8579    3.0512   C.3       1 RES1   0.0000
     8 C7       -5.7283   -5.0172    2.9956   C.ar      1 RES1   0.0000
     9 C8       -4.5467   -5.3631    3.6507   C.ar      1 RES1   0.0000
    10 C9       -3.4318   -4.5468    3.5929   C.ar      1 RES1   0.0000
    11 C10      -3.4793   -3.3424    2.8948   C.ar      1 RES1   0.0000
    12 N1       -2.2972   -2.5548    2.7645   N.am      1 RES1   0.0000
    13 C11      -1.5441   -2.2786    3.9901   C.3       1 RES1   0.0000
    14 C12      -0.2244   -3.0329    4.1161   C.3       1 RES1   0.0000
    15 C13      -1.8450   -2.0245    1.6349   C.2       1 RES1   0.0000
    16 O1       -0.7175   -1.4701    1.5936   O.2       1 RES1   0.0000
    17 C14      -2.6147   -1.9796    0.3433   C.ar      1 RES1   0.0000
    18 C15      -3.4134   -2.9878   -0.1851   C.ar      1 RES1   0.0000
    19 C16      -3.9971   -2.7805   -1.4258   C.ar      1 RES1   0.0000
    20 C17      -3.7415   -1.6088   -2.1211   C.ar      1 RES1   0.0000
    21 C18      -2.8706   -0.6714   -1.5670   C.ar      1 RES1   0.0000
    22 C19      -2.3432    0.5027   -2.3169   C.ar      1 RES1   0.0000
    23 C20      -2.5408    0.6895   -3.6864   C.ar      1 RES1   0.0000
    24 C21      -1.8546    1.7115   -4.3292   C.ar      1 RES1   0.0000
    25 C22      -1.0005    2.5274   -3.6013   C.ar      1 RES1   0.0000
    26 C23      -0.8851    2.3142   -2.2281   C.ar      1 RES1   0.0000
    27 C24       0.1242    2.9738   -1.3148   C.2       1 RES1   0.0000
    28 O2        0.7818    2.1792   -0.5928   O.2       1 RES1   0.0000
    29 N2        0.2980    4.2904   -1.2936   N.am      1 RES1   0.0000
    30 C25       1.3072    4.8742   -0.3993   C.3       1 RES1   0.0000
    31 C26       0.7406    5.9647    0.5046   C.3       1 RES1   0.0000
    32 C27      -0.4081    5.1768   -2.1676   C.ar      1 RES1   0.0000
    33 C28      -1.7709    5.0232   -2.4366   C.ar      1 RES1   0.0000
    34 C29      -2.3944    5.8137   -3.3883   C.ar      1 RES1   0.0000
    35 C30      -1.7117    6.8341   -4.0495   C.ar      1 RES1   0.0000
    36 C31      -2.4087    7.7350   -5.0216   C.3       1 RES1   0.0000
    37 C32      -2.7654    7.1005   -6.3798   C.3       1 RES1   0.0000
    38 C33      -1.6688    7.1987   -7.4442   C.3       1 RES1   0.0000
    39 C34      -0.3876    6.4197   -7.1589   C.3       1 RES1   0.0000
    40 C35      -0.5924    4.9123   -7.0709   C.3       1 RES1   0.0000
    41 C36       0.7329    4.1904   -6.8637   C.3       1 RES1   0.0000
    42 C37      -0.3788    7.0340   -3.7036   C.ar      1 RES1   0.0000
    43 C38       0.2732    6.2195   -2.7966   C.ar      1 RES1   0.0000
    44 N3       -1.5406    1.3219   -1.6178   N.ar      1 RES1   0.0000
    45 N4       -2.3436   -0.8656   -0.3479   N.ar      1 RES1   0.0000
    46 C39      -4.6862   -2.9295    2.3371   C.ar      1 RES1   0.0000
    47 C40      -5.7787   -3.7746    2.3590   C.ar      1 RES1   0.0000
    48 H1       -4.7304   -5.6202   -1.2650   H         1 RES1   0.0000
    49 H2       -6.2872   -5.9104   -0.4895   H         1 RES1   0.0000
    50 H3       -5.5834   -7.1355   -1.5365   H         1 RES1   0.0000
    51 H4       -4.4943   -6.2449    1.1733   H         1 RES1   0.0000
    52 H5       -3.6381   -7.3139    0.0647   H         1 RES1   0.0000
    53 H6       -4.7312   -8.6688    1.7343   H         1 RES1   0.0000
    54 H7       -5.4435   -8.9464    0.1560   H         1 RES1   0.0000
    55 H8       -7.2413   -8.9450    1.5719   H         1 RES1   0.0000
    56 H9       -7.3306   -7.3525    0.8608   H         1 RES1   0.0000
    57 H10      -5.9633   -7.7264    3.5383   H         1 RES1   0.0000
    58 H11      -7.7124   -7.7987    3.4293   H         1 RES1   0.0000
    59 H12      -7.4388   -5.6232    4.0106   H         1 RES1   0.0000
    60 H13      -7.6524   -5.5309    2.2703   H         1 RES1   0.0000
    61 H14      -4.4821   -6.2792    4.2202   H         1 RES1   0.0000
    62 H15      -2.5276   -4.8547    4.0961   H         1 RES1   0.0000
    63 H16      -2.2080   -2.5223    4.8193   H         1 RES1   0.0000
    64 H17      -1.3330   -1.2044    4.0038   H         1 RES1   0.0000
    65 H18      -0.3844   -4.1067    4.0698   H         1 RES1   0.0000
    66 H19       0.2297   -2.7949    5.0766   H         1 RES1   0.0000
    67 H20       0.4568   -2.7351    3.3211   H         1 RES1   0.0000
    68 H21      -3.5565   -3.9215    0.3285   H         1 RES1   0.0000
    69 H22      -4.6377   -3.5414   -1.8488   H         1 RES1   0.0000
    70 H23      -4.1703   -1.4596   -3.0976   H         1 RES1   0.0000
    71 H24      -3.1550    0.0152   -4.2606   H         1 RES1   0.0000
    72 H25      -1.9884    1.8661   -5.3921   H         1 RES1   0.0000
    73 H26      -0.4065    3.2795   -4.0889   H         1 RES1   0.0000
    74 H27       2.1117    5.2860   -1.0135   H         1 RES1   0.0000
    75 H28       1.7138    4.0699    0.2165   H         1 RES1   0.0000
    76 H29       0.2768    6.7625   -0.0694   H         1 RES1   0.0000
    77 H30       1.5448    6.4047    1.0903   H         1 RES1   0.0000
    78 H31       0.0116    5.5661    1.2042   H         1 RES1   0.0000
    79 H32      -2.3655    4.2957   -1.8966   H         1 RES1   0.0000
    80 H33      -3.4450    5.6627   -3.6000   H         1 RES1   0.0000
    81 H34      -1.8010    8.6177   -5.2097   H         1 RES1   0.0000
    82 H35      -3.3369    8.0618   -4.5497   H         1 RES1   0.0000
    83 H36      -3.6354    7.6278   -6.7750   H         1 RES1   0.0000
    84 H37      -3.0522    6.0602   -6.2314   H         1 RES1   0.0000
    85 H38      -1.4089    8.2490   -7.5844   H         1 RES1   0.0000
    86 H39      -2.0819    6.8435   -8.3911   H         1 RES1   0.0000
    87 H40       0.0642    6.7709   -6.2327   H         1 RES1   0.0000
    88 H41       0.3246    6.6180   -7.9611   H         1 RES1   0.0000
    89 H42      -1.0550    4.5547   -7.9904   H         1 RES1   0.0000
    90 H43      -1.2658    4.6771   -6.2438   H         1 RES1   0.0000
    91 H44       1.4103    4.4038   -7.6861   H         1 RES1   0.0000
    92 H45       0.5979    3.1104   -6.8119   H         1 RES1   0.0000
    93 H46       1.2118    4.5275   -5.9453   H         1 RES1   0.0000
    94 H47       0.1550    7.8558   -4.1561   H         1 RES1   0.0000
    95 H48       1.3162    6.4039   -2.5924   H         1 RES1   0.0000
    96 H49      -4.7655   -1.9427    1.9009   H         1 RES1   0.0000
    97 H50      -6.7070   -3.4557    1.9029   H         1 RES1   0.0000
    98 C41       4.4111   -6.3790   -2.9640   C.3       1 RES1   0.0000
    99 C42       3.2886   -6.9235   -3.8374   C.3       1 RES1   0.0000
   100 C43       3.7592   -7.8321   -4.9772   C.3       1 RES1   0.0000
   101 C44       4.8343   -7.3029   -5.9370   C.3       1 RES1   0.0000
   102 C45       4.3574   -6.4651   -7.1308   C.3       1 RES1   0.0000
   103 C46       4.3879   -4.9428   -6.9231   C.3       1 RES1   0.0000
   104 C47       3.4068   -4.4513   -5.9180   C.ar      1 RES1   0.0000
   105 C48       2.0472   -4.7349   -6.0574   C.ar      1 RES1   0.0000
   106 C49       1.1261   -4.3011   -5.1311   C.ar      1 RES1   0.0000
   107 C50       1.5214   -3.5075   -4.0488   C.ar      1 RES1   0.0000
   108 N5        0.5305   -2.7752   -3.3301   N.am      1 RES1   0.0000
   109 C51      -0.5380   -2.2694   -4.2103   C.3       1 RES1   0.0000
   110 C52      -1.7911   -3.1377   -4.2914   C.3       1 RES1   0.0000
   111 C53       0.6581   -2.1464   -2.1551   C.2       1 RES1   0.0000
   112 O3       -0.0701   -1.1408   -1.8998   O.2       1 RES1   0.0000
   113 C54       1.5358   -2.5603   -1.0094   C.ar      1 RES1   0.0000
   114 C55       2.0778   -3.8236   -0.7859   C.ar      1 RES1   0.0000
   115 C56       2.7226   -4.0705    0.4212   C.ar      1 RES1   0.0000
   116 C57       2.8016   -3.0653    1.3726   C.ar      1 RES1   0.0000
   117 C58       2.2257   -1.8231    1.0934   C.ar      1 RES1   0.0000
   118 C59       2.1002   -0.7588    2.1246   C.ar      1 RES1   0.0000
   119 C60       2.6646   -0.8735    3.3930   C.ar      1 RES1   0.0000
   120 C61       2.3049    0.0432    4.3687   C.ar      1 RES1   0.0000
   121 C62       1.3586    1.0178    4.0845   C.ar      1 RES1   0.0000
   122 C63       0.8580    1.1048    2.7843   C.ar      1 RES1   0.0000
   123 C64      -0.3566    1.8948    2.3571   C.2       1 RES1   0.0000
   124 O4       -1.0418    1.3791    1.4335   O.2       1 RES1   0.0000
   125 N6       -0.8046    2.9759    2.9990   N.am      1 RES1   0.0000
   126 C65      -2.2093    3.3530    2.7982   C.3       1 RES1   0.0000
   127 C66      -2.3878    4.6276    1.9825   C.3       1 RES1   0.0000
   128 C67       0.0135    3.8483    3.7569   C.ar      1 RES1   0.0000
   129 C68       1.3814    3.9598    3.4879   C.ar      1 RES1   0.0000
   130 C69       2.1730    4.8002    4.2431   C.ar      1 RES1   0.0000
   131 C70       1.6376    5.6088    5.2467   C.ar      1 RES1   0.0000
   132 C71       2.5184    6.5143    6.0405   C.3       1 RES1   0.0000
   133 C72       3.5343    5.7538    6.9119   C.3       1 RES1   0.0000
   134 C73       3.0129    5.3581    8.2945   C.3       1 RES1   0.0000
   135 C74       1.8035    4.4274    8.3155   C.3       1 RES1   0.0000
   136 C75       2.0510    3.0602    7.6895   C.3       1 RES1   0.0000
   137 C76       0.8171    2.1753    7.8203   C.3       1 RES1   0.0000
   138 C77       0.2628    5.5537    5.4481   C.ar      1 RES1   0.0000
   139 C78      -0.5350    4.6782    4.7357   C.ar      1 RES1   0.0000
   140 N7        1.2775    0.2576    1.8328   N.ar      1 RES1   0.0000
   141 N8        1.6187   -1.5938   -0.0763   N.ar      1 RES1   0.0000
   142 C79       2.8791   -3.2353   -3.8908   C.ar      1 RES1   0.0000
   143 C80       3.8018   -3.7073   -4.8078   C.ar      1 RES1   0.0000
   144 H51       4.0056   -5.7763   -2.1502   H         1 RES1   0.0000
   145 H52       5.0825   -5.7490   -3.5395   H         1 RES1   0.0000
   146 H53       4.9894   -7.1901   -2.5329   H         1 RES1   0.0000
   147 H54       2.7129   -6.0925   -4.2308   H         1 RES1   0.0000
   148 H55       2.6126   -7.5045   -3.2050   H         1 RES1   0.0000
   149 H56       2.8856   -8.1215   -5.5634   H         1 RES1   0.0000
   150 H57       4.1467   -8.7418   -4.5168   H         1 RES1   0.0000
   151 H58       5.3248   -8.1847   -6.3514   H         1 RES1   0.0000
   152 H59       5.5957   -6.7551   -5.3859   H         1 RES1   0.0000
   153 H60       3.3615   -6.7914   -7.4282   H         1 RES1   0.0000
   154 H61       5.0270   -6.6622   -7.9687   H         1 RES1   0.0000
   155 H62       4.1676   -4.4670   -7.8824   H         1 RES1   0.0000
   156 H63       5.3961   -4.6497   -6.6344   H         1 RES1   0.0000
   157 H64       1.6899   -5.2877   -6.9139   H         1 RES1   0.0000
   158 H65       0.0991   -4.5960   -5.2658   H         1 RES1   0.0000
   159 H66      -0.1113   -2.1403   -5.2063   H         1 RES1   0.0000
   160 H67      -0.8313   -1.2964   -3.8191   H         1 RES1   0.0000
   161 H68      -1.6153   -4.0751   -4.8095   H         1 RES1   0.0000
   162 H69      -2.5400   -2.5887   -4.8609   H         1 RES1   0.0000
   163 H70      -2.1874   -3.3577   -3.3031   H         1 RES1   0.0000
   164 H71       1.9818   -4.6021   -1.5223   H         1 RES1   0.0000
   165 H72       3.1592   -5.0403    0.6255   H         1 RES1   0.0000
   166 H73       3.2739   -3.2422    2.3250   H         1 RES1   0.0000
   167 H74       3.3560   -1.6614    3.6306   H         1 RES1   0.0000
   168 H75       2.7500   -0.0232    5.3509   H         1 RES1   0.0000
   169 H76       1.0075    1.6784    4.8596   H         1 RES1   0.0000
   170 H77      -2.6749    3.4778    3.7778   H         1 RES1   0.0000
   171 H78      -2.7023    2.5258    2.2858   H         1 RES1   0.0000
   172 H79      -1.9353    5.4879    2.4764   H         1 RES1   0.0000
   173 H80      -3.4517    4.8293    1.8675   H         1 RES1   0.0000
   174 H81      -1.9570    4.5054    0.9893   H         1 RES1   0.0000
   175 H82       1.8314    3.4019    2.6758   H         1 RES1   0.0000
   176 H83       3.2315    4.8616    4.0345   H         1 RES1   0.0000
   177 H84       1.9222    7.1672    6.6749   H         1 RES1   0.0000
   178 H85       3.0694    7.1373    5.3337   H         1 RES1   0.0000
   179 H86       4.3998    6.3987    7.0655   H         1 RES1   0.0000
   180 H87       3.8753    4.8672    6.3784   H         1 RES1   0.0000
   181 H88       2.7536    6.2648    8.8420   H         1 RES1   0.0000
   182 H89       3.8291    4.8781    8.8382   H         1 RES1   0.0000
   183 H90       0.9623    4.9004    7.8115   H         1 RES1   0.0000
   184 H91       1.5087    4.2721    9.3539   H         1 RES1   0.0000
   185 H92       2.8923    2.5793    8.1872   H         1 RES1   0.0000
   186 H93       2.3067    3.1708    6.6337   H         1 RES1   0.0000
   187 H94       0.5499    2.0563    8.8668   H         1 RES1   0.0000
   188 H95       0.9855    1.1823    7.4039   H         1 RES1   0.0000
   189 H96      -0.0321    2.6295    7.3112   H         1 RES1   0.0000
   190 H97      -0.1911    6.2181    6.1692   H         1 RES1   0.0000
   191 H98      -1.5899    4.6584    4.9550   H         1 RES1   0.0000
   192 H99       3.2118   -2.6160   -3.0698   H         1 RES1   0.0000
   193 H100      4.8429   -3.4394   -4.6879   H         1 RES1   0.0000
@<TRIPOS>BOND
     1     1    16    1
     2     1    28    1
     3     1    44    1
     4     1    45    1
     5     1   112    1
     6     1   124    1
     7     1   140    1
     8     1   141    1
     9     2     3    1
    10     2    48    1
    11     2    49    1
    12     2    50    1
    13     3     4    1
    14     3    51    1
    15     3    52    1
    16     4     5    1
    17     4    53    1
    18     4    54    1
    19     5     6    1
    20     5    55    1
    21     5    56    1
    22     6     7    1
    23     6    57    1
    24     6    58    1
    25     7     8    1
    26     7    59    1
    27     7    60    1
    28     8     9    1
    29     8    47    2
    30     9    10    2
    31     9    61    1
    32    10    11    1
    33    10    62    1
    34    11    12    1
    35    11    46    2
    36    12    13    1
    37    12    15    1
    38    13    14    1
    39    13    63    1
    40    13    64    1
    41    14    65    1
    42    14    66    1
    43    14    67    1
    44    15    16    2
    45    15    17    1
    46    17    18    1
    47    17    45    2
    48    18    19    2
    49    18    68    1
    50    19    20    1
    51    19    69    1
    52    20    21    2
    53    20    70    1
    54    21    22    1
    55    21    45    1
    56    22    23    1
    57    22    44    2
    58    23    24    2
    59    23    71    1
    60    24    25    1
    61    24    72    1
    62    25    26    2
    63    25    73    1
    64    26    27    1
    65    26    44    1
    66    27    28    2
    67    27    29    1
    68    29    30    1
    69    29    32    1
    70    30    31    1
    71    30    74    1
    72    30    75    1
    73    31    76    1
    74    31    77    1
    75    31    78    1
    76    32    33    1
    77    32    43    2
    78    33    34    2
    79    33    79    1
    80    34    35    1
    81    34    80    1
    82    35    36    1
    83    35    42    2
    84    36    37    1
    85    36    81    1
    86    36    82    1
    87    37    38    1
    88    37    83    1
    89    37    84    1
    90    38    39    1
    91    38    85    1
    92    38    86    1
    93    39    40    1
    94    39    87    1
    95    39    88    1
    96    40    41    1
    97    40    89    1
    98    40    90    1
    99    41    91    1
   100    41    92    1
   101    41    93    1
   102    42    43    1
   103    42    94    1
   104    43    95    1
   105    46    47    1
   106    46    96    1
   107    47    97    1
   108    98    99    1
   109    98   144    1
   110    98   145    1
   111    98   146    1
   112    99   100    1
   113    99   147    1
   114    99   148    1
   115   100   101    1
   116   100   149    1
   117   100   150    1
   118   101   102    1
   119   101   151    1
   120   101   152    1
   121   102   103    1
   122   102   153    1
   123   102   154    1
   124   103   104    1
   125   103   155    1
   126   103   156    1
   127   104   105    1
   128   104   143    2
   129   105   106    2
   130   105   157    1
   131   106   107    1
   132   106   158    1
   133   107   108    1
   134   107   142    2
   135   108   109    1
   136   108   111    1
   137   109   110    1
   138   109   159    1
   139   109   160    1
   140   110   161    1
   141   110   162    1
   142   110   163    1
   143   111   112    2
   144   111   113    1
   145   113   114    1
   146   113   141    2
   147   114   115    2
   148   114   164    1
   149   115   116    1
   150   115   165    1
   151   116   117    2
   152   116   166    1
   153   117   118    1
   154   117   141    1
   155   118   119    1
   156   118   140    2
   157   119   120    2
   158   119   167    1
   159   120   121    1
   160   120   168    1
   161   121   122    2
   162   121   169    1
   163   122   123    1
   164   122   140    1
   165   123   124    2
   166   123   125    1
   167   125   126    1
   168   125   128    1
   169   126   127    1
   170   126   170    1
   171   126   171    1
   172   127   172    1
   173   127   173    1
   174   127   174    1
   175   128   129    1
   176   128   139    2
   177   129   130    2
   178   129   175    1
   179   130   131    1
   180   130   176    1
   181   131   132    1
   182   131   138    2
   183   132   133    1
   184   132   177    1
   185   132   178    1
   186   133   134    1
   187   133   179    1
   188   133   180    1
   189   134   135    1
   190   134   181    1
   191   134   182    1
   192   135   136    1
   193   135   183    1
   194   135   184    1
   195   136   137    1
   196   136   185    1
   197   136   186    1
   198   137   187    1
   199   137   188    1
   200   137   189    1
   201   138   139    1
   202   138   190    1
   203   139   191    1
   204   142   143    1
   205   142   192    1
   206   143   193    1
@<TRIPOS>SUBSTRUCTURE
     1 RES1      193 GROUP             0 ****  ****    0  
