@<TRIPOS>MOLECULE
ICIGOT_geomtry_0_nunpairedes_0_charge_3 Charge: 3 Unpaired_Electrons: 4 XTB_Unpaired_Electrons: 0 XTB_Charge: 3
   281   288     1     0     0
SMALL
NoCharges
****
Generated from Architector

@<TRIPOS>ATOM
     1 Ho1      -0.0099    0.1168    0.0810   Ho        1 RES1   0.0000
     2 C1       -7.5092    5.8355    0.6637   C.3       1 RES1   0.0000
     3 C2       -8.2117    4.7294   -0.1167   C.3       1 RES1   0.0000
     4 C3       -8.5497    3.4984    0.7305   C.3       1 RES1   0.0000
     5 C4       -7.3408    2.7491    1.3015   C.3       1 RES1   0.0000
     6 C5       -6.3486    2.3701    0.2015   C.3       1 RES1   0.0000
     7 C6       -5.6472    1.0314    0.4216   C.3       1 RES1   0.0000
     8 C7       -4.5410    0.8105   -0.6155   C.3       1 RES1   0.0000
     9 C8       -4.1659   -0.6533   -0.7691   C.3       1 RES1   0.0000
    10 P1       -2.6394   -1.1677   -1.6760   P.3       1 RES1   0.0000
    11 O1       -1.4733   -1.2990   -0.7414   O.2       1 RES1   0.0000
    12 C9       -2.2576   -0.3129   -3.2971   C.3       1 RES1   0.0000
    13 C10      -1.3332    0.9013   -3.2370   C.2       1 RES1   0.0000
    14 O2       -0.8149    1.2174   -2.1560   O.2       1 RES1   0.0000
    15 N1       -1.1046    1.5944   -4.3695   N.am      1 RES1   0.0000
    16 C11      -1.7643    1.3444   -5.6482   C.3       1 RES1   0.0000
    17 C12      -0.9523    0.6176   -6.7469   C.3       1 RES1   0.0000
    18 C13      -0.3399   -0.6743   -6.2193   C.3       1 RES1   0.0000
    19 C14       0.1219    1.4446   -7.4539   C.3       1 RES1   0.0000
    20 C15      -0.0993    2.6695   -4.3776   C.3       1 RES1   0.0000
    21 C16      -0.5850    4.1254   -4.6180   C.3       1 RES1   0.0000
    22 C17      -0.6697    4.5630   -6.0828   C.3       1 RES1   0.0000
    23 C18       0.3788    5.0756   -3.9034   C.3       1 RES1   0.0000
    24 C19      -3.1855   -2.8270   -2.1505   C.ar      1 RES1   0.0000
    25 C20      -2.8596   -3.8342   -1.2515   C.ar      1 RES1   0.0000
    26 C21      -3.3634   -5.1091   -1.4146   C.ar      1 RES1   0.0000
    27 C22      -4.2191   -5.3720   -2.4713   C.ar      1 RES1   0.0000
    28 C23      -4.5508   -4.3704   -3.3710   C.ar      1 RES1   0.0000
    29 C24      -4.0377   -3.0950   -3.2090   C.ar      1 RES1   0.0000
    30 H1       -7.4035    6.7211    0.0394   H         1 RES1   0.0000
    31 H2       -6.5155    5.5232    0.9854   H         1 RES1   0.0000
    32 H3       -8.0935    6.1061    1.5405   H         1 RES1   0.0000
    33 H4       -7.5896    4.4458   -0.9698   H         1 RES1   0.0000
    34 H5       -9.1464    5.1266   -0.5195   H         1 RES1   0.0000
    35 H6       -9.1202    2.8036    0.1081   H         1 RES1   0.0000
    36 H7       -9.1958    3.8109    1.5536   H         1 RES1   0.0000
    37 H8       -7.7110    1.8463    1.7907   H         1 RES1   0.0000
    38 H9       -6.8526    3.3596    2.0613   H         1 RES1   0.0000
    39 H10      -5.6167    3.1716    0.0939   H         1 RES1   0.0000
    40 H11      -6.9044    2.2958   -0.7305   H         1 RES1   0.0000
    41 H12      -6.3978    0.2403    0.3344   H         1 RES1   0.0000
    42 H13      -5.2322    1.0046    1.4272   H         1 RES1   0.0000
    43 H14      -3.6520    1.3800   -0.3425   H         1 RES1   0.0000
    44 H15      -4.9178    1.1763   -1.5635   H         1 RES1   0.0000
    45 H16      -4.9789   -1.2156   -1.2326   H         1 RES1   0.0000
    46 H17      -3.9794   -1.1057    0.2084   H         1 RES1   0.0000
    47 H18      -3.2102   -0.0731   -3.7667   H         1 RES1   0.0000
    48 H19      -1.7834   -1.1042   -3.8839   H         1 RES1   0.0000
    49 H20      -2.0959    2.3082   -6.0398   H         1 RES1   0.0000
    50 H21      -2.6617    0.7536   -5.4751   H         1 RES1   0.0000
    51 H22      -1.6939    0.3594   -7.5116   H         1 RES1   0.0000
    52 H23       0.2729   -0.4778   -5.3384   H         1 RES1   0.0000
    53 H24       0.2951   -1.1138   -6.9840   H         1 RES1   0.0000
    54 H25      -1.1066   -1.4020   -5.9608   H         1 RES1   0.0000
    55 H26       1.0134    1.5790   -6.8450   H         1 RES1   0.0000
    56 H27      -0.2555    2.4165   -7.7536   H         1 RES1   0.0000
    57 H28       0.4272    0.9147   -8.3529   H         1 RES1   0.0000
    58 H29       0.6397    2.4272   -5.1429   H         1 RES1   0.0000
    59 H30       0.4072    2.6145   -3.4090   H         1 RES1   0.0000
    60 H31      -1.5770    4.2634   -4.1834   H         1 RES1   0.0000
    61 H32       0.2745    4.4286   -6.6021   H         1 RES1   0.0000
    62 H33      -0.9057    5.6239   -6.1170   H         1 RES1   0.0000
    63 H34      -1.4491    4.0495   -6.6382   H         1 RES1   0.0000
    64 H35       1.3736    5.0075   -4.3331   H         1 RES1   0.0000
    65 H36       0.4513    4.8517   -2.8415   H         1 RES1   0.0000
    66 H37       0.0419    6.1018   -4.0179   H         1 RES1   0.0000
    67 H38      -2.2003   -3.5971   -0.4277   H         1 RES1   0.0000
    68 H39      -3.1014   -5.8911   -0.7181   H         1 RES1   0.0000
    69 H40      -4.6356   -6.3596   -2.5875   H         1 RES1   0.0000
    70 H41      -5.2152   -4.5860   -4.1912   H         1 RES1   0.0000
    71 H42      -4.3091   -2.3163   -3.9050   H         1 RES1   0.0000
    72 C25      -7.8316   -0.0524   -2.6943   C.3       1 RES1   0.0000
    73 C26      -8.0028    1.3298   -3.3178   C.3       1 RES1   0.0000
    74 C27      -7.0687    1.6022   -4.5014   C.3       1 RES1   0.0000
    75 C28      -5.5813    1.7189   -4.1437   C.3       1 RES1   0.0000
    76 C29      -5.2445    2.9838   -3.3475   C.3       1 RES1   0.0000
    77 C30      -3.7656    3.0431   -2.9592   C.3       1 RES1   0.0000
    78 C31      -3.4548    4.0055   -1.8109   C.3       1 RES1   0.0000
    79 C32      -1.9569    4.0337   -1.4714   C.3       1 RES1   0.0000
    80 P2       -1.4063    3.3309    0.1485   P.3       1 RES1   0.0000
    81 O3       -1.4184    1.8416    0.3051   O.2       1 RES1   0.0000
    82 C33       0.3282    4.0520    0.2244   C.3       1 RES1   0.0000
    83 C34       1.3585    3.1036    0.7883   C.2       1 RES1   0.0000
    84 O4        1.2835    1.8909    0.4999   O.2       1 RES1   0.0000
    85 N2        2.3615    3.6104    1.5092   N.am      1 RES1   0.0000
    86 C35       2.7155    5.0271    1.3875   C.3       1 RES1   0.0000
    87 C36       1.9782    6.0355    2.3013   C.3       1 RES1   0.0000
    88 C37       2.8726    6.4710    3.4612   C.3       1 RES1   0.0000
    89 C38       1.5967    7.2732    1.4870   C.3       1 RES1   0.0000
    90 C39       3.3333    2.6746    2.0782   C.3       1 RES1   0.0000
    91 C40       2.9721    2.0773    3.4518   C.3       1 RES1   0.0000
    92 C41       4.0554    1.0691    3.8231   C.3       1 RES1   0.0000
    93 C42       2.8370    3.1027    4.5694   C.3       1 RES1   0.0000
    94 C43      -2.4945    4.0281    1.4073   C.ar      1 RES1   0.0000
    95 C44      -2.6651    5.3890    1.6086   C.ar      1 RES1   0.0000
    96 C45      -3.6417    5.8335    2.4828   C.ar      1 RES1   0.0000
    97 C46      -4.4565    4.9222    3.1379   C.ar      1 RES1   0.0000
    98 C47      -4.2760    3.5625    2.9479   C.ar      1 RES1   0.0000
    99 C48      -3.2947    3.1165    2.0832   C.ar      1 RES1   0.0000
   100 H43      -8.5343   -0.1773   -1.8744   H         1 RES1   0.0000
   101 H44      -6.8269   -0.1954   -2.3020   H         1 RES1   0.0000
   102 H45      -8.0337   -0.8313   -3.4263   H         1 RES1   0.0000
   103 H46      -7.8649    2.1001   -2.5564   H         1 RES1   0.0000
   104 H47      -9.0295    1.4171   -3.6758   H         1 RES1   0.0000
   105 H48      -7.3846    2.5265   -4.9900   H         1 RES1   0.0000
   106 H49      -7.1912    0.7972   -5.2312   H         1 RES1   0.0000
   107 H50      -5.0066    1.7203   -5.0743   H         1 RES1   0.0000
   108 H51      -5.2837    0.8261   -3.5830   H         1 RES1   0.0000
   109 H52      -5.8641    3.0248   -2.4548   H         1 RES1   0.0000
   110 H53      -5.4906    3.8547   -3.9552   H         1 RES1   0.0000
   111 H54      -3.2015    3.3360   -3.8435   H         1 RES1   0.0000
   112 H55      -3.4165    2.0544   -2.6651   H         1 RES1   0.0000
   113 H56      -4.0193    3.7118   -0.9259   H         1 RES1   0.0000
   114 H57      -3.7932    5.0065   -2.0842   H         1 RES1   0.0000
   115 H58      -1.6048    5.0668   -1.4716   H         1 RES1   0.0000
   116 H59      -1.3940    3.4770   -2.2157   H         1 RES1   0.0000
   117 H60       0.2872    4.9958    0.7608   H         1 RES1   0.0000
   118 H61       0.6268    4.2546   -0.8107   H         1 RES1   0.0000
   119 H62       2.5671    5.3095    0.3392   H         1 RES1   0.0000
   120 H63       3.7836    5.1035    1.5900   H         1 RES1   0.0000
   121 H64       1.0767    5.5644    2.7088   H         1 RES1   0.0000
   122 H65       3.7061    7.0624    3.0893   H         1 RES1   0.0000
   123 H66       3.2670    5.6165    3.9981   H         1 RES1   0.0000
   124 H67       2.3138    7.0780    4.1680   H         1 RES1   0.0000
   125 H68       2.4973    7.7253    1.0773   H         1 RES1   0.0000
   126 H69       1.1063    8.0089    2.1181   H         1 RES1   0.0000
   127 H70       0.9256    7.0444    0.6604   H         1 RES1   0.0000
   128 H71       4.3001    3.1740    2.1399   H         1 RES1   0.0000
   129 H72       3.4078    1.8360    1.3761   H         1 RES1   0.0000
   130 H73       2.0272    1.5446    3.3319   H         1 RES1   0.0000
   131 H74       5.0335    1.5470    3.8264   H         1 RES1   0.0000
   132 H75       4.0550    0.2446    3.1165   H         1 RES1   0.0000
   133 H76       3.8853    0.6599    4.8151   H         1 RES1   0.0000
   134 H77       3.7901    3.5849    4.7716   H         1 RES1   0.0000
   135 H78       2.5325    2.6129    5.4939   H         1 RES1   0.0000
   136 H79       2.0968    3.8560    4.3201   H         1 RES1   0.0000
   137 H80      -2.0385    6.0970    1.0884   H         1 RES1   0.0000
   138 H81      -3.7774    6.8898    2.6462   H         1 RES1   0.0000
   139 H82      -5.2301    5.2743    3.8006   H         1 RES1   0.0000
   140 H83      -4.8962    2.8530    3.4746   H         1 RES1   0.0000
   141 H84      -3.1092    2.0646    1.9249   H         1 RES1   0.0000
   142 C49      -3.3008    5.3320    6.9812   C.3       1 RES1   0.0000
   143 C50      -2.7547    3.9109    7.0524   C.3       1 RES1   0.0000
   144 C51      -1.2290    3.8503    6.9459   C.3       1 RES1   0.0000
   145 C52      -0.6563    4.4334    5.6538   C.3       1 RES1   0.0000
   146 C53      -1.1697    3.8044    4.3583   C.3       1 RES1   0.0000
   147 C54      -0.5693    2.4312    4.0431   C.3       1 RES1   0.0000
   148 C55      -1.4025    1.2465    4.5360   C.3       1 RES1   0.0000
   149 C56      -0.5014    0.0901    4.9587   C.3       1 RES1   0.0000
   150 P3        0.4112   -0.8179    3.6444   P.3       1 RES1   0.0000
   151 O5        0.7401   -0.0567    2.3942   O.2       1 RES1   0.0000
   152 C57      -0.5891   -2.2848    3.1012   C.3       1 RES1   0.0000
   153 C58      -1.9283   -1.6924    2.7339   C.2       1 RES1   0.0000
   154 O6       -1.9270   -0.7752    1.8878   O.2       1 RES1   0.0000
   155 N3       -3.0324   -2.1017    3.3680   N.am      1 RES1   0.0000
   156 C59      -3.1220   -3.3014    4.1977   C.3       1 RES1   0.0000
   157 C60      -3.3078   -4.6371    3.4389   C.3       1 RES1   0.0000
   158 C61      -2.0627   -5.0749    2.6709   C.3       1 RES1   0.0000
   159 C62      -4.5182   -4.6358    2.5041   C.3       1 RES1   0.0000
   160 C63      -4.3081   -1.4283    3.1348   C.3       1 RES1   0.0000
   161 C64      -4.7537   -0.3875    4.1901   C.3       1 RES1   0.0000
   162 C65      -4.4375   -0.7518    5.6387   C.3       1 RES1   0.0000
   163 C66      -6.2607   -0.1803    4.0183   C.3       1 RES1   0.0000
   164 C67       1.8367   -1.5794    4.5003   C.ar      1 RES1   0.0000
   165 C68       2.6616   -2.3551    3.6976   C.ar      1 RES1   0.0000
   166 C69       3.7710   -2.9886    4.2241   C.ar      1 RES1   0.0000
   167 C70       4.0582   -2.8681    5.5705   C.ar      1 RES1   0.0000
   168 C71       3.2187   -2.1333    6.3889   C.ar      1 RES1   0.0000
   169 C72       2.1096   -1.4906    5.8597   C.ar      1 RES1   0.0000
   170 H85      -4.3671    5.3363    7.1926   H         1 RES1   0.0000
   171 H86      -3.1489    5.7619    5.9934   H         1 RES1   0.0000
   172 H87      -2.8072    5.9632    7.7156   H         1 RES1   0.0000
   173 H88      -3.2155    3.3092    6.2636   H         1 RES1   0.0000
   174 H89      -3.0443    3.4681    8.0076   H         1 RES1   0.0000
   175 H90      -0.9006    2.8149    7.0660   H         1 RES1   0.0000
   176 H91      -0.8051    4.4185    7.7770   H         1 RES1   0.0000
   177 H92       0.4304    4.3436    5.6898   H         1 RES1   0.0000
   178 H93      -0.8874    5.4978    5.6285   H         1 RES1   0.0000
   179 H94      -0.9242    4.4852    3.5418   H         1 RES1   0.0000
   180 H95      -2.2533    3.7352    4.3961   H         1 RES1   0.0000
   181 H96       0.4011    2.3818    4.5297   H         1 RES1   0.0000
   182 H97      -0.4058    2.3219    2.9641   H         1 RES1   0.0000
   183 H98      -2.1060    0.9336    3.7642   H         1 RES1   0.0000
   184 H99      -1.9757    1.5441    5.4162   H         1 RES1   0.0000
   185 H100     -1.0490   -0.6540    5.5439   H         1 RES1   0.0000
   186 H101      0.2787    0.5003    5.6062   H         1 RES1   0.0000
   187 H102     -0.5827   -3.0769    3.8392   H         1 RES1   0.0000
   188 H103     -0.0744   -2.6178    2.1928   H         1 RES1   0.0000
   189 H104     -3.9948   -3.1700    4.8369   H         1 RES1   0.0000
   190 H105     -2.2492   -3.3837    4.8482   H         1 RES1   0.0000
   191 H106     -3.4914   -5.3785    4.2267   H         1 RES1   0.0000
   192 H107     -1.8329   -4.3791    1.8650   H         1 RES1   0.0000
   193 H108     -2.2342   -6.0561    2.2340   H         1 RES1   0.0000
   194 H109     -1.2051   -5.1568    3.3346   H         1 RES1   0.0000
   195 H110     -4.3623   -3.9882    1.6414   H         1 RES1   0.0000
   196 H111     -5.4215   -4.3289    3.0257   H         1 RES1   0.0000
   197 H112     -4.6936   -5.6416    2.1312   H         1 RES1   0.0000
   198 H113     -5.0745   -2.1986    3.0626   H         1 RES1   0.0000
   199 H114     -4.2490   -0.9204    2.1725   H         1 RES1   0.0000
   200 H115     -4.2498    0.5625    3.9781   H         1 RES1   0.0000
   201 H116     -5.0056   -1.6141    5.9761   H         1 RES1   0.0000
   202 H117     -4.7181    0.0794    6.2807   H         1 RES1   0.0000
   203 H118     -3.3777   -0.9492    5.7842   H         1 RES1   0.0000
   204 H119     -6.8119   -1.0936    4.2303   H         1 RES1   0.0000
   205 H120     -6.4977    0.1277    3.0031   H         1 RES1   0.0000
   206 H121     -6.6190    0.5814    4.7045   H         1 RES1   0.0000
   207 H122      2.4100   -2.4458    2.6507   H         1 RES1   0.0000
   208 H123      4.4143   -3.5860    3.6011   H         1 RES1   0.0000
   209 H124      4.9342   -3.3494    5.9751   H         1 RES1   0.0000
   210 H125      3.4280   -2.0634    7.4436   H         1 RES1   0.0000
   211 H126      1.4710   -0.9397    6.5324   H         1 RES1   0.0000
   212 C73       7.7358    2.7659   -2.0008   C.3       1 RES1   0.0000
   213 C74       6.9365    1.8484   -2.9179   C.3       1 RES1   0.0000
   214 C75       5.8278    2.5724   -3.6860   C.3       1 RES1   0.0000
   215 C76       4.7223    3.1873   -2.8224   C.3       1 RES1   0.0000
   216 C77       4.0285    2.2501   -1.8310   C.3       1 RES1   0.0000
   217 C78       3.1217    1.1947   -2.4775   C.3       1 RES1   0.0000
   218 C79       3.8625   -0.1048   -2.7955   C.3       1 RES1   0.0000
   219 C80       3.0638   -1.1134   -3.6155   C.3       1 RES1   0.0000
   220 P4        1.5880   -1.7980   -2.7830   P.3       1 RES1   0.0000
   221 O7        0.7086   -0.7638   -2.1671   O.2       1 RES1   0.0000
   222 C81       2.0523   -3.0175   -1.4765   C.3       1 RES1   0.0000
   223 C82       2.7282   -2.3126   -0.3335   C.2       1 RES1   0.0000
   224 O8        2.1384   -1.3410    0.1947   O.2       1 RES1   0.0000
   225 N4        3.9235   -2.7569    0.0626   N.am      1 RES1   0.0000
   226 C83       4.5510   -3.9896   -0.4280   C.3       1 RES1   0.0000
   227 C84       4.0715   -5.3452    0.1540   C.3       1 RES1   0.0000
   228 C85       2.6537   -5.7770   -0.2175   C.3       1 RES1   0.0000
   229 C86       4.2189   -5.4147    1.6710   C.3       1 RES1   0.0000
   230 C87       4.7211   -1.9517    0.9879   C.3       1 RES1   0.0000
   231 C88       5.6993   -0.9739    0.3024   C.3       1 RES1   0.0000
   232 C89       6.6524   -1.6328   -0.6927   C.3       1 RES1   0.0000
   233 C90       6.5073   -0.2381    1.3697   C.3       1 RES1   0.0000
   234 C91       0.7834   -2.9045   -3.9821   C.ar      1 RES1   0.0000
   235 C92      -0.3057   -3.6153   -3.4993   C.ar      1 RES1   0.0000
   236 C93      -0.9484   -4.5448   -4.2924   C.ar      1 RES1   0.0000
   237 C94      -0.5212   -4.7413   -5.5944   C.ar      1 RES1   0.0000
   238 C95       0.5619   -4.0312   -6.0843   C.ar      1 RES1   0.0000
   239 C96       1.2302   -3.1271   -5.2759   C.ar      1 RES1   0.0000
   240 H127      8.5641    2.2208   -1.5537   H         1 RES1   0.0000
   241 H128      7.1139    3.1568   -1.1985   H         1 RES1   0.0000
   242 H129      8.1451    3.6014   -2.5626   H         1 RES1   0.0000
   243 H130      6.5168    1.0303   -2.3287   H         1 RES1   0.0000
   244 H131      7.6156    1.4047   -3.6489   H         1 RES1   0.0000
   245 H132      5.3883    1.8851   -4.4129   H         1 RES1   0.0000
   246 H133      6.2834    3.3829   -4.2580   H         1 RES1   0.0000
   247 H134      3.9646    3.6073   -3.4885   H         1 RES1   0.0000
   248 H135      5.1462    4.0202   -2.2612   H         1 RES1   0.0000
   249 H136      3.4154    2.8660   -1.1686   H         1 RES1   0.0000
   250 H137      4.7739    1.7611   -1.2050   H         1 RES1   0.0000
   251 H138      2.7115    1.6071   -3.4013   H         1 RES1   0.0000
   252 H139      2.2806    0.9797   -1.7991   H         1 RES1   0.0000
   253 H140      4.1681   -0.5740   -1.8619   H         1 RES1   0.0000
   254 H141      4.7639    0.1246   -3.3633   H         1 RES1   0.0000
   255 H142      3.6998   -1.9602   -3.8864   H         1 RES1   0.0000
   256 H143      2.7028   -0.6522   -4.5410   H         1 RES1   0.0000
   257 H144      2.6029   -3.8401   -1.9133   H         1 RES1   0.0000
   258 H145      1.0726   -3.3722   -1.1459   H         1 RES1   0.0000
   259 H146      5.6045   -3.9112   -0.1644   H         1 RES1   0.0000
   260 H147      4.4966   -4.0379   -1.5189   H         1 RES1   0.0000
   261 H148      4.7628   -6.0736   -0.2888   H         1 RES1   0.0000
   262 H149      1.9072   -5.1111    0.2115   H         1 RES1   0.0000
   263 H150      2.4718   -6.7712    0.1844   H         1 RES1   0.0000
   264 H151      2.5180   -5.8373   -1.2942   H         1 RES1   0.0000
   265 H152      3.4461   -4.8256    2.1599   H         1 RES1   0.0000
   266 H153      5.2012   -5.0745    1.9883   H         1 RES1   0.0000
   267 H154      4.1075   -6.4422    2.0074   H         1 RES1   0.0000
   268 H155      5.2718   -2.6249    1.6448   H         1 RES1   0.0000
   269 H156      4.0360   -1.3613    1.6000   H         1 RES1   0.0000
   270 H157      5.1017   -0.2237   -0.2263   H         1 RES1   0.0000
   271 H158      7.2622   -2.3957   -0.2156   H         1 RES1   0.0000
   272 H159      7.3356   -0.8815   -1.0807   H         1 RES1   0.0000
   273 H160      6.1279   -2.0773   -1.5354   H         1 RES1   0.0000
   274 H161      7.0657   -0.9335    1.9901   H         1 RES1   0.0000
   275 H162      5.8585    0.3509    2.0083   H         1 RES1   0.0000
   276 H163      7.2217    0.4297    0.8954   H         1 RES1   0.0000
   277 H164     -0.6427   -3.4248   -2.4914   H         1 RES1   0.0000
   278 H165     -1.7645   -5.1214   -3.8891   H         1 RES1   0.0000
   279 H166     -1.0331   -5.4493   -6.2246   H         1 RES1   0.0000
   280 H167      0.9016   -4.1943   -7.0934   H         1 RES1   0.0000
   281 H168      2.0891   -2.6014   -5.6610   H         1 RES1   0.0000
@<TRIPOS>BOND
     1     1    11    1
     2     1    14    1
     3     1    81    1
     4     1    84    1
     5     1   151    1
     6     1   154    1
     7     1   221    1
     8     1   224    1
     9     2     3    1
    10     2    30    1
    11     2    31    1
    12     2    32    1
    13     3     4    1
    14     3    33    1
    15     3    34    1
    16     4     5    1
    17     4    35    1
    18     4    36    1
    19     5     6    1
    20     5    37    1
    21     5    38    1
    22     6     7    1
    23     6    39    1
    24     6    40    1
    25     7     8    1
    26     7    41    1
    27     7    42    1
    28     8     9    1
    29     8    43    1
    30     8    44    1
    31     9    10    1
    32     9    45    1
    33     9    46    1
    34    10    11    2
    35    10    12    1
    36    10    24    1
    37    12    13    1
    38    12    47    1
    39    12    48    1
    40    13    14    2
    41    13    15    1
    42    15    16    1
    43    15    20    1
    44    16    17    1
    45    16    49    1
    46    16    50    1
    47    17    18    1
    48    17    19    1
    49    17    51    1
    50    18    52    1
    51    18    53    1
    52    18    54    1
    53    19    55    1
    54    19    56    1
    55    19    57    1
    56    20    21    1
    57    20    58    1
    58    20    59    1
    59    21    22    1
    60    21    23    1
    61    21    60    1
    62    22    61    1
    63    22    62    1
    64    22    63    1
    65    23    64    1
    66    23    65    1
    67    23    66    1
    68    24    25    1
    69    24    29    2
    70    25    26    2
    71    25    67    1
    72    26    27    1
    73    26    68    1
    74    27    28    2
    75    27    69    1
    76    28    29    1
    77    28    70    1
    78    29    71    1
    79    72    73    1
    80    72   100    1
    81    72   101    1
    82    72   102    1
    83    73    74    1
    84    73   103    1
    85    73   104    1
    86    74    75    1
    87    74   105    1
    88    74   106    1
    89    75    76    1
    90    75   107    1
    91    75   108    1
    92    76    77    1
    93    76   109    1
    94    76   110    1
    95    77    78    1
    96    77   111    1
    97    77   112    1
    98    78    79    1
    99    78   113    1
   100    78   114    1
   101    79    80    1
   102    79   115    1
   103    79   116    1
   104    80    81    2
   105    80    82    1
   106    80    94    1
   107    82    83    1
   108    82   117    1
   109    82   118    1
   110    83    84    2
   111    83    85    1
   112    85    86    1
   113    85    90    1
   114    86    87    1
   115    86   119    1
   116    86   120    1
   117    87    88    1
   118    87    89    1
   119    87   121    1
   120    88   122    1
   121    88   123    1
   122    88   124    1
   123    89   125    1
   124    89   126    1
   125    89   127    1
   126    90    91    1
   127    90   128    1
   128    90   129    1
   129    91    92    1
   130    91    93    1
   131    91   130    1
   132    92   131    1
   133    92   132    1
   134    92   133    1
   135    93   134    1
   136    93   135    1
   137    93   136    1
   138    94    95    1
   139    94    99    2
   140    95    96    2
   141    95   137    1
   142    96    97    1
   143    96   138    1
   144    97    98    2
   145    97   139    1
   146    98    99    1
   147    98   140    1
   148    99   141    1
   149   142   143    1
   150   142   170    1
   151   142   171    1
   152   142   172    1
   153   143   144    1
   154   143   173    1
   155   143   174    1
   156   144   145    1
   157   144   175    1
   158   144   176    1
   159   145   146    1
   160   145   177    1
   161   145   178    1
   162   146   147    1
   163   146   179    1
   164   146   180    1
   165   147   148    1
   166   147   181    1
   167   147   182    1
   168   148   149    1
   169   148   183    1
   170   148   184    1
   171   149   150    1
   172   149   185    1
   173   149   186    1
   174   150   151    2
   175   150   152    1
   176   150   164    1
   177   152   153    1
   178   152   187    1
   179   152   188    1
   180   153   154    2
   181   153   155    1
   182   155   156    1
   183   155   160    1
   184   156   157    1
   185   156   189    1
   186   156   190    1
   187   157   158    1
   188   157   159    1
   189   157   191    1
   190   158   192    1
   191   158   193    1
   192   158   194    1
   193   159   195    1
   194   159   196    1
   195   159   197    1
   196   160   161    1
   197   160   198    1
   198   160   199    1
   199   161   162    1
   200   161   163    1
   201   161   200    1
   202   162   201    1
   203   162   202    1
   204   162   203    1
   205   163   204    1
   206   163   205    1
   207   163   206    1
   208   164   165    1
   209   164   169    2
   210   165   166    2
   211   165   207    1
   212   166   167    1
   213   166   208    1
   214   167   168    2
   215   167   209    1
   216   168   169    1
   217   168   210    1
   218   169   211    1
   219   212   213    1
   220   212   240    1
   221   212   241    1
   222   212   242    1
   223   213   214    1
   224   213   243    1
   225   213   244    1
   226   214   215    1
   227   214   245    1
   228   214   246    1
   229   215   216    1
   230   215   247    1
   231   215   248    1
   232   216   217    1
   233   216   249    1
   234   216   250    1
   235   217   218    1
   236   217   251    1
   237   217   252    1
   238   218   219    1
   239   218   253    1
   240   218   254    1
   241   219   220    1
   242   219   255    1
   243   219   256    1
   244   220   221    2
   245   220   222    1
   246   220   234    1
   247   222   223    1
   248   222   257    1
   249   222   258    1
   250   223   224    2
   251   223   225    1
   252   225   226    1
   253   225   230    1
   254   226   227    1
   255   226   259    1
   256   226   260    1
   257   227   228    1
   258   227   229    1
   259   227   261    1
   260   228   262    1
   261   228   263    1
   262   228   264    1
   263   229   265    1
   264   229   266    1
   265   229   267    1
   266   230   231    1
   267   230   268    1
   268   230   269    1
   269   231   232    1
   270   231   233    1
   271   231   270    1
   272   232   271    1
   273   232   272    1
   274   232   273    1
   275   233   274    1
   276   233   275    1
   277   233   276    1
   278   234   235    1
   279   234   239    2
   280   235   236    2
   281   235   277    1
   282   236   237    1
   283   236   278    1
   284   237   238    2
   285   237   279    1
   286   238   239    1
   287   238   280    1
   288   239   281    1
@<TRIPOS>SUBSTRUCTURE
     1 RES1      281 GROUP             0 ****  ****    0  
