@<TRIPOS>MOLECULE
ICIGOT_geomtry_0_nunpairedes_0_charge_3 Charge: 3 Unpaired_Electrons: 4 XTB_Unpaired_Electrons: 0 XTB_Charge: 3
    61    66     1     0     0
SMALL
NoCharges
****
Generated from Architector

@<TRIPOS>ATOM
     1 Ho1      -0.1890    0.1093   -0.0670   Ho        1 RES1   0.0000
     2 C1       -3.1034   -0.6475   -0.5677   C.3       1 RES1   0.0000
     3 O1       -2.3346   -0.4988    0.6430   O.3       1 RES1   0.0000
     4 C2       -3.0703    0.1575    1.7012   C.3       1 RES1   0.0000
     5 C3       -2.1325    0.5055    2.8589   C.3       1 RES1   0.0000
     6 N1       -1.0213    1.4568    2.6256   N.am      1 RES1   0.0000
     7 C4        0.0089    1.4467    3.6572   C.3       1 RES1   0.0000
     8 C5        1.2636    0.7470    3.0955   C.3       1 RES1   0.0000
     9 O2        0.8989   -0.4023    2.3103   O.3       1 RES1   0.0000
    10 C6        0.9369   -1.6412    3.0541   C.3       1 RES1   0.0000
    11 C7       -0.8846    2.1555    1.4913   C.2       1 RES1   0.0000
    12 O3       -1.5894    1.9192    0.4981   O.2       1 RES1   0.0000
    13 C8        0.2896    3.1034    1.1901   C.3       1 RES1   0.0000
    14 O4        1.0618    2.3381    0.2251   O.3       1 RES1   0.0000
    15 C9        1.1411    2.8016   -1.1421   C.3       1 RES1   0.0000
    16 C10       0.5882    1.6719   -2.0308   C.2       1 RES1   0.0000
    17 O5       -0.5943    1.3292   -1.8112   O.2       1 RES1   0.0000
    18 N2        1.3125    1.0199   -2.9408   N.am      1 RES1   0.0000
    19 C11       2.7617    0.9535   -2.9047   C.3       1 RES1   0.0000
    20 C12       3.1915   -0.1542   -1.9345   C.3       1 RES1   0.0000
    21 O6        2.4659   -0.0533   -0.6913   O.3       1 RES1   0.0000
    22 C13       3.0952   -0.8441    0.3318   C.3       1 RES1   0.0000
    23 C14       0.6341    0.1100   -3.8730   C.3       1 RES1   0.0000
    24 C15      -0.3277   -0.9355   -3.2579   C.3       1 RES1   0.0000
    25 O7        0.1296   -1.4412   -1.9865   O.3       1 RES1   0.0000
    26 C16       0.7383   -2.7463   -2.1008   C.3       1 RES1   0.0000
    27 H1       -4.1082   -1.0126   -0.3452   H         1 RES1   0.0000
    28 H2       -2.6014   -1.3998   -1.1910   H         1 RES1   0.0000
    29 H3       -3.1766    0.3114   -1.0963   H         1 RES1   0.0000
    30 H4       -3.8009   -0.5656    2.0869   H         1 RES1   0.0000
    31 H5       -3.5918    1.0408    1.3224   H         1 RES1   0.0000
    32 H6       -1.6937   -0.4316    3.2169   H         1 RES1   0.0000
    33 H7       -2.7466    0.9130    3.6696   H         1 RES1   0.0000
    34 H8       -0.3855    0.9042    4.5179   H         1 RES1   0.0000
    35 H9        0.2448    2.4571    3.9937   H         1 RES1   0.0000
    36 H10       1.9263    0.4563    3.9145   H         1 RES1   0.0000
    37 H11       1.8205    1.4138    2.4283   H         1 RES1   0.0000
    38 H12       1.4878   -1.5252    3.9861   H         1 RES1   0.0000
    39 H13       1.4534   -2.3943    2.4579   H         1 RES1   0.0000
    40 H14      -0.0702   -1.9877    3.2953   H         1 RES1   0.0000
    41 H15       0.9436    3.3862    2.0198   H         1 RES1   0.0000
    42 H16      -0.1060    4.0244    0.7442   H         1 RES1   0.0000
    43 H17       2.1795    3.0775   -1.3447   H         1 RES1   0.0000
    44 H18       0.5100    3.6862   -1.3024   H         1 RES1   0.0000
    45 H19       3.1983    1.9043   -2.6074   H         1 RES1   0.0000
    46 H20       3.1396    0.7247   -3.9018   H         1 RES1   0.0000
    47 H21       4.2619   -0.0359   -1.7442   H         1 RES1   0.0000
    48 H22       3.0228   -1.1488   -2.3576   H         1 RES1   0.0000
    49 H23       4.1186   -1.1101    0.0674   H         1 RES1   0.0000
    50 H24       2.5202   -1.7642    0.4762   H         1 RES1   0.0000
    51 H25       3.1411   -0.2586    1.2510   H         1 RES1   0.0000
    52 H26       1.4083   -0.3932   -4.4501   H         1 RES1   0.0000
    53 H27       0.0451    0.7240   -4.5601   H         1 RES1   0.0000
    54 H28      -0.4502   -1.7593   -3.9706   H         1 RES1   0.0000
    55 H29      -1.3130   -0.4859   -3.0889   H         1 RES1   0.0000
    56 H30       1.4063   -2.7995   -2.9603   H         1 RES1   0.0000
    57 H31      -0.0377   -3.5066   -2.2202   H         1 RES1   0.0000
    58 H32       1.3099   -2.9527   -1.1940   H         1 RES1   0.0000
    59 O8       -0.4921   -2.3430    0.5305   O.3       1 RES1   0.0000
    60 H33      -0.7587   -2.6842    1.3967   H         1 RES1   0.0000
    61 H34      -0.8069   -3.0070   -0.0995   H         1 RES1   0.0000
@<TRIPOS>BOND
     1     1     3    1
     2     1     9    1
     3     1    12    1
     4     1    14    1
     5     1    17    1
     6     1    21    1
     7     1    25    1
     8     1    59    1
     9     2     3    1
    10     2    27    1
    11     2    28    1
    12     2    29    1
    13     3     4    1
    14     4     5    1
    15     4    30    1
    16     4    31    1
    17     5     6    1
    18     5    32    1
    19     5    33    1
    20     6     7    1
    21     6    11    1
    22     7     8    1
    23     7    34    1
    24     7    35    1
    25     8     9    1
    26     8    36    1
    27     8    37    1
    28     9    10    1
    29    10    38    1
    30    10    39    1
    31    10    40    1
    32    11    12    2
    33    11    13    1
    34    13    14    1
    35    13    41    1
    36    13    42    1
    37    14    15    1
    38    15    16    1
    39    15    43    1
    40    15    44    1
    41    16    17    2
    42    16    18    1
    43    18    19    1
    44    18    23    1
    45    19    20    1
    46    19    45    1
    47    19    46    1
    48    20    21    1
    49    20    47    1
    50    20    48    1
    51    21    22    1
    52    22    49    1
    53    22    50    1
    54    22    51    1
    55    23    24    1
    56    23    52    1
    57    23    53    1
    58    24    25    1
    59    24    54    1
    60    24    55    1
    61    25    26    1
    62    26    56    1
    63    26    57    1
    64    26    58    1
    65    59    60    1
    66    59    61    1
@<TRIPOS>SUBSTRUCTURE
     1 RES1       61 GROUP             0 ****  ****    0  
