@<TRIPOS>MOLECULE
am_c3_9H2O_c0_0_nunpairedes_0_charge_3 Charge: 3 Unpaired_Electrons: 3 XTB_Unpaired_Electrons: 0 XTB_Charge: 3
   214   219     1     0     0
SMALL
NoCharges
****
Generated from Architector

@<TRIPOS>ATOM
     1 Nd1       0.1178    0.0210    0.1405   Nd        1 RES1   0.0000
     2 C1       -0.8288   -3.6380   -4.7204   C.3       1 RES1   0.0000
     3 C2       -2.1064   -3.8229   -3.9124   C.3       1 RES1   0.0000
     4 C3       -3.2326   -4.3421   -4.8078   C.3       1 RES1   0.0000
     5 C4       -3.5770   -3.4434   -5.9953   C.3       1 RES1   0.0000
     6 C5       -4.2492   -2.1298   -5.5868   C.3       1 RES1   0.0000
     7 C6       -3.3027   -0.9460   -5.3413   C.3       1 RES1   0.0000
     8 C7       -4.0646    0.1829   -4.6462   C.3       1 RES1   0.0000
     9 C8       -3.3245    1.5122   -4.4793   C.3       1 RES1   0.0000
    10 N1       -2.0650    1.5893   -3.7312   N.am      1 RES1   0.0000
    11 C9       -1.0759    2.4371   -4.3850   C.3       1 RES1   0.0000
    12 C10      -1.8397    1.1800   -2.4916   C.2       1 RES1   0.0000
    13 O1       -0.8023    1.4263   -1.8468   O.2       1 RES1   0.0000
    14 C11      -2.8443    0.2824   -1.7770   C.3       1 RES1   0.0000
    15 O2       -2.4817    0.2148   -0.4012   O.3       1 RES1   0.0000
    16 C12      -3.1731    1.1347    0.4492   C.3       1 RES1   0.0000
    17 C13      -2.2707    1.6626    1.5618   C.2       1 RES1   0.0000
    18 O3       -1.0390    1.5532    1.4126   O.2       1 RES1   0.0000
    19 N2       -2.8235    2.2738    2.6027   N.am      1 RES1   0.0000
    20 C14      -1.9616    2.9073    3.5854   C.3       1 RES1   0.0000
    21 C15      -4.2433    2.5193    2.8234   C.3       1 RES1   0.0000
    22 C16      -4.7676    1.9255    4.1476   C.3       1 RES1   0.0000
    23 C17      -6.0215    1.0533    3.9779   C.3       1 RES1   0.0000
    24 C18      -7.3232    1.8320    4.1675   C.3       1 RES1   0.0000
    25 C19      -7.6768    2.7613    3.0001   C.3       1 RES1   0.0000
    26 C20      -7.3408    4.2285    3.2594   C.3       1 RES1   0.0000
    27 C21      -7.7960    5.1457    2.1254   C.3       1 RES1   0.0000
    28 C22      -7.3378    6.5821    2.3371   C.3       1 RES1   0.0000
    29 H1        0.0016   -3.2328   -4.1482   H         1 RES1   0.0000
    30 H2       -0.5354   -4.6002   -5.1235   H         1 RES1   0.0000
    31 H3       -0.9866   -2.9671   -5.5562   H         1 RES1   0.0000
    32 H4       -1.9404   -4.5574   -3.1181   H         1 RES1   0.0000
    33 H5       -2.4079   -2.8878   -3.4297   H         1 RES1   0.0000
    34 H6       -2.9370   -5.3246   -5.1778   H         1 RES1   0.0000
    35 H7       -4.1346   -4.4820   -4.2081   H         1 RES1   0.0000
    36 H8       -2.6942   -3.2481   -6.6022   H         1 RES1   0.0000
    37 H9       -4.2713   -4.0001   -6.6227   H         1 RES1   0.0000
    38 H10      -4.9435   -1.8327   -6.3721   H         1 RES1   0.0000
    39 H11      -4.8437   -2.3141   -4.6884   H         1 RES1   0.0000
    40 H12      -2.4493   -1.2451   -4.7349   H         1 RES1   0.0000
    41 H13      -2.9136   -0.5997   -6.3001   H         1 RES1   0.0000
    42 H14      -4.9255    0.4322   -5.2695   H         1 RES1   0.0000
    43 H15      -4.4645   -0.1831   -3.7023   H         1 RES1   0.0000
    44 H16      -3.0692    1.8439   -5.4836   H         1 RES1   0.0000
    45 H17      -4.0241    2.2477   -4.0661   H         1 RES1   0.0000
    46 H18      -0.8533    2.0203   -5.3675   H         1 RES1   0.0000
    47 H19      -1.4798    3.4441   -4.5298   H         1 RES1   0.0000
    48 H20      -0.1741    2.4712   -3.7743   H         1 RES1   0.0000
    49 H21      -3.8706    0.6337   -1.8863   H         1 RES1   0.0000
    50 H22      -2.7533   -0.7259   -2.1969   H         1 RES1   0.0000
    51 H23      -3.4997    2.0136   -0.1138   H         1 RES1   0.0000
    52 H24      -4.0318    0.6108    0.8748   H         1 RES1   0.0000
    53 H25      -0.9343    2.6136    3.3868   H         1 RES1   0.0000
    54 H26      -2.0682    3.9910    3.5171   H         1 RES1   0.0000
    55 H27      -2.2386    2.6094    4.5945   H         1 RES1   0.0000
    56 H28      -4.3860    3.6033    2.8165   H         1 RES1   0.0000
    57 H29      -4.8125    2.1218    1.9887   H         1 RES1   0.0000
    58 H30      -3.9769    1.3337    4.6192   H         1 RES1   0.0000
    59 H31      -5.0218    2.7380    4.8331   H         1 RES1   0.0000
    60 H32      -6.0278    0.5738    2.9935   H         1 RES1   0.0000
    61 H33      -5.9812    0.2602    4.7274   H         1 RES1   0.0000
    62 H34      -8.1233    1.1054    4.3075   H         1 RES1   0.0000
    63 H35      -7.2460    2.4139    5.0873   H         1 RES1   0.0000
    64 H36      -7.1715    2.4230    2.0918   H         1 RES1   0.0000
    65 H37      -8.7457    2.6986    2.8023   H         1 RES1   0.0000
    66 H38      -7.8338    4.5419    4.1789   H         1 RES1   0.0000
    67 H39      -6.2675    4.3588    3.4093   H         1 RES1   0.0000
    68 H40      -7.4040    4.7756    1.1772   H         1 RES1   0.0000
    69 H41      -8.8830    5.1162    2.0579   H         1 RES1   0.0000
    70 H42      -6.2551    6.6302    2.4257   H         1 RES1   0.0000
    71 H43      -7.6376    7.2092    1.5030   H         1 RES1   0.0000
    72 H44      -7.7714    6.9898    3.2442   H         1 RES1   0.0000
    73 C23       6.8021   -1.4684   -4.2043   C.3       1 RES1   0.0000
    74 C24       5.6380   -2.2846   -4.7482   C.3       1 RES1   0.0000
    75 C25       5.4608   -2.1923   -6.2661   C.3       1 RES1   0.0000
    76 C26       5.0433   -0.8039   -6.7787   C.3       1 RES1   0.0000
    77 C27       3.6147   -0.7564   -7.3200   C.3       1 RES1   0.0000
    78 C28       2.5067   -0.9163   -6.2782   C.3       1 RES1   0.0000
    79 C29       2.2661    0.3368   -5.4242   C.3       1 RES1   0.0000
    80 C30       3.0526    0.2876   -4.1116   C.3       1 RES1   0.0000
    81 N3        2.8674    1.4479   -3.2400   N.am      1 RES1   0.0000
    82 C31       3.5907    2.6308   -3.6649   C.3       1 RES1   0.0000
    83 C32       2.1470    1.3320   -2.1318   C.2       1 RES1   0.0000
    84 O4        1.5374    0.2880   -1.8261   O.2       1 RES1   0.0000
    85 C33       2.0898    2.5310   -1.1713   C.3       1 RES1   0.0000
    86 O5        1.2730    2.2106   -0.0535   O.3       1 RES1   0.0000
    87 C34       1.7166    2.7185    1.2070   C.3       1 RES1   0.0000
    88 C35       2.1437    1.5064    2.0650   C.2       1 RES1   0.0000
    89 O6        1.6142    0.4124    1.7883   O.2       1 RES1   0.0000
    90 N4        3.0265    1.6582    3.0382   N.am      1 RES1   0.0000
    91 C36       3.4719    0.5061    3.8032   C.3       1 RES1   0.0000
    92 C37       3.6348    2.9396    3.3652   C.3       1 RES1   0.0000
    93 C38       4.7737    3.3355    2.4160   C.3       1 RES1   0.0000
    94 C39       5.2128    4.7814    2.6590   C.3       1 RES1   0.0000
    95 C40       6.2028    5.2901    1.6126   C.3       1 RES1   0.0000
    96 C41       5.6794    5.3821    0.1787   C.3       1 RES1   0.0000
    97 C42       4.6409    6.4863   -0.0542   C.3       1 RES1   0.0000
    98 C43       3.1853    6.0524    0.1226   C.3       1 RES1   0.0000
    99 C44       2.2108    7.1510   -0.2806   C.3       1 RES1   0.0000
   100 H45       6.8754   -1.5825   -3.1249   H         1 RES1   0.0000
   101 H46       7.7328   -1.8080   -4.6438   H         1 RES1   0.0000
   102 H47       6.6954   -0.4111   -4.4287   H         1 RES1   0.0000
   103 H48       5.8163   -3.3329   -4.4990   H         1 RES1   0.0000
   104 H49       4.7157   -1.9733   -4.2522   H         1 RES1   0.0000
   105 H50       6.4007   -2.4910   -6.7321   H         1 RES1   0.0000
   106 H51       4.7103   -2.9296   -6.5650   H         1 RES1   0.0000
   107 H52       5.1699   -0.0584   -5.9928   H         1 RES1   0.0000
   108 H53       5.7106   -0.5102   -7.5900   H         1 RES1   0.0000
   109 H54       3.4718    0.1883   -7.8461   H         1 RES1   0.0000
   110 H55       3.5070   -1.5511   -8.0584   H         1 RES1   0.0000
   111 H56       1.5841   -1.1481   -6.8108   H         1 RES1   0.0000
   112 H57       2.7306   -1.7660   -5.6332   H         1 RES1   0.0000
   113 H58       2.5521    1.2102   -6.0104   H         1 RES1   0.0000
   114 H59       1.2061    0.4303   -5.1793   H         1 RES1   0.0000
   115 H60       2.7405   -0.5882   -3.5366   H         1 RES1   0.0000
   116 H61       4.1201    0.2156   -4.3240   H         1 RES1   0.0000
   117 H62       3.3003    2.8744   -4.6860   H         1 RES1   0.0000
   118 H63       3.3923    3.4837   -3.0281   H         1 RES1   0.0000
   119 H64       4.6615    2.4252   -3.6659   H         1 RES1   0.0000
   120 H65       3.1122    2.7570   -0.8495   H         1 RES1   0.0000
   121 H66       1.6542    3.3949   -1.6947   H         1 RES1   0.0000
   122 H67       2.4975    3.4653    1.0699   H         1 RES1   0.0000
   123 H68       0.8561    3.2137    1.6796   H         1 RES1   0.0000
   124 H69       2.9830   -0.3821    3.4075   H         1 RES1   0.0000
   125 H70       4.5561    0.4166    3.7221   H         1 RES1   0.0000
   126 H71       3.1952    0.6332    4.8496   H         1 RES1   0.0000
   127 H72       2.8610    3.7116    3.3781   H         1 RES1   0.0000
   128 H73       4.0204    2.8685    4.3811   H         1 RES1   0.0000
   129 H74       5.6248    2.6674    2.5532   H         1 RES1   0.0000
   130 H75       4.4447    3.2221    1.3822   H         1 RES1   0.0000
   131 H76       4.3417    5.4361    2.6783   H         1 RES1   0.0000
   132 H77       5.6818    4.8443    3.6418   H         1 RES1   0.0000
   133 H78       6.5287    6.2833    1.9182   H         1 RES1   0.0000
   134 H79       7.0794    4.6437    1.6199   H         1 RES1   0.0000
   135 H80       6.5393    5.5940   -0.4574   H         1 RES1   0.0000
   136 H81       5.2799    4.4183   -0.1498   H         1 RES1   0.0000
   137 H82       4.8496    7.3222    0.6134   H         1 RES1   0.0000
   138 H83       4.7471    6.8568   -1.0759   H         1 RES1   0.0000
   139 H84       3.0042    5.1724   -0.5043   H         1 RES1   0.0000
   140 H85       2.9905    5.7776    1.1609   H         1 RES1   0.0000
   141 H86       2.3423    7.4090   -1.3261   H         1 RES1   0.0000
   142 H87       1.1808    6.8366   -0.1298   H         1 RES1   0.0000
   143 H88       2.3807    8.0456    0.3077   H         1 RES1   0.0000
   144 C45      -5.4779    3.7877   -0.5797   C.3       1 RES1   0.0000
   145 C46      -5.5346    2.9360   -1.8408   C.3       1 RES1   0.0000
   146 C47      -6.9149    2.3514   -2.1495   C.3       1 RES1   0.0000
   147 C48      -7.3881    1.2902   -1.1512   C.3       1 RES1   0.0000
   148 C49      -6.7195   -0.0811   -1.3488   C.3       1 RES1   0.0000
   149 C50      -6.2369   -0.7279   -0.0409   C.3       1 RES1   0.0000
   150 C51      -5.3466   -1.9485   -0.3094   C.3       1 RES1   0.0000
   151 C52      -4.7623   -2.6842    0.9124   C.3       1 RES1   0.0000
   152 N5       -3.6537   -2.0033    1.5906   N.am      1 RES1   0.0000
   153 C53      -3.8832   -1.4994    2.9448   C.3       1 RES1   0.0000
   154 C54      -2.4100   -1.9099    1.1146   C.2       1 RES1   0.0000
   155 O7       -1.5262   -1.2151    1.6496   O.2       1 RES1   0.0000
   156 C55      -1.9894   -2.7273   -0.1153   C.3       1 RES1   0.0000
   157 O8       -0.8689   -2.0700   -0.6997   O.3       1 RES1   0.0000
   158 C56       0.0097   -2.9106   -1.4487   C.3       1 RES1   0.0000
   159 C57       1.4654   -2.6946   -0.9852   C.2       1 RES1   0.0000
   160 O9        1.6650   -1.8097   -0.1347   O.2       1 RES1   0.0000
   161 N6        2.4415   -3.4041   -1.5393   N.am      1 RES1   0.0000
   162 C58       3.8203   -3.1223   -1.1546   C.3       1 RES1   0.0000
   163 C59       2.2571   -4.4861   -2.5039   C.3       1 RES1   0.0000
   164 C60       2.9504   -4.2328   -3.8494   C.3       1 RES1   0.0000
   165 C61       2.5000   -5.1763   -4.9712   C.3       1 RES1   0.0000
   166 C62       2.7077   -6.6634   -4.6835   C.3       1 RES1   0.0000
   167 C63       1.5687   -7.3279   -3.8940   C.3       1 RES1   0.0000
   168 C64       2.0776   -8.1672   -2.7212   C.3       1 RES1   0.0000
   169 C65       0.9817   -8.5360   -1.7237   C.3       1 RES1   0.0000
   170 C66       1.5472   -9.2894   -0.5271   C.3       1 RES1   0.0000
   171 H89      -4.4582    4.1114   -0.3681   H         1 RES1   0.0000
   172 H90      -6.0957    4.6700   -0.7035   H         1 RES1   0.0000
   173 H91      -5.8474    3.2376    0.2805   H         1 RES1   0.0000
   174 H92      -5.2148    3.5491   -2.6870   H         1 RES1   0.0000
   175 H93      -4.8208    2.1180   -1.7433   H         1 RES1   0.0000
   176 H94      -7.6319    3.1702   -2.1648   H         1 RES1   0.0000
   177 H95      -6.8937    1.9195   -3.1533   H         1 RES1   0.0000
   178 H96      -7.2095    1.6507   -0.1371   H         1 RES1   0.0000
   179 H97      -8.4643    1.1839   -1.2684   H         1 RES1   0.0000
   180 H98      -7.4097   -0.7627   -1.8454   H         1 RES1   0.0000
   181 H99      -5.8723    0.0310   -2.0293   H         1 RES1   0.0000
   182 H100     -5.6911    0.0191    0.5370   H         1 RES1   0.0000
   183 H101     -7.1016   -1.0201    0.5576   H         1 RES1   0.0000
   184 H102     -5.9622   -2.6818   -0.8312   H         1 RES1   0.0000
   185 H103     -4.5276   -1.6603   -0.9699   H         1 RES1   0.0000
   186 H104     -5.5579   -2.8233    1.6434   H         1 RES1   0.0000
   187 H105     -4.4479   -3.6770    0.5790   H         1 RES1   0.0000
   188 H106     -4.9345   -1.5842    3.1992   H         1 RES1   0.0000
   189 H107     -3.3104   -2.0812    3.6727   H         1 RES1   0.0000
   190 H108     -3.5852   -0.4545    3.0198   H         1 RES1   0.0000
   191 H109     -1.7074   -3.7168    0.2699   H         1 RES1   0.0000
   192 H110     -2.7877   -2.8257   -0.8563   H         1 RES1   0.0000
   193 H111     -0.2888   -3.9554   -1.3553   H         1 RES1   0.0000
   194 H112     -0.0476   -2.5858   -2.4956   H         1 RES1   0.0000
   195 H113      3.9131   -3.0846   -0.0696   H         1 RES1   0.0000
   196 H114      4.4683   -3.9020   -1.5439   H         1 RES1   0.0000
   197 H115      4.1410   -2.1664   -1.5724   H         1 RES1   0.0000
   198 H116      2.6584   -5.4052   -2.0703   H         1 RES1   0.0000
   199 H117      1.1915   -4.6185   -2.6690   H         1 RES1   0.0000
   200 H118      2.7392   -3.2041   -4.1531   H         1 RES1   0.0000
   201 H119      4.0318   -4.3310   -3.7463   H         1 RES1   0.0000
   202 H120      1.4576   -4.9870   -5.2181   H         1 RES1   0.0000
   203 H121      3.0869   -4.9061   -5.8503   H         1 RES1   0.0000
   204 H122      2.8293   -7.1647   -5.6404   H         1 RES1   0.0000
   205 H123      3.6490   -6.7879   -4.1503   H         1 RES1   0.0000
   206 H124      0.8806   -6.5692   -3.5158   H         1 RES1   0.0000
   207 H125      0.9872   -7.9661   -4.5579   H         1 RES1   0.0000
   208 H126      2.5481   -9.0756   -3.0961   H         1 RES1   0.0000
   209 H127      2.8526   -7.6154   -2.1834   H         1 RES1   0.0000
   210 H128      0.4981   -7.6178   -1.3736   H         1 RES1   0.0000
   211 H129      0.2216   -9.1413   -2.2196   H         1 RES1   0.0000
   212 H130      2.2837   -8.6834   -0.0044   H         1 RES1   0.0000
   213 H131      0.7606   -9.5492    0.1742   H         1 RES1   0.0000
   214 H132      2.0296  -10.2056   -0.8499   H         1 RES1   0.0000
@<TRIPOS>BOND
     1     1    13    1
     2     1    15    1
     3     1    18    1
     4     1    84    1
     5     1    86    1
     6     1    89    1
     7     1   155    1
     8     1   157    1
     9     1   160    1
    10     2     3    1
    11     2    29    1
    12     2    30    1
    13     2    31    1
    14     3     4    1
    15     3    32    1
    16     3    33    1
    17     4     5    1
    18     4    34    1
    19     4    35    1
    20     5     6    1
    21     5    36    1
    22     5    37    1
    23     6     7    1
    24     6    38    1
    25     6    39    1
    26     7     8    1
    27     7    40    1
    28     7    41    1
    29     8     9    1
    30     8    42    1
    31     8    43    1
    32     9    10    1
    33     9    44    1
    34     9    45    1
    35    10    11    1
    36    10    12    1
    37    11    46    1
    38    11    47    1
    39    11    48    1
    40    12    13    2
    41    12    14    1
    42    14    15    1
    43    14    49    1
    44    14    50    1
    45    15    16    1
    46    16    17    1
    47    16    51    1
    48    16    52    1
    49    17    18    2
    50    17    19    1
    51    19    20    1
    52    19    21    1
    53    20    53    1
    54    20    54    1
    55    20    55    1
    56    21    22    1
    57    21    56    1
    58    21    57    1
    59    22    23    1
    60    22    58    1
    61    22    59    1
    62    23    24    1
    63    23    60    1
    64    23    61    1
    65    24    25    1
    66    24    62    1
    67    24    63    1
    68    25    26    1
    69    25    64    1
    70    25    65    1
    71    26    27    1
    72    26    66    1
    73    26    67    1
    74    27    28    1
    75    27    68    1
    76    27    69    1
    77    28    70    1
    78    28    71    1
    79    28    72    1
    80    73    74    1
    81    73   100    1
    82    73   101    1
    83    73   102    1
    84    74    75    1
    85    74   103    1
    86    74   104    1
    87    75    76    1
    88    75   105    1
    89    75   106    1
    90    76    77    1
    91    76   107    1
    92    76   108    1
    93    77    78    1
    94    77   109    1
    95    77   110    1
    96    78    79    1
    97    78   111    1
    98    78   112    1
    99    79    80    1
   100    79   113    1
   101    79   114    1
   102    80    81    1
   103    80   115    1
   104    80   116    1
   105    81    82    1
   106    81    83    1
   107    82   117    1
   108    82   118    1
   109    82   119    1
   110    83    84    2
   111    83    85    1
   112    85    86    1
   113    85   120    1
   114    85   121    1
   115    86    87    1
   116    87    88    1
   117    87   122    1
   118    87   123    1
   119    88    89    2
   120    88    90    1
   121    90    91    1
   122    90    92    1
   123    91   124    1
   124    91   125    1
   125    91   126    1
   126    92    93    1
   127    92   127    1
   128    92   128    1
   129    93    94    1
   130    93   129    1
   131    93   130    1
   132    94    95    1
   133    94   131    1
   134    94   132    1
   135    95    96    1
   136    95   133    1
   137    95   134    1
   138    96    97    1
   139    96   135    1
   140    96   136    1
   141    97    98    1
   142    97   137    1
   143    97   138    1
   144    98    99    1
   145    98   139    1
   146    98   140    1
   147    99   141    1
   148    99   142    1
   149    99   143    1
   150   144   145    1
   151   144   171    1
   152   144   172    1
   153   144   173    1
   154   145   146    1
   155   145   174    1
   156   145   175    1
   157   146   147    1
   158   146   176    1
   159   146   177    1
   160   147   148    1
   161   147   178    1
   162   147   179    1
   163   148   149    1
   164   148   180    1
   165   148   181    1
   166   149   150    1
   167   149   182    1
   168   149   183    1
   169   150   151    1
   170   150   184    1
   171   150   185    1
   172   151   152    1
   173   151   186    1
   174   151   187    1
   175   152   153    1
   176   152   154    1
   177   153   188    1
   178   153   189    1
   179   153   190    1
   180   154   155    2
   181   154   156    1
   182   156   157    1
   183   156   191    1
   184   156   192    1
   185   157   158    1
   186   158   159    1
   187   158   193    1
   188   158   194    1
   189   159   160    2
   190   159   161    1
   191   161   162    1
   192   161   163    1
   193   162   195    1
   194   162   196    1
   195   162   197    1
   196   163   164    1
   197   163   198    1
   198   163   199    1
   199   164   165    1
   200   164   200    1
   201   164   201    1
   202   165   166    1
   203   165   202    1
   204   165   203    1
   205   166   167    1
   206   166   204    1
   207   166   205    1
   208   167   168    1
   209   167   206    1
   210   167   207    1
   211   168   169    1
   212   168   208    1
   213   168   209    1
   214   169   170    1
   215   169   210    1
   216   169   211    1
   217   170   212    1
   218   170   213    1
   219   170   214    1
@<TRIPOS>SUBSTRUCTURE
     1 RES1      214 GROUP             0 ****  ****    0  
