@<TRIPOS>MOLECULE
tri_tri_mer_capped_0_nunpairedes_0_charge_3 Charge: 3 Unpaired_Electrons: 3 XTB_Unpaired_Electrons: 0 XTB_Charge: 3
   260   263     1     0     0
SMALL
NoCharges
****
Generated from Architector

@<TRIPOS>ATOM
     1 Nd1       0.0080   -0.0754   -0.1833   Nd        1 RES1   0.0000
     2 C1       -0.4395    3.4761   -6.9010   C.3       1 RES1   0.0000
     3 C2       -0.2453    4.4176   -5.7186   C.3       1 RES1   0.0000
     4 C3        0.1242    3.6904   -4.4199   C.3       1 RES1   0.0000
     5 C4       -1.0767    3.2111   -3.5904   C.3       1 RES1   0.0000
     6 N1       -1.6262    1.9615   -4.0956   N.am      1 RES1   0.0000
     7 C5       -2.8787    2.0368   -4.8360   C.3       1 RES1   0.0000
     8 C6       -4.0634    1.7208   -3.9032   C.3       1 RES1   0.0000
     9 C7       -5.2943    2.5791   -4.1902   C.3       1 RES1   0.0000
    10 C8       -5.9977    2.1714   -5.4756   C.3       1 RES1   0.0000
    11 C9       -1.1991    0.8106   -3.5586   C.2       1 RES1   0.0000
    12 O1       -0.6069    0.7475   -2.4652   O.2       1 RES1   0.0000
    13 C10      -1.3957   -0.4635   -4.3429   C.3       1 RES1   0.0000
    14 C11      -2.2136   -1.4600   -3.5083   C.3       1 RES1   0.0000
    15 C12      -1.3180   -2.5047   -2.8536   C.2       1 RES1   0.0000
    16 O2       -0.6107   -2.1596   -1.8922   O.2       1 RES1   0.0000
    17 N2       -1.3462   -3.7361   -3.3870   N.am      1 RES1   0.0000
    18 C13      -0.9666   -4.9717   -2.6996   C.3       1 RES1   0.0000
    19 C14      -0.0939   -4.9191   -1.4563   C.3       1 RES1   0.0000
    20 C15      -0.1774   -6.2912   -0.7784   C.3       1 RES1   0.0000
    21 C16       0.7413   -6.4113    0.4268   C.3       1 RES1   0.0000
    22 C17      -2.0418   -4.0616   -4.6389   C.3       1 RES1   0.0000
    23 C18      -1.4908   -3.4029   -5.9121   C.3       1 RES1   0.0000
    24 C19       0.0363   -3.3630   -5.9770   C.3       1 RES1   0.0000
    25 C20       0.6806   -4.7411   -6.0417   C.3       1 RES1   0.0000
    26 H1       -0.6959    4.0458   -7.7887   H         1 RES1   0.0000
    27 H2       -1.2295    2.7549   -6.7201   H         1 RES1   0.0000
    28 H3        0.4779    2.9298   -7.1059   H         1 RES1   0.0000
    29 H4       -1.1463    5.0171   -5.5660   H         1 RES1   0.0000
    30 H5        0.5595    5.1106   -5.9692   H         1 RES1   0.0000
    31 H6        0.7045    4.3710   -3.7938   H         1 RES1   0.0000
    32 H7        0.7638    2.8361   -4.6567   H         1 RES1   0.0000
    33 H8       -1.8549    3.9732   -3.6023   H         1 RES1   0.0000
    34 H9       -0.7552    3.0431   -2.5645   H         1 RES1   0.0000
    35 H10      -2.8771    1.3684   -5.6955   H         1 RES1   0.0000
    36 H11      -2.9715    3.0530   -5.2144   H         1 RES1   0.0000
    37 H12      -3.7447    1.8860   -2.8710   H         1 RES1   0.0000
    38 H13      -4.3391    0.6693   -3.9932   H         1 RES1   0.0000
    39 H14      -5.0068    3.6304   -4.2425   H         1 RES1   0.0000
    40 H15      -5.9913    2.4789   -3.3578   H         1 RES1   0.0000
    41 H16      -5.3551    2.2988   -6.3412   H         1 RES1   0.0000
    42 H17      -6.8848    2.7777   -5.6241   H         1 RES1   0.0000
    43 H18      -6.3062    1.1308   -5.4269   H         1 RES1   0.0000
    44 H19      -0.3937   -0.8686   -4.5197   H         1 RES1   0.0000
    45 H20      -1.8471   -0.2789   -5.3106   H         1 RES1   0.0000
    46 H21      -2.9956   -1.9034   -4.1145   H         1 RES1   0.0000
    47 H22      -2.6809   -0.9158   -2.6815   H         1 RES1   0.0000
    48 H23      -0.4473   -5.6007   -3.4296   H         1 RES1   0.0000
    49 H24      -1.9118   -5.4745   -2.4461   H         1 RES1   0.0000
    50 H25      -0.4144   -4.1381   -0.7669   H         1 RES1   0.0000
    51 H26       0.9353   -4.7083   -1.7510   H         1 RES1   0.0000
    52 H27       0.0852   -7.0708   -1.4968   H         1 RES1   0.0000
    53 H28      -1.2085   -6.4705   -0.4641   H         1 RES1   0.0000
    54 H29       1.7741   -6.2594    0.1245   H         1 RES1   0.0000
    55 H30       0.6518   -7.4054    0.8539   H         1 RES1   0.0000
    56 H31       0.4803   -5.6711    1.1856   H         1 RES1   0.0000
    57 H32      -3.1151   -3.8702   -4.5558   H         1 RES1   0.0000
    58 H33      -1.9309   -5.1380   -4.7656   H         1 RES1   0.0000
    59 H34      -1.8764   -2.3919   -6.0385   H         1 RES1   0.0000
    60 H35      -1.8729   -3.9890   -6.7507   H         1 RES1   0.0000
    61 H36       0.4195   -2.8185   -5.1092   H         1 RES1   0.0000
    62 H37       0.3217   -2.8030   -6.8682   H         1 RES1   0.0000
    63 H38       0.5777   -5.2775   -5.1038   H         1 RES1   0.0000
    64 H39       1.7409   -4.6463   -6.2571   H         1 RES1   0.0000
    65 H40       0.2239   -5.3340   -6.8269   H         1 RES1   0.0000
    66 C21       6.4836   -0.8113    2.6237   C.3       1 RES1   0.0000
    67 C22       5.5348    0.3498    2.3420   C.3       1 RES1   0.0000
    68 C23       5.7775    0.9259    0.9361   C.3       1 RES1   0.0000
    69 C24       4.5647    0.8714   -0.0040   C.3       1 RES1   0.0000
    70 N3        3.8371    2.1320   -0.0327   N.am      1 RES1   0.0000
    71 C25       4.4918    3.1882   -0.7870   C.3       1 RES1   0.0000
    72 C26       4.3322    2.9621   -2.2963   C.3       1 RES1   0.0000
    73 C27       5.3122    3.7795   -3.1351   C.3       1 RES1   0.0000
    74 C28       5.0267    5.2737   -3.1103   C.3       1 RES1   0.0000
    75 C29       2.5879    2.1850    0.4409   C.2       1 RES1   0.0000
    76 O3        1.9536    1.1581    0.7582   O.2       1 RES1   0.0000
    77 C30       1.9686    3.5424    0.7219   C.3       1 RES1   0.0000
    78 C31       1.0458    4.0751   -0.3877   C.3       1 RES1   0.0000
    79 C32      -0.3506    3.4825   -0.2842   C.2       1 RES1   0.0000
    80 O4       -0.4827    2.2465   -0.2315   O.2       1 RES1   0.0000
    81 N4       -1.4156    4.2979   -0.3215   N.am      1 RES1   0.0000
    82 C33      -2.7353    3.6937   -0.5050   C.3       1 RES1   0.0000
    83 C34      -3.8288    4.1359    0.4833   C.3       1 RES1   0.0000
    84 C35      -4.4173    2.9488    1.2495   C.3       1 RES1   0.0000
    85 C36      -5.7012    3.3217    1.9805   C.3       1 RES1   0.0000
    86 C37      -1.3375    5.7419   -0.5335   C.3       1 RES1   0.0000
    87 C38      -0.8550    6.5633    0.6803   C.3       1 RES1   0.0000
    88 C39      -2.0007    7.2705    1.4121   C.3       1 RES1   0.0000
    89 C40      -1.5037    8.3640    2.3501   C.3       1 RES1   0.0000
    90 H41       6.3662   -1.1925    3.6351   H         1 RES1   0.0000
    91 H42       7.5115   -0.4685    2.5201   H         1 RES1   0.0000
    92 H43       6.3136   -1.6286    1.9228   H         1 RES1   0.0000
    93 H44       4.4945    0.0345    2.4603   H         1 RES1   0.0000
    94 H45       5.7243    1.1179    3.0872   H         1 RES1   0.0000
    95 H46       6.6048    0.3933    0.4635   H         1 RES1   0.0000
    96 H47       6.1064    1.9595    1.0393   H         1 RES1   0.0000
    97 H48       3.8626    0.1002    0.3078   H         1 RES1   0.0000
    98 H49       4.9038    0.6357   -1.0128   H         1 RES1   0.0000
    99 H50       5.5535    3.1719   -0.5390   H         1 RES1   0.0000
   100 H51       4.0912    4.1609   -0.5144   H         1 RES1   0.0000
   101 H52       3.3058    3.1926   -2.5856   H         1 RES1   0.0000
   102 H53       4.5130    1.9114   -2.5183   H         1 RES1   0.0000
   103 H54       5.2516    3.4302   -4.1678   H         1 RES1   0.0000
   104 H55       6.3326    3.5931   -2.7936   H         1 RES1   0.0000
   105 H56       4.0648    5.4942   -3.5693   H         1 RES1   0.0000
   106 H57       5.7986    5.7974   -3.6650   H         1 RES1   0.0000
   107 H58       5.0192    5.6669   -2.0982   H         1 RES1   0.0000
   108 H59       2.7490    4.2711    0.9356   H         1 RES1   0.0000
   109 H60       1.3711    3.4087    1.6260   H         1 RES1   0.0000
   110 H61       1.4363    3.7627   -1.3603   H         1 RES1   0.0000
   111 H62       1.0305    5.1585   -0.3356   H         1 RES1   0.0000
   112 H63      -2.5955    2.6105   -0.4239   H         1 RES1   0.0000
   113 H64      -3.0606    3.9266   -1.5253   H         1 RES1   0.0000
   114 H65      -4.6356    4.6331   -0.0585   H         1 RES1   0.0000
   115 H66      -3.4315    4.8569    1.1950   H         1 RES1   0.0000
   116 H67      -3.6747    2.5812    1.9610   H         1 RES1   0.0000
   117 H68      -4.6342    2.1429    0.5437   H         1 RES1   0.0000
   118 H69      -5.5120    4.0907    2.7240   H         1 RES1   0.0000
   119 H70      -6.1256    2.4558    2.4834   H         1 RES1   0.0000
   120 H71      -6.4408    3.6997    1.2783   H         1 RES1   0.0000
   121 H72      -2.3432    6.0758   -0.7922   H         1 RES1   0.0000
   122 H73      -0.7004    5.9377   -1.4017   H         1 RES1   0.0000
   123 H74      -0.1573    7.3258    0.3284   H         1 RES1   0.0000
   124 H75      -0.3222    5.9195    1.3827   H         1 RES1   0.0000
   125 H76      -2.5732    6.5425    1.9891   H         1 RES1   0.0000
   126 H77      -2.6705    7.7278    0.6801   H         1 RES1   0.0000
   127 H78      -0.8365    7.9684    3.1124   H         1 RES1   0.0000
   128 H79      -2.3486    8.8352    2.8456   H         1 RES1   0.0000
   129 H80      -0.9707    9.1296    1.7913   H         1 RES1   0.0000
   130 C41       3.7164    3.0997    5.3654   C.3       1 RES1   0.0000
   131 C42       2.9366    2.3171    4.3132   C.3       1 RES1   0.0000
   132 C43       2.5616    0.9059    4.7866   C.3       1 RES1   0.0000
   133 C44       1.6700    0.1618    3.7703   C.3       1 RES1   0.0000
   134 N5        2.1732   -1.1747    3.4636   N.am      1 RES1   0.0000
   135 C45       2.0786   -2.1271    4.5715   C.3       1 RES1   0.0000
   136 C46       0.6679   -2.7350    4.5699   C.3       1 RES1   0.0000
   137 C47       0.4396   -3.8469    5.5898   C.3       1 RES1   0.0000
   138 C48       0.9792   -5.1884    5.1131   C.3       1 RES1   0.0000
   139 C49       1.9246   -1.6560    2.2077   C.2       1 RES1   0.0000
   140 O5        0.9952   -1.2342    1.5117   O.2       1 RES1   0.0000
   141 C50       2.9454   -2.6535    1.6878   C.3       1 RES1   0.0000
   142 C51       2.5723   -3.3857    0.3900   C.3       1 RES1   0.0000
   143 C52       2.5830   -2.5744   -0.8970   C.2       1 RES1   0.0000
   144 O6        2.0355   -1.4515   -0.9263   O.2       1 RES1   0.0000
   145 N6        3.0867   -3.1012   -2.0229   N.am      1 RES1   0.0000
   146 C53       2.6562   -2.5504   -3.3079   C.3       1 RES1   0.0000
   147 C54       3.7543   -2.0609   -4.2519   C.3       1 RES1   0.0000
   148 C55       4.3916   -0.7223   -3.8926   C.3       1 RES1   0.0000
   149 C56       5.4265   -0.3270   -4.9398   C.3       1 RES1   0.0000
   150 C57       3.7863   -4.3791   -2.1061   C.3       1 RES1   0.0000
   151 C58       5.2103   -4.3665   -1.5382   C.3       1 RES1   0.0000
   152 C59       6.2617   -3.7981   -2.4932   C.3       1 RES1   0.0000
   153 C60       7.6749   -4.1315   -2.0324   C.3       1 RES1   0.0000
   154 H81       3.9489    4.0999    5.0068   H         1 RES1   0.0000
   155 H82       4.6475    2.5960    5.6091   H         1 RES1   0.0000
   156 H83       3.1412    3.2091    6.2811   H         1 RES1   0.0000
   157 H84       3.5266    2.2484    3.3973   H         1 RES1   0.0000
   158 H85       2.0296    2.8717    4.0745   H         1 RES1   0.0000
   159 H86       2.0394    0.9844    5.7434   H         1 RES1   0.0000
   160 H87       3.4789    0.3403    4.9604   H         1 RES1   0.0000
   161 H88       1.6513    0.7070    2.8259   H         1 RES1   0.0000
   162 H89       0.6394    0.1067    4.1315   H         1 RES1   0.0000
   163 H90       2.2528   -1.5848    5.4999   H         1 RES1   0.0000
   164 H91       2.8427   -2.8965    4.4787   H         1 RES1   0.0000
   165 H92       0.4621   -3.1229    3.5677   H         1 RES1   0.0000
   166 H93      -0.0478   -1.9345    4.7602   H         1 RES1   0.0000
   167 H94      -0.6352   -3.9427    5.7587   H         1 RES1   0.0000
   168 H95       0.8985   -3.5758    6.5402   H         1 RES1   0.0000
   169 H96       0.5440   -5.4490    4.1499   H         1 RES1   0.0000
   170 H97       0.7224   -5.9660    5.8254   H         1 RES1   0.0000
   171 H98       2.0604   -5.1727    5.0077   H         1 RES1   0.0000
   172 H99       3.1492   -3.3992    2.4569   H         1 RES1   0.0000
   173 H100      3.8592   -2.0701    1.5454   H         1 RES1   0.0000
   174 H101      1.5279   -3.6964    0.4902   H         1 RES1   0.0000
   175 H102      3.1973   -4.2704    0.3090   H         1 RES1   0.0000
   176 H103      1.9443   -1.7492   -3.0958   H         1 RES1   0.0000
   177 H104      2.1192   -3.3574   -3.8183   H         1 RES1   0.0000
   178 H105      3.3054   -1.9632   -5.2429   H         1 RES1   0.0000
   179 H106      4.5297   -2.8199   -4.3250   H         1 RES1   0.0000
   180 H107      4.8637   -0.7774   -2.9091   H         1 RES1   0.0000
   181 H108      3.6129    0.0423   -3.8548   H         1 RES1   0.0000
   182 H109      6.2325   -1.0535   -4.9769   H         1 RES1   0.0000
   183 H110      5.8603    0.6433   -4.7187   H         1 RES1   0.0000
   184 H111      4.9666   -0.2776   -5.9231   H         1 RES1   0.0000
   185 H112      3.8374   -4.6460   -3.1632   H         1 RES1   0.0000
   186 H113      3.1900   -5.1540   -1.6148   H         1 RES1   0.0000
   187 H114      5.4771   -5.3987   -1.3123   H         1 RES1   0.0000
   188 H115      5.2303   -3.8056   -0.6043   H         1 RES1   0.0000
   189 H116      6.1525   -2.7145   -2.5582   H         1 RES1   0.0000
   190 H117      6.1209   -4.2194   -3.4916   H         1 RES1   0.0000
   191 H118      7.8627   -3.7390   -1.0377   H         1 RES1   0.0000
   192 H119      8.4020   -3.6944   -2.7097   H         1 RES1   0.0000
   193 H120      7.8313   -5.2071   -2.0096   H         1 RES1   0.0000
   194 C61      -3.3025    4.7906    4.7406   C.3       1 RES1   0.0000
   195 C62      -1.7793    4.8627    4.7572   C.3       1 RES1   0.0000
   196 C63      -1.1118    4.1176    3.5942   C.3       1 RES1   0.0000
   197 C64      -0.6579    2.6806    3.8761   C.3       1 RES1   0.0000
   198 N7       -1.7374    1.7083    3.9795   N.am      1 RES1   0.0000
   199 C65      -2.2601    1.5334    5.3337   C.3       1 RES1   0.0000
   200 C66      -1.4442    0.4927    6.1228   C.3       1 RES1   0.0000
   201 C67      -1.2622    0.8526    7.5992   C.3       1 RES1   0.0000
   202 C68      -2.5320    0.6981    8.4219   C.3       1 RES1   0.0000
   203 C69      -1.9520    0.8890    2.9400   C.2       1 RES1   0.0000
   204 O7       -1.2352    0.8849    1.9246   O.2       1 RES1   0.0000
   205 C70      -3.1474   -0.0446    2.9910   C.3       1 RES1   0.0000
   206 C71      -2.7001   -1.5109    2.8461   C.3       1 RES1   0.0000
   207 C72      -2.8130   -1.9973    1.4118   C.2       1 RES1   0.0000
   208 O8       -1.9977   -1.5969    0.5571   O.2       1 RES1   0.0000
   209 N8       -3.7714   -2.8880    1.1257   N.am      1 RES1   0.0000
   210 C73      -3.6567   -3.6919   -0.0866   C.3       1 RES1   0.0000
   211 C74      -4.4094   -3.1664   -1.3167   C.3       1 RES1   0.0000
   212 C75      -5.1752   -4.2644   -2.0559   C.3       1 RES1   0.0000
   213 C76      -5.8589   -3.7145   -3.3004   C.3       1 RES1   0.0000
   214 C77      -4.8765   -3.2343    2.0217   C.3       1 RES1   0.0000
   215 C78      -5.8648   -2.1002    2.3303   C.3       1 RES1   0.0000
   216 C79      -6.7169   -1.6530    1.1399   C.3       1 RES1   0.0000
   217 C80      -7.7331   -2.6986    0.6939   C.3       1 RES1   0.0000
   218 H121     -3.7036    5.1589    5.6803   H         1 RES1   0.0000
   219 H122     -3.6659    3.7779    4.5915   H         1 RES1   0.0000
   220 H123     -3.7026    5.4133    3.9433   H         1 RES1   0.0000
   221 H124     -1.3911    4.4830    5.7027   H         1 RES1   0.0000
   222 H125     -1.4982    5.9153    4.7135   H         1 RES1   0.0000
   223 H126     -0.2070    4.6624    3.3201   H         1 RES1   0.0000
   224 H127     -1.7702    4.1089    2.7260   H         1 RES1   0.0000
   225 H128     -0.0767    2.6478    4.7989   H         1 RES1   0.0000
   226 H129     -0.0294    2.3517    3.0449   H         1 RES1   0.0000
   227 H130     -3.3183    1.2803    5.3237   H         1 RES1   0.0000
   228 H131     -2.1693    2.4952    5.8330   H         1 RES1   0.0000
   229 H132     -0.4492    0.4409    5.6776   H         1 RES1   0.0000
   230 H133     -1.8998   -0.4971    6.0447   H         1 RES1   0.0000
   231 H134     -0.8912    1.8772    7.6832   H         1 RES1   0.0000
   232 H135     -0.4937    0.1972    8.0120   H         1 RES1   0.0000
   233 H136     -3.3310    1.3259    8.0390   H         1 RES1   0.0000
   234 H137     -2.3399    0.9878    9.4500   H         1 RES1   0.0000
   235 H138     -2.8740   -0.3335    8.4215   H         1 RES1   0.0000
   236 H139     -3.7815    0.2250    2.1425   H         1 RES1   0.0000
   237 H140     -3.7248    0.0820    3.8995   H         1 RES1   0.0000
   238 H141     -3.2636   -2.1428    3.5274   H         1 RES1   0.0000
   239 H142     -1.6418   -1.5876    3.1084   H         1 RES1   0.0000
   240 H143     -4.0284   -4.6880    0.1598   H         1 RES1   0.0000
   241 H144     -2.5931   -3.7789   -0.3147   H         1 RES1   0.0000
   242 H145     -3.6947   -2.7132   -1.9975   H         1 RES1   0.0000
   243 H146     -5.1142   -2.3879   -1.0279   H         1 RES1   0.0000
   244 H147     -5.9256   -4.6984   -1.3937   H         1 RES1   0.0000
   245 H148     -4.4954   -5.0713   -2.3386   H         1 RES1   0.0000
   246 H149     -6.6164   -2.9835   -3.0375   H         1 RES1   0.0000
   247 H150     -6.3452   -4.5167   -3.8439   H         1 RES1   0.0000
   248 H151     -5.1398   -3.2265   -3.9571   H         1 RES1   0.0000
   249 H152     -4.4908   -3.6366    2.9653   H         1 RES1   0.0000
   250 H153     -5.4324   -4.0332    1.5334   H         1 RES1   0.0000
   251 H154     -5.3370   -1.2363    2.7287   H         1 RES1   0.0000
   252 H155     -6.5313   -2.4657    3.1138   H         1 RES1   0.0000
   253 H156     -6.0668   -1.3844    0.3050   H         1 RES1   0.0000
   254 H157     -7.2558   -0.7491    1.4302   H         1 RES1   0.0000
   255 H158     -7.2547   -3.5901    0.2953   H         1 RES1   0.0000
   256 H159     -8.3765   -2.2872   -0.0805   H         1 RES1   0.0000
   257 H160     -8.3598   -2.9971    1.5306   H         1 RES1   0.0000
   258 O9        1.9277    0.9732   -1.9873   O.3       1 RES1   0.0000
   259 H161      1.5992    1.0387   -2.8932   H         1 RES1   0.0000
   260 H162      2.3940    0.1214   -1.9113   H         1 RES1   0.0000
@<TRIPOS>BOND
     1     1    12    1
     2     1    16    1
     3     1    76    1
     4     1    80    1
     5     1   140    1
     6     1   144    1
     7     1   204    1
     8     1   208    1
     9     1   258    1
    10     2     3    1
    11     2    26    1
    12     2    27    1
    13     2    28    1
    14     3     4    1
    15     3    29    1
    16     3    30    1
    17     4     5    1
    18     4    31    1
    19     4    32    1
    20     5     6    1
    21     5    33    1
    22     5    34    1
    23     6     7    1
    24     6    11    1
    25     7     8    1
    26     7    35    1
    27     7    36    1
    28     8     9    1
    29     8    37    1
    30     8    38    1
    31     9    10    1
    32     9    39    1
    33     9    40    1
    34    10    41    1
    35    10    42    1
    36    10    43    1
    37    11    12    2
    38    11    13    1
    39    13    14    1
    40    13    44    1
    41    13    45    1
    42    14    15    1
    43    14    46    1
    44    14    47    1
    45    15    16    2
    46    15    17    1
    47    17    18    1
    48    17    22    1
    49    18    19    1
    50    18    48    1
    51    18    49    1
    52    19    20    1
    53    19    50    1
    54    19    51    1
    55    20    21    1
    56    20    52    1
    57    20    53    1
    58    21    54    1
    59    21    55    1
    60    21    56    1
    61    22    23    1
    62    22    57    1
    63    22    58    1
    64    23    24    1
    65    23    59    1
    66    23    60    1
    67    24    25    1
    68    24    61    1
    69    24    62    1
    70    25    63    1
    71    25    64    1
    72    25    65    1
    73    66    67    1
    74    66    90    1
    75    66    91    1
    76    66    92    1
    77    67    68    1
    78    67    93    1
    79    67    94    1
    80    68    69    1
    81    68    95    1
    82    68    96    1
    83    69    70    1
    84    69    97    1
    85    69    98    1
    86    70    71    1
    87    70    75    1
    88    71    72    1
    89    71    99    1
    90    71   100    1
    91    72    73    1
    92    72   101    1
    93    72   102    1
    94    73    74    1
    95    73   103    1
    96    73   104    1
    97    74   105    1
    98    74   106    1
    99    74   107    1
   100    75    76    2
   101    75    77    1
   102    77    78    1
   103    77   108    1
   104    77   109    1
   105    78    79    1
   106    78   110    1
   107    78   111    1
   108    79    80    2
   109    79    81    1
   110    81    82    1
   111    81    86    1
   112    82    83    1
   113    82   112    1
   114    82   113    1
   115    83    84    1
   116    83   114    1
   117    83   115    1
   118    84    85    1
   119    84   116    1
   120    84   117    1
   121    85   118    1
   122    85   119    1
   123    85   120    1
   124    86    87    1
   125    86   121    1
   126    86   122    1
   127    87    88    1
   128    87   123    1
   129    87   124    1
   130    88    89    1
   131    88   125    1
   132    88   126    1
   133    89   127    1
   134    89   128    1
   135    89   129    1
   136   130   131    1
   137   130   154    1
   138   130   155    1
   139   130   156    1
   140   131   132    1
   141   131   157    1
   142   131   158    1
   143   132   133    1
   144   132   159    1
   145   132   160    1
   146   133   134    1
   147   133   161    1
   148   133   162    1
   149   134   135    1
   150   134   139    1
   151   135   136    1
   152   135   163    1
   153   135   164    1
   154   136   137    1
   155   136   165    1
   156   136   166    1
   157   137   138    1
   158   137   167    1
   159   137   168    1
   160   138   169    1
   161   138   170    1
   162   138   171    1
   163   139   140    2
   164   139   141    1
   165   141   142    1
   166   141   172    1
   167   141   173    1
   168   142   143    1
   169   142   174    1
   170   142   175    1
   171   143   144    2
   172   143   145    1
   173   145   146    1
   174   145   150    1
   175   146   147    1
   176   146   176    1
   177   146   177    1
   178   147   148    1
   179   147   178    1
   180   147   179    1
   181   148   149    1
   182   148   180    1
   183   148   181    1
   184   149   182    1
   185   149   183    1
   186   149   184    1
   187   150   151    1
   188   150   185    1
   189   150   186    1
   190   151   152    1
   191   151   187    1
   192   151   188    1
   193   152   153    1
   194   152   189    1
   195   152   190    1
   196   153   191    1
   197   153   192    1
   198   153   193    1
   199   194   195    1
   200   194   218    1
   201   194   219    1
   202   194   220    1
   203   195   196    1
   204   195   221    1
   205   195   222    1
   206   196   197    1
   207   196   223    1
   208   196   224    1
   209   197   198    1
   210   197   225    1
   211   197   226    1
   212   198   199    1
   213   198   203    1
   214   199   200    1
   215   199   227    1
   216   199   228    1
   217   200   201    1
   218   200   229    1
   219   200   230    1
   220   201   202    1
   221   201   231    1
   222   201   232    1
   223   202   233    1
   224   202   234    1
   225   202   235    1
   226   203   204    2
   227   203   205    1
   228   205   206    1
   229   205   236    1
   230   205   237    1
   231   206   207    1
   232   206   238    1
   233   206   239    1
   234   207   208    2
   235   207   209    1
   236   209   210    1
   237   209   214    1
   238   210   211    1
   239   210   240    1
   240   210   241    1
   241   211   212    1
   242   211   242    1
   243   211   243    1
   244   212   213    1
   245   212   244    1
   246   212   245    1
   247   213   246    1
   248   213   247    1
   249   213   248    1
   250   214   215    1
   251   214   249    1
   252   214   250    1
   253   215   216    1
   254   215   251    1
   255   215   252    1
   256   216   217    1
   257   216   253    1
   258   216   254    1
   259   217   255    1
   260   217   256    1
   261   217   257    1
   262   258   259    1
   263   258   260    1
@<TRIPOS>SUBSTRUCTURE
     1 RES1      260 GROUP             0 ****  ****    0  
