@<TRIPOS>MOLECULE
tricapped_trigonal_prismatic_0_nunpairedes_0_charge_3 Charge: 3 Unpaired_Electrons: 3 XTB_Unpaired_Electrons: 0 XTB_Charge: 3
   340   345     1     0     0
SMALL
NoCharges
****
Generated from Architector

@<TRIPOS>ATOM
     1 Nd1      -0.1832    0.3506    0.1248   Nd        1 RES1   0.0000
     2 C1        4.2318    0.2344    5.2871   C.3       1 RES1   0.0000
     3 C2        3.7186    0.1837    6.7252   C.3       1 RES1   0.0000
     4 C3        4.0022    1.4526    7.5423   C.3       1 RES1   0.0000
     5 C4        2.9175    2.5304    7.5094   C.3       1 RES1   0.0000
     6 C5        2.8157    3.3115    6.2038   C.3       1 RES1   0.0000
     7 C6        1.7007    4.3544    6.2738   C.3       1 RES1   0.0000
     8 C7        1.2518    4.8005    4.8851   C.3       1 RES1   0.0000
     9 C8       -0.0848    5.5365    4.9197   C.3       1 RES1   0.0000
    10 C9       -0.7586    5.6009    3.5462   C.3       1 RES1   0.0000
    11 C10      -1.4046    4.2584    3.1754   C.3       1 RES1   0.0000
    12 N1       -1.8074    4.1982    1.7736   N.am      1 RES1   0.0000
    13 C11      -2.8071    5.1722    1.3517   C.3       1 RES1   0.0000
    14 C12      -4.1674    4.5402    0.9988   C.3       1 RES1   0.0000
    15 C13      -5.3461    5.1712    1.7522   C.3       1 RES1   0.0000
    16 C14      -5.5941    4.6407    3.1681   C.3       1 RES1   0.0000
    17 C15      -6.4238    3.3499    3.2405   C.3       1 RES1   0.0000
    18 C16      -5.6272    2.0461    3.2418   C.3       1 RES1   0.0000
    19 C17      -6.5386    0.8403    3.4913   C.3       1 RES1   0.0000
    20 C18      -7.3545    0.4054    2.2719   C.3       1 RES1   0.0000
    21 C19      -6.5684   -0.5048    1.3291   C.3       1 RES1   0.0000
    22 C20      -7.4240   -0.9457    0.1474   C.3       1 RES1   0.0000
    23 C21      -1.3308    3.2493    0.9816   C.2       1 RES1   0.0000
    24 O1       -0.6421    2.2834    1.3797   O.2       1 RES1   0.0000
    25 C22      -1.7066    3.3054   -0.4996   C.3       1 RES1   0.0000
    26 O2       -0.8135    2.5761   -1.3400   O.3       1 RES1   0.0000
    27 C23       0.1773    3.3794   -1.9704   C.3       1 RES1   0.0000
    28 C24       1.4910    3.3403   -1.1940   C.2       1 RES1   0.0000
    29 O3        1.5984    2.4896   -0.2978   O.2       1 RES1   0.0000
    30 N2        2.4542    4.1802   -1.5676   N.am      1 RES1   0.0000
    31 C25       2.2472    5.3274   -2.4503   C.3       1 RES1   0.0000
    32 C26       2.2646    5.0360   -3.9609   C.3       1 RES1   0.0000
    33 C27       2.5171    6.3311   -4.7540   C.3       1 RES1   0.0000
    34 C28       1.8223    6.3822   -6.1282   C.3       1 RES1   0.0000
    35 C29       2.6979    6.0410   -7.3497   C.3       1 RES1   0.0000
    36 C30       2.1702    4.8540   -8.1542   C.3       1 RES1   0.0000
    37 C31       3.7942    4.0663   -0.9946   C.3       1 RES1   0.0000
    38 C32       4.8854    4.0524   -2.0685   C.3       1 RES1   0.0000
    39 C33       6.2709    3.9027   -1.4456   C.3       1 RES1   0.0000
    40 C34       7.4301    3.9695   -2.4431   C.3       1 RES1   0.0000
    41 C35       7.4715    2.8185   -3.4579   C.3       1 RES1   0.0000
    42 C36       6.9197    3.2062   -4.8248   C.3       1 RES1   0.0000
    43 H1        4.2193   -0.7663    4.8523   H         1 RES1   0.0000
    44 H2        3.6257    0.8944    4.6692   H         1 RES1   0.0000
    45 H3        5.2585    0.5930    5.2756   H         1 RES1   0.0000
    46 H4        2.6461   -0.0280    6.7267   H         1 RES1   0.0000
    47 H5        4.2155   -0.6496    7.2264   H         1 RES1   0.0000
    48 H6        4.1199    1.1556    8.5864   H         1 RES1   0.0000
    49 H7        4.9503    1.8861    7.2210   H         1 RES1   0.0000
    50 H8        1.9513    2.0735    7.7346   H         1 RES1   0.0000
    51 H9        3.1305    3.2403    8.3096   H         1 RES1   0.0000
    52 H10       3.7666    3.8033    5.9968   H         1 RES1   0.0000
    53 H11       2.6016    2.6266    5.3813   H         1 RES1   0.0000
    54 H12       0.8489    3.9230    6.8048   H         1 RES1   0.0000
    55 H13       2.0341    5.2165    6.8506   H         1 RES1   0.0000
    56 H14       2.0127    5.4403    4.4375   H         1 RES1   0.0000
    57 H15       1.1637    3.9176    4.2469   H         1 RES1   0.0000
    58 H16      -0.7574    5.0513    5.6283   H         1 RES1   0.0000
    59 H17       0.0803    6.5537    5.2750   H         1 RES1   0.0000
    60 H18      -1.5086    6.3911    3.5732   H         1 RES1   0.0000
    61 H19      -0.0145    5.8752    2.7960   H         1 RES1   0.0000
    62 H20      -0.6992    3.4469    3.3273   H         1 RES1   0.0000
    63 H21      -2.2852    4.0811    3.7990   H         1 RES1   0.0000
    64 H22      -2.9443    5.8520    2.1893   H         1 RES1   0.0000
    65 H23      -2.4258    5.7748    0.5236   H         1 RES1   0.0000
    66 H24      -4.3637    4.6662   -0.0669   H         1 RES1   0.0000
    67 H25      -4.1350    3.4737    1.2193   H         1 RES1   0.0000
    68 H26      -5.1900    6.2484    1.7985   H         1 RES1   0.0000
    69 H27      -6.2536    5.0143    1.1692   H         1 RES1   0.0000
    70 H28      -4.6488    4.5109    3.6996   H         1 RES1   0.0000
    71 H29      -6.1595    5.4090    3.6960   H         1 RES1   0.0000
    72 H30      -7.0051    3.3686    4.1647   H         1 RES1   0.0000
    73 H31      -7.1419    3.3412    2.4196   H         1 RES1   0.0000
    74 H32      -5.0895    1.9066    2.3004   H         1 RES1   0.0000
    75 H33      -4.8833    2.0927    4.0425   H         1 RES1   0.0000
    76 H34      -5.9381   -0.0083    3.8206   H         1 RES1   0.0000
    77 H35      -7.2214    1.0933    4.3030   H         1 RES1   0.0000
    78 H36      -8.2373   -0.1397    2.6098   H         1 RES1   0.0000
    79 H37      -7.7065    1.2798    1.7230   H         1 RES1   0.0000
    80 H38      -5.6717    0.0094    0.9688   H         1 RES1   0.0000
    81 H39      -6.2407   -1.3877    1.8828   H         1 RES1   0.0000
    82 H40      -7.8031   -0.0819   -0.3948   H         1 RES1   0.0000
    83 H41      -6.8602   -1.5742   -0.5413   H         1 RES1   0.0000
    84 H42      -8.2788   -1.5135    0.5040   H         1 RES1   0.0000
    85 H43      -2.6624    2.7847   -0.5892   H         1 RES1   0.0000
    86 H44      -1.8157    4.3296   -0.8644   H         1 RES1   0.0000
    87 H45       0.3485    2.9241   -2.9521   H         1 RES1   0.0000
    88 H46      -0.1889    4.4003   -2.1087   H         1 RES1   0.0000
    89 H47       1.3108    5.8273   -2.1900   H         1 RES1   0.0000
    90 H48       3.0506    6.0261   -2.2156   H         1 RES1   0.0000
    91 H49       3.0243    4.2942   -4.1958   H         1 RES1   0.0000
    92 H50       1.3043    4.6315   -4.2643   H         1 RES1   0.0000
    93 H51       2.1340    7.1632   -4.1622   H         1 RES1   0.0000
    94 H52       3.5895    6.4816   -4.8770   H         1 RES1   0.0000
    95 H53       0.9596    5.7121   -6.1192   H         1 RES1   0.0000
    96 H54       1.4361    7.3950   -6.2609   H         1 RES1   0.0000
    97 H55       2.7344    6.9093   -8.0101   H         1 RES1   0.0000
    98 H56       3.7214    5.8283   -7.0357   H         1 RES1   0.0000
    99 H57       1.1229    5.0044   -8.4072   H         1 RES1   0.0000
   100 H58       2.7322    4.7546   -9.0797   H         1 RES1   0.0000
   101 H59       2.2713    3.9261   -7.5927   H         1 RES1   0.0000
   102 H60       3.9618    4.8922   -0.2973   H         1 RES1   0.0000
   103 H61       3.8142    3.1369   -0.4224   H         1 RES1   0.0000
   104 H62       4.6904    3.2311   -2.7578   H         1 RES1   0.0000
   105 H63       4.8651    4.9836   -2.6338   H         1 RES1   0.0000
   106 H64       6.4156    4.6953   -0.7071   H         1 RES1   0.0000
   107 H65       6.3179    2.9449   -0.9262   H         1 RES1   0.0000
   108 H66       7.4022    4.9175   -2.9800   H         1 RES1   0.0000
   109 H67       8.3512    3.9599   -1.8569   H         1 RES1   0.0000
   110 H68       8.5051    2.4991   -3.5890   H         1 RES1   0.0000
   111 H69       6.9191    1.9588   -3.0660   H         1 RES1   0.0000
   112 H70       7.4744    4.0494   -5.2280   H         1 RES1   0.0000
   113 H71       7.0101    2.3757   -5.5206   H         1 RES1   0.0000
   114 H72       5.8714    3.4847   -4.7603   H         1 RES1   0.0000
   115 C37      -0.7903    0.4208    4.0754   C.3       1 RES1   0.0000
   116 C38      -0.4611    1.1778    5.3691   C.3       1 RES1   0.0000
   117 C39      -1.6968    1.5660    6.1842   C.3       1 RES1   0.0000
   118 C40      -2.3856    0.3754    6.8761   C.3       1 RES1   0.0000
   119 C41      -3.8928    0.2423    6.5927   C.3       1 RES1   0.0000
   120 C42      -4.3193   -1.1537    6.1313   C.3       1 RES1   0.0000
   121 C43      -3.6847   -1.5439    4.7977   C.3       1 RES1   0.0000
   122 C44      -4.2527   -2.8283    4.2022   C.3       1 RES1   0.0000
   123 C45      -3.7269   -3.0925    2.7871   C.3       1 RES1   0.0000
   124 C46      -2.2215   -3.3852    2.7254   C.3       1 RES1   0.0000
   125 N3       -1.8068   -3.5972    1.3380   N.am      1 RES1   0.0000
   126 C47      -1.8646   -4.9773    0.8721   C.3       1 RES1   0.0000
   127 C48      -0.7561   -5.8924    1.4343   C.3       1 RES1   0.0000
   128 C49      -0.7382   -7.2049    0.6371   C.3       1 RES1   0.0000
   129 C50       0.0422   -8.3825    1.2407   C.3       1 RES1   0.0000
   130 C51       1.5561   -8.4364    0.9877   C.3       1 RES1   0.0000
   131 C52       2.4189   -7.7830    2.0699   C.3       1 RES1   0.0000
   132 C53       3.8228   -8.3888    2.1766   C.3       1 RES1   0.0000
   133 C54       4.7403   -8.2133    0.9622   C.3       1 RES1   0.0000
   134 C55       5.4919   -6.8847    0.9245   C.3       1 RES1   0.0000
   135 C56       6.5260   -6.8566   -0.1941   C.3       1 RES1   0.0000
   136 C57      -1.5532   -2.5246    0.5926   C.2       1 RES1   0.0000
   137 O4       -1.4714   -1.3763    1.0826   O.2       1 RES1   0.0000
   138 C58      -1.3891   -2.7062   -0.9249   C.3       1 RES1   0.0000
   139 O5       -1.0263   -1.4804   -1.5698   O.3       1 RES1   0.0000
   140 C59      -1.9501   -1.0124   -2.5494   C.3       1 RES1   0.0000
   141 C60      -2.8973    0.0232   -1.9246   C.2       1 RES1   0.0000
   142 O6       -2.5307    0.5345   -0.8443   O.2       1 RES1   0.0000
   143 N4       -4.0324    0.3037   -2.5429   N.am      1 RES1   0.0000
   144 C61      -4.4057   -0.2427   -3.8445   C.3       1 RES1   0.0000
   145 C62      -3.6373    0.3941   -5.0118   C.3       1 RES1   0.0000
   146 C63      -4.4567    0.4297   -6.3048   C.3       1 RES1   0.0000
   147 C64      -4.9232   -0.9450   -6.7802   C.3       1 RES1   0.0000
   148 C65      -5.3177   -0.9475   -8.2583   C.3       1 RES1   0.0000
   149 C66      -4.1052   -0.9203   -9.1808   C.3       1 RES1   0.0000
   150 C67      -5.0235    1.1786   -1.9142   C.3       1 RES1   0.0000
   151 C68      -5.4370    2.4021   -2.7334   C.3       1 RES1   0.0000
   152 C69      -4.3471    3.4637   -2.8344   C.3       1 RES1   0.0000
   153 C70      -4.8164    4.8010   -3.4178   C.3       1 RES1   0.0000
   154 C71      -4.7779    4.9256   -4.9416   C.3       1 RES1   0.0000
   155 C72      -5.9242    4.2418   -5.6721   C.3       1 RES1   0.0000
   156 H73      -0.0370    0.6294    3.3065   H         1 RES1   0.0000
   157 H74      -0.8227   -0.6508    4.2650   H         1 RES1   0.0000
   158 H75      -1.7630    0.7168    3.6825   H         1 RES1   0.0000
   159 H76       0.2020    0.5714    5.9884   H         1 RES1   0.0000
   160 H77       0.0818    2.0887    5.1180   H         1 RES1   0.0000
   161 H78      -1.3865    2.2928    6.9354   H         1 RES1   0.0000
   162 H79      -2.3966    2.0743    5.5178   H         1 RES1   0.0000
   163 H80      -1.8846   -0.5396    6.5670   H         1 RES1   0.0000
   164 H81      -2.2359    0.4618    7.9522   H         1 RES1   0.0000
   165 H82      -4.4599    0.4891    7.4908   H         1 RES1   0.0000
   166 H83      -4.1894    0.9572    5.8239   H         1 RES1   0.0000
   167 H84      -4.0522   -1.8848    6.8934   H         1 RES1   0.0000
   168 H85      -5.4065   -1.1636    6.0344   H         1 RES1   0.0000
   169 H86      -3.8202   -0.7327    4.0785   H         1 RES1   0.0000
   170 H87      -2.6154   -1.6744    4.9460   H         1 RES1   0.0000
   171 H88      -4.0291   -3.6764    4.8523   H         1 RES1   0.0000
   172 H89      -5.3405   -2.7463    4.1458   H         1 RES1   0.0000
   173 H90      -4.2775   -3.9333    2.3596   H         1 RES1   0.0000
   174 H91      -3.9194   -2.2128    2.1677   H         1 RES1   0.0000
   175 H92      -1.6716   -2.5295    3.1195   H         1 RES1   0.0000
   176 H93      -1.9737   -4.2753    3.3032   H         1 RES1   0.0000
   177 H94      -2.8325   -5.3930    1.1666   H         1 RES1   0.0000
   178 H95      -1.8138   -5.0079   -0.2138   H         1 RES1   0.0000
   179 H96       0.2102   -5.3936    1.3739   H         1 RES1   0.0000
   180 H97      -0.9521   -6.1193    2.4813   H         1 RES1   0.0000
   181 H98      -1.7745   -7.5357    0.5435   H         1 RES1   0.0000
   182 H99      -0.3679   -7.0114   -0.3719   H         1 RES1   0.0000
   183 H100     -0.1563   -8.4422    2.3110   H         1 RES1   0.0000
   184 H101     -0.3811   -9.2829    0.7946   H         1 RES1   0.0000
   185 H102      1.8388   -9.4895    0.9468   H         1 RES1   0.0000
   186 H103      1.7757   -8.0069    0.0078   H         1 RES1   0.0000
   187 H104      2.4880   -6.7074    1.9049   H         1 RES1   0.0000
   188 H105      1.9294   -7.9353    3.0358   H         1 RES1   0.0000
   189 H106      4.3164   -7.9675    3.0553   H         1 RES1   0.0000
   190 H107      3.7003   -9.4564    2.3619   H         1 RES1   0.0000
   191 H108      5.4840   -9.0096    0.9885   H         1 RES1   0.0000
   192 H109      4.1703   -8.3382    0.0415   H         1 RES1   0.0000
   193 H110      4.7913   -6.0615    0.7757   H         1 RES1   0.0000
   194 H111      5.9940   -6.7265    1.8806   H         1 RES1   0.0000
   195 H112      6.0570   -7.0431   -1.1566   H         1 RES1   0.0000
   196 H113      7.0315   -5.8942   -0.2385   H         1 RES1   0.0000
   197 H114      7.2774   -7.6226   -0.0308   H         1 RES1   0.0000
   198 H115     -0.5847   -3.4222   -1.1276   H         1 RES1   0.0000
   199 H116     -2.3299   -3.0942   -1.3320   H         1 RES1   0.0000
   200 H117     -1.3621   -0.5262   -3.3416   H         1 RES1   0.0000
   201 H118     -2.5034   -1.8466   -2.9955   H         1 RES1   0.0000
   202 H119     -4.2871   -1.3285   -3.8501   H         1 RES1   0.0000
   203 H120     -5.4658   -0.0363   -3.9683   H         1 RES1   0.0000
   204 H121     -3.3784    1.4168   -4.7316   H         1 RES1   0.0000
   205 H122     -2.7074   -0.1447   -5.2019   H         1 RES1   0.0000
   206 H123     -5.3287    1.0724   -6.1788   H         1 RES1   0.0000
   207 H124     -3.8362    0.8887   -7.0729   H         1 RES1   0.0000
   208 H125     -4.1254   -1.6732   -6.6357   H         1 RES1   0.0000
   209 H126     -5.7779   -1.2644   -6.1825   H         1 RES1   0.0000
   210 H127     -5.8938   -1.8497   -8.4650   H         1 RES1   0.0000
   211 H128     -5.9630   -0.0950   -8.4701   H         1 RES1   0.0000
   212 H129     -3.4514   -1.7637   -8.9697   H         1 RES1   0.0000
   213 H130     -4.4127   -0.9873  -10.2203   H         1 RES1   0.0000
   214 H131     -3.5295   -0.0053   -9.0613   H         1 RES1   0.0000
   215 H132     -5.9121    0.5729   -1.7184   H         1 RES1   0.0000
   216 H133     -4.6083    1.4929   -0.9550   H         1 RES1   0.0000
   217 H134     -5.7687    2.1013   -3.7247   H         1 RES1   0.0000
   218 H135     -6.2966    2.8375   -2.2226   H         1 RES1   0.0000
   219 H136     -3.9909    3.6536   -1.8212   H         1 RES1   0.0000
   220 H137     -3.5040    3.0828   -3.4145   H         1 RES1   0.0000
   221 H138     -5.8240    5.0123   -3.0604   H         1 RES1   0.0000
   222 H139     -4.1672    5.5788   -3.0111   H         1 RES1   0.0000
   223 H140     -4.8213    5.9883   -5.1782   H         1 RES1   0.0000
   224 H141     -3.8218    4.5509   -5.3134   H         1 RES1   0.0000
   225 H142     -6.8794    4.5487   -5.2555   H         1 RES1   0.0000
   226 H143     -5.9109    4.5221   -6.7215   H         1 RES1   0.0000
   227 H144     -5.8545    3.1595   -5.6176   H         1 RES1   0.0000
   228 C73      -0.2123   -2.1503   -6.6093   C.3       1 RES1   0.0000
   229 C74      -1.4569   -2.9657   -6.2867   C.3       1 RES1   0.0000
   230 C75      -1.1992   -4.4537   -6.0547   C.3       1 RES1   0.0000
   231 C76      -0.2869   -4.7688   -4.8595   C.3       1 RES1   0.0000
   232 C77       1.1577   -5.0508   -5.2743   C.3       1 RES1   0.0000
   233 C78       2.0595   -5.4913   -4.1205   C.3       1 RES1   0.0000
   234 C79       2.2636   -4.4170   -3.0508   C.3       1 RES1   0.0000
   235 C80       3.4499   -4.7575   -2.1470   C.3       1 RES1   0.0000
   236 C81       3.5217   -3.9055   -0.8780   C.3       1 RES1   0.0000
   237 C82       2.5075   -4.3487    0.1750   C.3       1 RES1   0.0000
   238 N5        2.5074   -3.4501    1.3247   N.am      1 RES1   0.0000
   239 C83       3.3127   -3.8078    2.4836   C.3       1 RES1   0.0000
   240 C84       2.4496   -4.3352    3.6337   C.3       1 RES1   0.0000
   241 C85       3.2784   -4.6724    4.8814   C.3       1 RES1   0.0000
   242 C86       2.7960   -5.9159    5.6348   C.3       1 RES1   0.0000
   243 C87       1.4383   -5.8134    6.3312   C.3       1 RES1   0.0000
   244 C88       0.2221   -5.7896    5.4038   C.3       1 RES1   0.0000
   245 C89      -1.0740   -6.1954    6.1142   C.3       1 RES1   0.0000
   246 C90      -1.3783   -5.4235    7.3979   C.3       1 RES1   0.0000
   247 C91      -1.5242   -3.9159    7.2091   C.3       1 RES1   0.0000
   248 C92      -1.8931   -3.2317    8.5213   C.3       1 RES1   0.0000
   249 C93       1.7441   -2.3694    1.2659   C.2       1 RES1   0.0000
   250 O7        1.0107   -2.1083    0.2978   O.2       1 RES1   0.0000
   251 C94       1.7458   -1.3405    2.3937   C.3       1 RES1   0.0000
   252 O8        1.6382   -0.0396    1.8087   O.3       1 RES1   0.0000
   253 C95       2.8665    0.3658    1.1973   C.3       1 RES1   0.0000
   254 C96       2.8822    0.0550   -0.3073   C.2       1 RES1   0.0000
   255 O9        1.7878   -0.0059   -0.9027   O.2       1 RES1   0.0000
   256 N6        4.0164   -0.1573   -0.9671   N.am      1 RES1   0.0000
   257 C97       5.4144   -0.1227   -0.5214   C.3       1 RES1   0.0000
   258 C98       5.7659    0.6981    0.7153   C.3       1 RES1   0.0000
   259 C99       7.2666    0.9746    0.8446   C.3       1 RES1   0.0000
   260 C100      7.6040    1.6377    2.1866   C.3       1 RES1   0.0000
   261 C101      7.1762    3.0983    2.3730   C.3       1 RES1   0.0000
   262 C102      5.7216    3.3287    2.7810   C.3       1 RES1   0.0000
   263 C103      3.8945   -0.6472   -2.3446   C.3       1 RES1   0.0000
   264 C104      3.8910    0.4243   -3.4331   C.3       1 RES1   0.0000
   265 C105      2.5113    1.0572   -3.6571   C.3       1 RES1   0.0000
   266 C106      2.2056    1.3110   -5.1417   C.3       1 RES1   0.0000
   267 C107      0.7348    1.0790   -5.5180   C.3       1 RES1   0.0000
   268 C108     -0.0409    2.3493   -5.8283   C.3       1 RES1   0.0000
   269 H145     -0.5064   -1.1675   -6.9726   H         1 RES1   0.0000
   270 H146      0.4199   -2.0240   -5.7324   H         1 RES1   0.0000
   271 H147      0.3679   -2.6346   -7.3892   H         1 RES1   0.0000
   272 H148     -1.9498   -2.5412   -5.4046   H         1 RES1   0.0000
   273 H149     -2.1486   -2.8743   -7.1255   H         1 RES1   0.0000
   274 H150     -2.1684   -4.9343   -5.9037   H         1 RES1   0.0000
   275 H151     -0.7679   -4.8768   -6.9620   H         1 RES1   0.0000
   276 H152     -0.3123   -3.9311   -4.1569   H         1 RES1   0.0000
   277 H153     -0.6750   -5.6484   -4.3403   H         1 RES1   0.0000
   278 H154      1.1511   -5.8477   -6.0192   H         1 RES1   0.0000
   279 H155      1.5855   -4.1655   -5.7458   H         1 RES1   0.0000
   280 H156      1.6466   -6.3891   -3.6547   H         1 RES1   0.0000
   281 H157      3.0320   -5.7588   -4.5374   H         1 RES1   0.0000
   282 H158      2.4449   -3.4530   -3.5315   H         1 RES1   0.0000
   283 H159      1.3533   -4.3214   -2.4564   H         1 RES1   0.0000
   284 H160      3.4074   -5.8105   -1.8657   H         1 RES1   0.0000
   285 H161      4.3712   -4.6157   -2.7141   H         1 RES1   0.0000
   286 H162      4.5254   -3.9721   -0.4548   H         1 RES1   0.0000
   287 H163      3.3224   -2.8642   -1.1226   H         1 RES1   0.0000
   288 H164      1.5062   -4.3471   -0.2569   H         1 RES1   0.0000
   289 H165      2.7398   -5.3529    0.5219   H         1 RES1   0.0000
   290 H166      4.0094   -4.5836    2.1683   H         1 RES1   0.0000
   291 H167      3.9095   -2.9539    2.8129   H         1 RES1   0.0000
   292 H168      1.6866   -3.5968    3.8816   H         1 RES1   0.0000
   293 H169      1.9432   -5.2358    3.2929   H         1 RES1   0.0000
   294 H170      4.3105   -4.8615    4.5808   H         1 RES1   0.0000
   295 H171      3.2894   -3.8146    5.5554   H         1 RES1   0.0000
   296 H172      2.7883   -6.7664    4.9518   H         1 RES1   0.0000
   297 H173      3.5380   -6.1335    6.4049   H         1 RES1   0.0000
   298 H174      1.3480   -6.6888    6.9766   H         1 RES1   0.0000
   299 H175      1.4312   -4.9304    6.9696   H         1 RES1   0.0000
   300 H176      0.0978   -4.7967    4.9662   H         1 RES1   0.0000
   301 H177      0.3882   -6.4953    4.5853   H         1 RES1   0.0000
   302 H178     -1.9102   -6.0787    5.4173   H         1 RES1   0.0000
   303 H179     -1.0122   -7.2547    6.3675   H         1 RES1   0.0000
   304 H180     -2.3097   -5.8112    7.8143   H         1 RES1   0.0000
   305 H181     -0.5954   -5.6148    8.1308   H         1 RES1   0.0000
   306 H182     -0.5872   -3.4927    6.8378   H         1 RES1   0.0000
   307 H183     -2.2994   -3.7179    6.4646   H         1 RES1   0.0000
   308 H184     -1.1403   -3.4364    9.2787   H         1 RES1   0.0000
   309 H185     -1.9664   -2.1533    8.3968   H         1 RES1   0.0000
   310 H186     -2.8487   -3.5989    8.8883   H         1 RES1   0.0000
   311 H187      0.8459   -1.4708    3.0017   H         1 RES1   0.0000
   312 H188      2.6230   -1.3866    3.0428   H         1 RES1   0.0000
   313 H189      2.9230    1.4496    1.3387   H         1 RES1   0.0000
   314 H190      3.6947   -0.1153    1.7131   H         1 RES1   0.0000
   315 H191      5.7510   -1.1597   -0.3986   H         1 RES1   0.0000
   316 H192      5.9721    0.2941   -1.3673   H         1 RES1   0.0000
   317 H193      5.2357    1.6469    0.6669   H         1 RES1   0.0000
   318 H194      5.4903    0.1788    1.6312   H         1 RES1   0.0000
   319 H195      7.8046    0.0249    0.7981   H         1 RES1   0.0000
   320 H196      7.6280    1.5967    0.0257   H         1 RES1   0.0000
   321 H197      7.1846    1.0366    2.9968   H         1 RES1   0.0000
   322 H198      8.6886    1.6052    2.2894   H         1 RES1   0.0000
   323 H199      7.8024    3.5038    3.1690   H         1 RES1   0.0000
   324 H200      7.3967    3.6640    1.4676   H         1 RES1   0.0000
   325 H201      5.4290    2.6504    3.5796   H         1 RES1   0.0000
   326 H202      5.6136    4.3463    3.1493   H         1 RES1   0.0000
   327 H203      5.0305    3.2091    1.9479   H         1 RES1   0.0000
   328 H204      4.7329   -1.3276   -2.5008   H         1 RES1   0.0000
   329 H205      2.9596   -1.2119   -2.4137   H         1 RES1   0.0000
   330 H206      4.6321    1.1894   -3.2049   H         1 RES1   0.0000
   331 H207      4.2119   -0.0694   -4.3524   H         1 RES1   0.0000
   332 H208      1.7517    0.3848   -3.2494   H         1 RES1   0.0000
   333 H209      2.4459    1.9867   -3.0897   H         1 RES1   0.0000
   334 H210      2.4990    2.3226   -5.4203   H         1 RES1   0.0000
   335 H211      2.8219    0.6373   -5.7401   H         1 RES1   0.0000
   336 H212      0.7073    0.4522   -6.4040   H         1 RES1   0.0000
   337 H213      0.2325    0.5323   -4.7157   H         1 RES1   0.0000
   338 H214      0.3573    2.8161   -6.7245   H         1 RES1   0.0000
   339 H215     -1.0921    2.1236   -6.0037   H         1 RES1   0.0000
   340 H216      0.0242    3.0638   -5.0123   H         1 RES1   0.0000
@<TRIPOS>BOND
     1     1    24    1
     2     1    26    1
     3     1    29    1
     4     1   137    1
     5     1   139    1
     6     1   142    1
     7     1   250    1
     8     1   252    1
     9     1   255    1
    10     2     3    1
    11     2    43    1
    12     2    44    1
    13     2    45    1
    14     3     4    1
    15     3    46    1
    16     3    47    1
    17     4     5    1
    18     4    48    1
    19     4    49    1
    20     5     6    1
    21     5    50    1
    22     5    51    1
    23     6     7    1
    24     6    52    1
    25     6    53    1
    26     7     8    1
    27     7    54    1
    28     7    55    1
    29     8     9    1
    30     8    56    1
    31     8    57    1
    32     9    10    1
    33     9    58    1
    34     9    59    1
    35    10    11    1
    36    10    60    1
    37    10    61    1
    38    11    12    1
    39    11    62    1
    40    11    63    1
    41    12    13    1
    42    12    23    1
    43    13    14    1
    44    13    64    1
    45    13    65    1
    46    14    15    1
    47    14    66    1
    48    14    67    1
    49    15    16    1
    50    15    68    1
    51    15    69    1
    52    16    17    1
    53    16    70    1
    54    16    71    1
    55    17    18    1
    56    17    72    1
    57    17    73    1
    58    18    19    1
    59    18    74    1
    60    18    75    1
    61    19    20    1
    62    19    76    1
    63    19    77    1
    64    20    21    1
    65    20    78    1
    66    20    79    1
    67    21    22    1
    68    21    80    1
    69    21    81    1
    70    22    82    1
    71    22    83    1
    72    22    84    1
    73    23    24    2
    74    23    25    1
    75    25    26    1
    76    25    85    1
    77    25    86    1
    78    26    27    1
    79    27    28    1
    80    27    87    1
    81    27    88    1
    82    28    29    2
    83    28    30    1
    84    30    31    1
    85    30    37    1
    86    31    32    1
    87    31    89    1
    88    31    90    1
    89    32    33    1
    90    32    91    1
    91    32    92    1
    92    33    34    1
    93    33    93    1
    94    33    94    1
    95    34    35    1
    96    34    95    1
    97    34    96    1
    98    35    36    1
    99    35    97    1
   100    35    98    1
   101    36    99    1
   102    36   100    1
   103    36   101    1
   104    37    38    1
   105    37   102    1
   106    37   103    1
   107    38    39    1
   108    38   104    1
   109    38   105    1
   110    39    40    1
   111    39   106    1
   112    39   107    1
   113    40    41    1
   114    40   108    1
   115    40   109    1
   116    41    42    1
   117    41   110    1
   118    41   111    1
   119    42   112    1
   120    42   113    1
   121    42   114    1
   122   115   116    1
   123   115   156    1
   124   115   157    1
   125   115   158    1
   126   116   117    1
   127   116   159    1
   128   116   160    1
   129   117   118    1
   130   117   161    1
   131   117   162    1
   132   118   119    1
   133   118   163    1
   134   118   164    1
   135   119   120    1
   136   119   165    1
   137   119   166    1
   138   120   121    1
   139   120   167    1
   140   120   168    1
   141   121   122    1
   142   121   169    1
   143   121   170    1
   144   122   123    1
   145   122   171    1
   146   122   172    1
   147   123   124    1
   148   123   173    1
   149   123   174    1
   150   124   125    1
   151   124   175    1
   152   124   176    1
   153   125   126    1
   154   125   136    1
   155   126   127    1
   156   126   177    1
   157   126   178    1
   158   127   128    1
   159   127   179    1
   160   127   180    1
   161   128   129    1
   162   128   181    1
   163   128   182    1
   164   129   130    1
   165   129   183    1
   166   129   184    1
   167   130   131    1
   168   130   185    1
   169   130   186    1
   170   131   132    1
   171   131   187    1
   172   131   188    1
   173   132   133    1
   174   132   189    1
   175   132   190    1
   176   133   134    1
   177   133   191    1
   178   133   192    1
   179   134   135    1
   180   134   193    1
   181   134   194    1
   182   135   195    1
   183   135   196    1
   184   135   197    1
   185   136   137    2
   186   136   138    1
   187   138   139    1
   188   138   198    1
   189   138   199    1
   190   139   140    1
   191   140   141    1
   192   140   200    1
   193   140   201    1
   194   141   142    2
   195   141   143    1
   196   143   144    1
   197   143   150    1
   198   144   145    1
   199   144   202    1
   200   144   203    1
   201   145   146    1
   202   145   204    1
   203   145   205    1
   204   146   147    1
   205   146   206    1
   206   146   207    1
   207   147   148    1
   208   147   208    1
   209   147   209    1
   210   148   149    1
   211   148   210    1
   212   148   211    1
   213   149   212    1
   214   149   213    1
   215   149   214    1
   216   150   151    1
   217   150   215    1
   218   150   216    1
   219   151   152    1
   220   151   217    1
   221   151   218    1
   222   152   153    1
   223   152   219    1
   224   152   220    1
   225   153   154    1
   226   153   221    1
   227   153   222    1
   228   154   155    1
   229   154   223    1
   230   154   224    1
   231   155   225    1
   232   155   226    1
   233   155   227    1
   234   228   229    1
   235   228   269    1
   236   228   270    1
   237   228   271    1
   238   229   230    1
   239   229   272    1
   240   229   273    1
   241   230   231    1
   242   230   274    1
   243   230   275    1
   244   231   232    1
   245   231   276    1
   246   231   277    1
   247   232   233    1
   248   232   278    1
   249   232   279    1
   250   233   234    1
   251   233   280    1
   252   233   281    1
   253   234   235    1
   254   234   282    1
   255   234   283    1
   256   235   236    1
   257   235   284    1
   258   235   285    1
   259   236   237    1
   260   236   286    1
   261   236   287    1
   262   237   238    1
   263   237   288    1
   264   237   289    1
   265   238   239    1
   266   238   249    1
   267   239   240    1
   268   239   290    1
   269   239   291    1
   270   240   241    1
   271   240   292    1
   272   240   293    1
   273   241   242    1
   274   241   294    1
   275   241   295    1
   276   242   243    1
   277   242   296    1
   278   242   297    1
   279   243   244    1
   280   243   298    1
   281   243   299    1
   282   244   245    1
   283   244   300    1
   284   244   301    1
   285   245   246    1
   286   245   302    1
   287   245   303    1
   288   246   247    1
   289   246   304    1
   290   246   305    1
   291   247   248    1
   292   247   306    1
   293   247   307    1
   294   248   308    1
   295   248   309    1
   296   248   310    1
   297   249   250    2
   298   249   251    1
   299   251   252    1
   300   251   311    1
   301   251   312    1
   302   252   253    1
   303   253   254    1
   304   253   313    1
   305   253   314    1
   306   254   255    2
   307   254   256    1
   308   256   257    1
   309   256   263    1
   310   257   258    1
   311   257   315    1
   312   257   316    1
   313   258   259    1
   314   258   317    1
   315   258   318    1
   316   259   260    1
   317   259   319    1
   318   259   320    1
   319   260   261    1
   320   260   321    1
   321   260   322    1
   322   261   262    1
   323   261   323    1
   324   261   324    1
   325   262   325    1
   326   262   326    1
   327   262   327    1
   328   263   264    1
   329   263   328    1
   330   263   329    1
   331   264   265    1
   332   264   330    1
   333   264   331    1
   334   265   266    1
   335   265   332    1
   336   265   333    1
   337   266   267    1
   338   266   334    1
   339   266   335    1
   340   267   268    1
   341   267   336    1
   342   267   337    1
   343   268   338    1
   344   268   339    1
   345   268   340    1
@<TRIPOS>SUBSTRUCTURE
     1 RES1      340 GROUP             0 ****  ****    0  
