@<TRIPOS>MOLECULE
am_c3_9H2O_c0_0_nunpairedes_0_charge_3 Charge: 3 Unpaired_Electrons: 3 XTB_Unpaired_Electrons: 0 XTB_Charge: 3
   358   363     1     0     0
SMALL
NoCharges
****
Generated from Architector

@<TRIPOS>ATOM
     1 Nd1      -0.1462   -0.0567   -0.1257   Nd        1 RES1   0.0000
     2 C1       -4.8210    7.9971   -1.6918   C.3       1 RES1   0.0000
     3 C2       -5.3680    7.1122   -2.8050   C.3       1 RES1   0.0000
     4 C3       -6.4831    6.1554   -2.3783   C.3       1 RES1   0.0000
     5 C4       -6.0487    5.0756   -1.3759   C.3       1 RES1   0.0000
     6 C5       -6.4185    5.4352    0.0630   C.3       1 RES1   0.0000
     7 C6       -6.0291    4.3621    1.0792   C.3       1 RES1   0.0000
     8 C7       -4.5268    4.0890    1.0845   C.3       1 RES1   0.0000
     9 C8       -4.1077    3.2675    2.3045   C.3       1 RES1   0.0000
    10 N1       -2.7142    2.8482    2.2041   N.am      1 RES1   0.0000
    11 C9       -1.7459    3.8340    2.6963   C.3       1 RES1   0.0000
    12 C10      -1.5725    3.8606    4.2192   C.3       1 RES1   0.0000
    13 C11      -1.1220    5.2355    4.7425   C.3       1 RES1   0.0000
    14 C12       0.3654    5.5893    4.5243   C.3       1 RES1   0.0000
    15 C13       0.6036    6.9350    3.8217   C.3       1 RES1   0.0000
    16 C14       0.4253    6.8575    2.3091   C.3       1 RES1   0.0000
    17 C15       0.6792    8.1730    1.5791   C.3       1 RES1   0.0000
    18 C16       0.5674    7.9942    0.0694   C.3       1 RES1   0.0000
    19 C17      -2.3017    1.7631    1.5615   C.2       1 RES1   0.0000
    20 O1       -1.0962    1.4802    1.4267   O.2       1 RES1   0.0000
    21 C18      -3.3280    0.7433    1.0272   C.3       1 RES1   0.0000
    22 C19      -3.6054   -0.1506    2.2417   C.3       1 RES1   0.0000
    23 O2       -2.6665    0.0649   -0.0512   O.3       1 RES1   0.0000
    24 C20      -3.5166   -0.5529   -1.0229   C.3       1 RES1   0.0000
    25 C21      -4.3846   -1.6515   -0.3899   C.3       1 RES1   0.0000
    26 C22      -2.5925   -1.2588   -2.0493   C.2       1 RES1   0.0000
    27 O3       -1.3943   -1.4244   -1.7426   O.2       1 RES1   0.0000
    28 N2       -3.1252   -1.8060   -3.1446   N.am      1 RES1   0.0000
    29 C23      -4.5437   -1.7085   -3.5055   C.3       1 RES1   0.0000
    30 C24      -4.8346   -1.4779   -4.9878   C.3       1 RES1   0.0000
    31 C25      -6.3407   -1.4737   -5.2637   C.3       1 RES1   0.0000
    32 C26      -7.1368   -0.2965   -4.6925   C.3       1 RES1   0.0000
    33 C27      -6.9007    1.0472   -5.3927   C.3       1 RES1   0.0000
    34 C28      -5.7680    1.9039   -4.8287   C.3       1 RES1   0.0000
    35 C29      -5.7434    3.2704   -5.5130   C.3       1 RES1   0.0000
    36 C30      -4.4959    4.0827   -5.1904   C.3       1 RES1   0.0000
    37 C31      -2.3727   -2.8679   -3.8421   C.3       1 RES1   0.0000
    38 C32      -1.2508   -2.4433   -4.7978   C.3       1 RES1   0.0000
    39 C33      -1.6586   -1.7581   -6.1066   C.3       1 RES1   0.0000
    40 C34      -2.1985   -2.6480   -7.2263   C.3       1 RES1   0.0000
    41 C35      -2.5309   -1.8218   -8.4776   C.3       1 RES1   0.0000
    42 C36      -3.7332   -0.8925   -8.3053   C.3       1 RES1   0.0000
    43 C37      -4.1392   -0.1730   -9.5941   C.3       1 RES1   0.0000
    44 C38      -3.1924    0.9493  -10.0038   C.3       1 RES1   0.0000
    45 H1       -4.1255    8.7214   -2.1078   H         1 RES1   0.0000
    46 H2       -4.2902    7.4149   -0.9413   H         1 RES1   0.0000
    47 H3       -5.6231    8.5450   -1.2065   H         1 RES1   0.0000
    48 H4       -4.5480    6.5381   -3.2446   H         1 RES1   0.0000
    49 H5       -5.7677    7.7561   -3.5892   H         1 RES1   0.0000
    50 H6       -6.8645    5.6761   -3.2815   H         1 RES1   0.0000
    51 H7       -7.3050    6.7322   -1.9541   H         1 RES1   0.0000
    52 H8       -4.9688    4.9253   -1.4582   H         1 RES1   0.0000
    53 H9       -6.5330    4.1288   -1.6268   H         1 RES1   0.0000
    54 H10      -7.4965    5.5886    0.1223   H         1 RES1   0.0000
    55 H11      -5.9421    6.3760    0.3347   H         1 RES1   0.0000
    56 H12      -6.5745    3.4415    0.8643   H         1 RES1   0.0000
    57 H13      -6.3322    4.6975    2.0710   H         1 RES1   0.0000
    58 H14      -3.9919    5.0395    1.0840   H         1 RES1   0.0000
    59 H15      -4.2422    3.5502    0.1792   H         1 RES1   0.0000
    60 H16      -4.7626    2.4062    2.4221   H         1 RES1   0.0000
    61 H17      -4.2068    3.8762    3.2034   H         1 RES1   0.0000
    62 H18      -2.0925    4.8113    2.3598   H         1 RES1   0.0000
    63 H19      -0.7955    3.6127    2.2260   H         1 RES1   0.0000
    64 H20      -0.8565    3.0966    4.5216   H         1 RES1   0.0000
    65 H21      -2.5254    3.6164    4.6912   H         1 RES1   0.0000
    66 H22      -1.3235    5.2531    5.8128   H         1 RES1   0.0000
    67 H23      -1.7525    6.0074    4.2981   H         1 RES1   0.0000
    68 H24       0.8613    4.7998    3.9572   H         1 RES1   0.0000
    69 H25       0.8543    5.6349    5.4980   H         1 RES1   0.0000
    70 H26       1.6234    7.2652    4.0298   H         1 RES1   0.0000
    71 H27      -0.0687    7.6861    4.2348   H         1 RES1   0.0000
    72 H28      -0.5865    6.5161    2.0787   H         1 RES1   0.0000
    73 H29       1.1337    6.1179    1.9224   H         1 RES1   0.0000
    74 H30       1.6768    8.5377    1.8221   H         1 RES1   0.0000
    75 H31      -0.0387    8.9207    1.9130   H         1 RES1   0.0000
    76 H32       1.3007    7.2724   -0.2896   H         1 RES1   0.0000
    77 H33       0.7472    8.9352   -0.4403   H         1 RES1   0.0000
    78 H34      -0.4259    7.6426   -0.2020   H         1 RES1   0.0000
    79 H35      -4.2405    1.2081    0.6486   H         1 RES1   0.0000
    80 H36      -2.6710   -0.6484    2.4857   H         1 RES1   0.0000
    81 H37      -4.3746   -0.8934    2.0674   H         1 RES1   0.0000
    82 H38      -3.9101    0.4619    3.0867   H         1 RES1   0.0000
    83 H39      -4.1261    0.2258   -1.5124   H         1 RES1   0.0000
    84 H40      -3.8091   -2.1416    0.3855   H         1 RES1   0.0000
    85 H41      -4.6627   -2.4033   -1.1124   H         1 RES1   0.0000
    86 H42      -5.2951   -1.2445    0.0323   H         1 RES1   0.0000
    87 H43      -4.9919   -0.8876   -2.9552   H         1 RES1   0.0000
    88 H44      -5.0423   -2.6432   -3.2138   H         1 RES1   0.0000
    89 H45      -4.3949   -2.2731   -5.5855   H         1 RES1   0.0000
    90 H46      -4.4011   -0.5368   -5.3134   H         1 RES1   0.0000
    91 H47      -6.7660   -2.4059   -4.8841   H         1 RES1   0.0000
    92 H48      -6.4821   -1.4835   -6.3448   H         1 RES1   0.0000
    93 H49      -6.9621   -0.1947   -3.6196   H         1 RES1   0.0000
    94 H50      -8.1893   -0.5510   -4.8188   H         1 RES1   0.0000
    95 H51      -7.8142    1.6396   -5.3218   H         1 RES1   0.0000
    96 H52      -6.7154    0.8727   -6.4528   H         1 RES1   0.0000
    97 H53      -4.8021    1.4161   -4.9748   H         1 RES1   0.0000
    98 H54      -5.9083    2.0441   -3.7537   H         1 RES1   0.0000
    99 H55      -6.6283    3.8311   -5.2153   H         1 RES1   0.0000
   100 H56      -5.8006    3.1258   -6.5916   H         1 RES1   0.0000
   101 H57      -4.3612    4.1705   -4.1134   H         1 RES1   0.0000
   102 H58      -4.5870    5.0817   -5.6101   H         1 RES1   0.0000
   103 H59      -3.6124    3.6101   -5.6170   H         1 RES1   0.0000
   104 H60      -3.1002   -3.4726   -4.3809   H         1 RES1   0.0000
   105 H61      -1.9207   -3.4856   -3.0600   H         1 RES1   0.0000
   106 H62      -0.6938   -3.3483   -5.0510   H         1 RES1   0.0000
   107 H63      -0.5755   -1.7830   -4.2493   H         1 RES1   0.0000
   108 H64      -0.7646   -1.2764   -6.5026   H         1 RES1   0.0000
   109 H65      -2.3896   -0.9826   -5.8959   H         1 RES1   0.0000
   110 H66      -3.0902   -3.1910   -6.9095   H         1 RES1   0.0000
   111 H67      -1.4434   -3.3929   -7.4828   H         1 RES1   0.0000
   112 H68      -2.7464   -2.5065   -9.2993   H         1 RES1   0.0000
   113 H69      -1.6549   -1.2356   -8.7563   H         1 RES1   0.0000
   114 H70      -3.5267   -0.1377   -7.5428   H         1 RES1   0.0000
   115 H71      -4.5840   -1.4853   -7.9648   H         1 RES1   0.0000
   116 H72      -5.1352    0.2520   -9.4546   H         1 RES1   0.0000
   117 H73      -4.2063   -0.8964  -10.4061   H         1 RES1   0.0000
   118 H74      -3.0717    1.6719   -9.1983   H         1 RES1   0.0000
   119 H75      -3.5924    1.4736  -10.8676   H         1 RES1   0.0000
   120 H76      -2.2158    0.5573  -10.2750   H         1 RES1   0.0000
   121 C39       9.2120    0.4692   -2.7775   C.3       1 RES1   0.0000
   122 C40       8.5679    1.6735   -3.4524   C.3       1 RES1   0.0000
   123 C41       8.6925    2.9890   -2.6748   C.3       1 RES1   0.0000
   124 C42       7.7844    3.1285   -1.4464   C.3       1 RES1   0.0000
   125 C43       8.3290    2.6409   -0.1047   C.3       1 RES1   0.0000
   126 C44       7.2526    2.7438    0.9836   C.3       1 RES1   0.0000
   127 C45       6.1782    1.6650    0.8234   C.3       1 RES1   0.0000
   128 C46       4.9683    1.8844    1.7389   C.3       1 RES1   0.0000
   129 N3        3.9215    0.8847    1.5430   N.am      1 RES1   0.0000
   130 C47       4.2602   -0.4833    1.9266   C.3       1 RES1   0.0000
   131 C48       3.8975   -0.8094    3.3723   C.3       1 RES1   0.0000
   132 C49       4.4075   -2.2015    3.7486   C.3       1 RES1   0.0000
   133 C50       3.6930   -3.3532    3.0222   C.3       1 RES1   0.0000
   134 C51       4.5612   -4.1305    2.0264   C.3       1 RES1   0.0000
   135 C52       3.9804   -5.5077    1.6932   C.3       1 RES1   0.0000
   136 C53       4.7972   -6.3015    0.6678   C.3       1 RES1   0.0000
   137 C54       4.6497   -5.7738   -0.7535   C.3       1 RES1   0.0000
   138 C55       2.6747    1.0860    1.1308   C.2       1 RES1   0.0000
   139 O4        1.8516    0.1483    1.0989   O.2       1 RES1   0.0000
   140 C56       2.1842    2.4875    0.7431   C.3       1 RES1   0.0000
   141 C57       1.8405    3.1951    2.0517   C.3       1 RES1   0.0000
   142 O5        1.0350    2.2775   -0.0761   O.3       1 RES1   0.0000
   143 C58       0.6413    3.3203   -0.9681   C.3       1 RES1   0.0000
   144 C59      -0.3890    4.2965   -0.3881   C.3       1 RES1   0.0000
   145 C60      -0.1063    2.5971   -2.0986   C.2       1 RES1   0.0000
   146 O6       -0.6791    1.5286   -1.7934   O.2       1 RES1   0.0000
   147 N4       -0.2449    3.1315   -3.3049   N.am      1 RES1   0.0000
   148 C61       0.1677    4.4597   -3.7502   C.3       1 RES1   0.0000
   149 C62       0.8964    4.4791   -5.1000   C.3       1 RES1   0.0000
   150 C63       0.9986    5.9066   -5.6699   C.3       1 RES1   0.0000
   151 C64       2.4157    6.3612   -6.0400   C.3       1 RES1   0.0000
   152 C65       3.1041    5.6026   -7.1866   C.3       1 RES1   0.0000
   153 C66       3.9859    4.4263   -6.7630   C.3       1 RES1   0.0000
   154 C67       4.8690    3.9400   -7.9113   C.3       1 RES1   0.0000
   155 C68       5.5974    2.6414   -7.5786   C.3       1 RES1   0.0000
   156 C69      -1.1177    2.3947   -4.2188   C.3       1 RES1   0.0000
   157 C70      -0.4830    1.0875   -4.6963   C.3       1 RES1   0.0000
   158 C71       0.4023    1.1748   -5.9419   C.3       1 RES1   0.0000
   159 C72      -0.3817    1.5585   -7.1994   C.3       1 RES1   0.0000
   160 C73       0.3674    1.2816   -8.5045   C.3       1 RES1   0.0000
   161 C74       1.5664    2.2002   -8.7325   C.3       1 RES1   0.0000
   162 C75       2.1241    2.1108  -10.1549   C.3       1 RES1   0.0000
   163 C76       2.8569    0.8060  -10.4370   C.3       1 RES1   0.0000
   164 H77       9.2264   -0.3762   -3.4611   H         1 RES1   0.0000
   165 H78       8.6676    0.1741   -1.8844   H         1 RES1   0.0000
   166 H79      10.2378    0.6926   -2.4998   H         1 RES1   0.0000
   167 H80       7.5135    1.4621   -3.6595   H         1 RES1   0.0000
   168 H81       9.0549    1.8180   -4.4182   H         1 RES1   0.0000
   169 H82       8.4261    3.7886   -3.3710   H         1 RES1   0.0000
   170 H83       9.7326    3.1433   -2.3916   H         1 RES1   0.0000
   171 H84       6.8539    2.6001   -1.6576   H         1 RES1   0.0000
   172 H85       7.5378    4.1848   -1.3256   H         1 RES1   0.0000
   173 H86       9.1794    3.2586    0.1818   H         1 RES1   0.0000
   174 H87       8.6783    1.6134   -0.1861   H         1 RES1   0.0000
   175 H88       6.7944    3.7313    0.9220   H         1 RES1   0.0000
   176 H89       7.7072    2.6484    1.9691   H         1 RES1   0.0000
   177 H90       6.6402    0.7024    1.0299   H         1 RES1   0.0000
   178 H91       5.8244    1.6610   -0.2047   H         1 RES1   0.0000
   179 H92       4.5693    2.8812    1.5581   H         1 RES1   0.0000
   180 H93       5.2857    1.8355    2.7862   H         1 RES1   0.0000
   181 H94       5.3287   -0.6286    1.7719   H         1 RES1   0.0000
   182 H95       3.6965   -1.1426    1.2623   H         1 RES1   0.0000
   183 H96       2.8139   -0.7621    3.4913   H         1 RES1   0.0000
   184 H97       4.3462   -0.0744    4.0429   H         1 RES1   0.0000
   185 H98       4.2786   -2.3180    4.8244   H         1 RES1   0.0000
   186 H99       5.4794   -2.2507    3.5544   H         1 RES1   0.0000
   187 H100      2.8051   -2.9609    2.5199   H         1 RES1   0.0000
   188 H101      3.3544   -4.0675    3.7690   H         1 RES1   0.0000
   189 H102      5.5471   -4.2858    2.4630   H         1 RES1   0.0000
   190 H103      4.6803   -3.5522    1.1089   H         1 RES1   0.0000
   191 H104      2.9569   -5.4083    1.3168   H         1 RES1   0.0000
   192 H105      3.9308   -6.0929    2.6123   H         1 RES1   0.0000
   193 H106      4.4517   -7.3362    0.6851   H         1 RES1   0.0000
   194 H107      5.8482   -6.3024    0.9583   H         1 RES1   0.0000
   195 H108      3.6022   -5.7764   -1.0524   H         1 RES1   0.0000
   196 H109      5.2034   -6.4024   -1.4447   H         1 RES1   0.0000
   197 H110      5.0388   -4.7625   -0.8342   H         1 RES1   0.0000
   198 H111      2.9431    3.0381    0.1769   H         1 RES1   0.0000
   199 H112      0.9762    2.7000    2.4919   H         1 RES1   0.0000
   200 H113      1.6170    4.2401    1.8649   H         1 RES1   0.0000
   201 H114      2.6643    3.1414    2.7561   H         1 RES1   0.0000
   202 H115      1.5257    3.8678   -1.3110   H         1 RES1   0.0000
   203 H116     -1.2464    3.7387   -0.0182   H         1 RES1   0.0000
   204 H117     -0.7223    4.9775   -1.1675   H         1 RES1   0.0000
   205 H118      0.0272    4.8892    0.4168   H         1 RES1   0.0000
   206 H119      0.8257    4.9066   -3.0077   H         1 RES1   0.0000
   207 H120     -0.7387    5.0720   -3.8230   H         1 RES1   0.0000
   208 H121      0.3772    3.8554   -5.8178   H         1 RES1   0.0000
   209 H122      1.8884    4.0610   -4.9664   H         1 RES1   0.0000
   210 H123      0.6079    6.6075   -4.9321   H         1 RES1   0.0000
   211 H124      0.3592    6.0008   -6.5470   H         1 RES1   0.0000
   212 H125      3.0474    6.3244   -5.1504   H         1 RES1   0.0000
   213 H126      2.3313    7.4093   -6.3306   H         1 RES1   0.0000
   214 H127      3.7517    6.3045   -7.7119   H         1 RES1   0.0000
   215 H128      2.3579    5.2559   -7.9025   H         1 RES1   0.0000
   216 H129      3.3702    3.5874   -6.4271   H         1 RES1   0.0000
   217 H130      4.6357    4.7389   -5.9418   H         1 RES1   0.0000
   218 H131      5.6032    4.7104   -8.1477   H         1 RES1   0.0000
   219 H132      4.2569    3.7814   -8.7985   H         1 RES1   0.0000
   220 H133      6.2333    2.7643   -6.7020   H         1 RES1   0.0000
   221 H134      6.2312    2.3408   -8.4098   H         1 RES1   0.0000
   222 H135      4.8854    1.8384   -7.3847   H         1 RES1   0.0000
   223 H136     -1.3617    3.0447   -5.0547   H         1 RES1   0.0000
   224 H137     -2.0381    2.1671   -3.6727   H         1 RES1   0.0000
   225 H138     -1.2975    0.4001   -4.9077   H         1 RES1   0.0000
   226 H139      0.0950    0.6684   -3.8675   H         1 RES1   0.0000
   227 H140      0.8455    0.1870   -6.0893   H         1 RES1   0.0000
   228 H141      1.2306    1.8606   -5.7789   H         1 RES1   0.0000
   229 H142     -0.6457    2.6182   -7.1780   H         1 RES1   0.0000
   230 H143     -1.3171    0.9957   -7.2163   H         1 RES1   0.0000
   231 H144     -0.3309    1.4310   -9.3291   H         1 RES1   0.0000
   232 H145      0.6899    0.2389   -8.5225   H         1 RES1   0.0000
   233 H146      2.3588    1.9553   -8.0242   H         1 RES1   0.0000
   234 H147      1.2574    3.2318   -8.5476   H         1 RES1   0.0000
   235 H148      2.8178    2.9383  -10.3162   H         1 RES1   0.0000
   236 H149      1.3102    2.2313  -10.8707   H         1 RES1   0.0000
   237 H150      3.6501    0.6451   -9.7105   H         1 RES1   0.0000
   238 H151      3.3050    0.8358  -11.4255   H         1 RES1   0.0000
   239 H152      2.1802   -0.0426  -10.4049   H         1 RES1   0.0000
   240 C77       9.4976   -0.4087    2.3921   C.3       1 RES1   0.0000
   241 C78       8.7261   -1.5084    3.1122   C.3       1 RES1   0.0000
   242 C79       8.6837   -2.8552    2.3798   C.3       1 RES1   0.0000
   243 C80       7.6891   -2.9492    1.2147   C.3       1 RES1   0.0000
   244 C81       8.1939   -2.4667   -0.1457   C.3       1 RES1   0.0000
   245 C82       7.1495   -2.6281   -1.2599   C.3       1 RES1   0.0000
   246 C83       5.9354   -1.7240   -1.0283   C.3       1 RES1   0.0000
   247 C84       4.8359   -1.8404   -2.0900   C.3       1 RES1   0.0000
   248 N5        3.7497   -0.8853   -1.8806   N.am      1 RES1   0.0000
   249 C85       4.0991    0.5312   -2.0266   C.3       1 RES1   0.0000
   250 C86       3.7124    1.2565   -3.3209   C.3       1 RES1   0.0000
   251 C87       4.5917    2.5260   -3.4638   C.3       1 RES1   0.0000
   252 C88       3.9099    3.8723   -3.1707   C.3       1 RES1   0.0000
   253 C89       4.7742    4.9380   -2.4667   C.3       1 RES1   0.0000
   254 C90       4.5477    4.9644   -0.9565   C.3       1 RES1   0.0000
   255 C91       5.2188    6.1101   -0.1979   C.3       1 RES1   0.0000
   256 C92       4.7882    6.1046    1.2667   C.3       1 RES1   0.0000
   257 C93       2.4973   -1.1723   -1.5243   C.2       1 RES1   0.0000
   258 O7        1.6222   -0.2863   -1.5587   O.2       1 RES1   0.0000
   259 C94       2.0883   -2.5827   -1.0476   C.3       1 RES1   0.0000
   260 C95       1.5869   -3.4058   -2.2350   C.3       1 RES1   0.0000
   261 O8        1.0504   -2.3134   -0.0984   O.3       1 RES1   0.0000
   262 C96       0.5972   -3.3728    0.7508   C.3       1 RES1   0.0000
   263 C97      -0.5432   -4.1943    0.1290   C.3       1 RES1   0.0000
   264 C98      -0.0679   -2.6427    1.9381   C.2       1 RES1   0.0000
   265 O9       -0.6375   -1.5667    1.6504   O.2       1 RES1   0.0000
   266 N6       -0.1472   -3.1557    3.1612   N.am      1 RES1   0.0000
   267 C99       0.3175   -4.4872    3.5686   C.3       1 RES1   0.0000
   268 C100      0.8827   -4.5428    4.9948   C.3       1 RES1   0.0000
   269 C101      1.1336   -5.9741    5.5060   C.3       1 RES1   0.0000
   270 C102      2.5739   -6.5005    5.4495   C.3       1 RES1   0.0000
   271 C103      3.4993   -6.0756    6.6040   C.3       1 RES1   0.0000
   272 C104      4.2119   -4.7375    6.4130   C.3       1 RES1   0.0000
   273 C105      5.2850   -4.4816    7.4707   C.3       1 RES1   0.0000
   274 C106      5.9457   -3.1194    7.2879   C.3       1 RES1   0.0000
   275 C107     -1.0611   -2.4696    4.0884   C.3       1 RES1   0.0000
   276 C108     -0.5352   -1.1417    4.6512   C.3       1 RES1   0.0000
   277 C109      0.3823   -1.2528    5.8727   C.3       1 RES1   0.0000
   278 C110     -0.3609   -1.6842    7.1404   C.3       1 RES1   0.0000
   279 C111      0.4963   -1.6061    8.4075   C.3       1 RES1   0.0000
   280 C112      1.6887   -2.5594    8.3958   C.3       1 RES1   0.0000
   281 C113      2.4010   -2.6542    9.7458   C.3       1 RES1   0.0000
   282 C114      3.1541   -1.3862   10.1259   C.3       1 RES1   0.0000
   283 H153      9.6498    0.4366    3.0587   H         1 RES1   0.0000
   284 H154      8.9666   -0.0521    1.5137   H         1 RES1   0.0000
   285 H155     10.4729   -0.7698    2.0794   H         1 RES1   0.0000
   286 H156      7.7059   -1.1680    3.3231   H         1 RES1   0.0000
   287 H157      9.2079   -1.6754    4.0768   H         1 RES1   0.0000
   288 H158      8.3943   -3.6074    3.1181   H         1 RES1   0.0000
   289 H159      9.6862   -3.1110    2.0391   H         1 RES1   0.0000
   290 H160      6.7960   -2.3883    1.4965   H         1 RES1   0.0000
   291 H161      7.4002   -3.9960    1.0995   H         1 RES1   0.0000
   292 H162      9.0767   -3.0464   -0.4167   H         1 RES1   0.0000
   293 H163      8.4943   -1.4220   -0.0837   H         1 RES1   0.0000
   294 H164      6.8426   -3.6712   -1.3134   H         1 RES1   0.0000
   295 H165      7.6083   -2.3699   -2.2138   H         1 RES1   0.0000
   296 H166      6.3053   -0.7002   -0.9903   H         1 RES1   0.0000
   297 H167      5.4947   -1.9584   -0.0619   H         1 RES1   0.0000
   298 H168      4.4339   -2.8520   -2.0960   H         1 RES1   0.0000
   299 H169      5.2504   -1.6428   -3.0832   H         1 RES1   0.0000
   300 H170      5.1852    0.5746   -1.9373   H         1 RES1   0.0000
   301 H171      3.6464    1.0604   -1.1829   H         1 RES1   0.0000
   302 H172      2.6524    1.5108   -3.3060   H         1 RES1   0.0000
   303 H173      3.8861    0.5992   -4.1712   H         1 RES1   0.0000
   304 H174      5.0079    2.5586   -4.4710   H         1 RES1   0.0000
   305 H175      5.4455    2.4198   -2.7992   H         1 RES1   0.0000
   306 H176      3.0090    3.6986   -2.5818   H         1 RES1   0.0000
   307 H177      3.5965    4.2947   -4.1216   H         1 RES1   0.0000
   308 H178      4.5208    5.9205   -2.8682   H         1 RES1   0.0000
   309 H179      5.8256    4.7729   -2.6926   H         1 RES1   0.0000
   310 H180      4.8858    4.0172   -0.5296   H         1 RES1   0.0000
   311 H181      3.4685    5.0581   -0.7861   H         1 RES1   0.0000
   312 H182      4.9412    7.0639   -0.6462   H         1 RES1   0.0000
   313 H183      6.3036    6.0272   -0.2531   H         1 RES1   0.0000
   314 H184      3.7039    6.1411    1.3483   H         1 RES1   0.0000
   315 H185      5.1838    6.9681    1.7919   H         1 RES1   0.0000
   316 H186      5.1382    5.2080    1.7793   H         1 RES1   0.0000
   317 H187      2.9273   -3.0782   -0.5438   H         1 RES1   0.0000
   318 H188      0.5669   -3.1087   -2.4609   H         1 RES1   0.0000
   319 H189      1.6112   -4.4680   -2.0147   H         1 RES1   0.0000
   320 H190      2.1974   -3.2325   -3.1155   H         1 RES1   0.0000
   321 H191      1.4406   -4.0095    1.0314   H         1 RES1   0.0000
   322 H192     -1.2153   -3.5151   -0.3944   H         1 RES1   0.0000
   323 H193     -1.0972   -4.7035    0.9140   H         1 RES1   0.0000
   324 H194     -0.1830   -4.9397   -0.5702   H         1 RES1   0.0000
   325 H195      1.0825   -4.8269    2.8758   H         1 RES1   0.0000
   326 H196     -0.5366   -5.1713    3.4940   H         1 RES1   0.0000
   327 H197      0.1724   -4.0881    5.6760   H         1 RES1   0.0000
   328 H198      1.7960   -3.9560    5.0422   H         1 RES1   0.0000
   329 H199      0.4912   -6.6575    4.9483   H         1 RES1   0.0000
   330 H200      0.8077   -6.0297    6.5446   H         1 RES1   0.0000
   331 H201      3.0393   -6.2382    4.4984   H         1 RES1   0.0000
   332 H202      2.5044   -7.5895    5.4803   H         1 RES1   0.0000
   333 H203      4.2722   -6.8387    6.7122   H         1 RES1   0.0000
   334 H204      2.9371   -6.0585    7.5384   H         1 RES1   0.0000
   335 H205      3.4867   -3.9232    6.4554   H         1 RES1   0.0000
   336 H206      4.6959   -4.7289    5.4336   H         1 RES1   0.0000
   337 H207      6.0460   -5.2600    7.4087   H         1 RES1   0.0000
   338 H208      4.8423   -4.5337    8.4652   H         1 RES1   0.0000
   339 H209      6.3827   -3.0363    6.2943   H         1 RES1   0.0000
   340 H210      6.7395   -2.9780    8.0164   H         1 RES1   0.0000
   341 H211      5.2187   -2.3191    7.4168   H         1 RES1   0.0000
   342 H212     -1.2943   -3.1544    4.8969   H         1 RES1   0.0000
   343 H213     -1.9873   -2.2832    3.5371   H         1 RES1   0.0000
   344 H214     -1.4012   -0.5437    4.9455   H         1 RES1   0.0000
   345 H215     -0.0189   -0.6114    3.8459   H         1 RES1   0.0000
   346 H216      0.8160   -0.2681    6.0552   H         1 RES1   0.0000
   347 H217      1.2072   -1.9326    5.6716   H         1 RES1   0.0000
   348 H218     -0.7313   -2.7069    7.0378   H         1 RES1   0.0000
   349 H219     -1.2304   -1.0362    7.2749   H         1 RES1   0.0000
   350 H220     -0.1371   -1.8512    9.2623   H         1 RES1   0.0000
   351 H221      0.8476   -0.5822    8.5376   H         1 RES1   0.0000
   352 H222      2.4110   -2.2316    7.6448   H         1 RES1   0.0000
   353 H223      1.3410   -3.5578    8.1182   H         1 RES1   0.0000
   354 H224      3.1111   -3.4817    9.7046   H         1 RES1   0.0000
   355 H225      1.6750   -2.8892   10.5243   H         1 RES1   0.0000
   356 H226      3.8432   -1.0934    9.3373   H         1 RES1   0.0000
   357 H227      3.7304   -1.5522   11.0308   H         1 RES1   0.0000
   358 H228      2.4720   -0.5625   10.3116   H         1 RES1   0.0000
@<TRIPOS>BOND
     1     1    20    1
     2     1    23    1
     3     1    27    1
     4     1   139    1
     5     1   142    1
     6     1   146    1
     7     1   258    1
     8     1   261    1
     9     1   265    1
    10     2     3    1
    11     2    45    1
    12     2    46    1
    13     2    47    1
    14     3     4    1
    15     3    48    1
    16     3    49    1
    17     4     5    1
    18     4    50    1
    19     4    51    1
    20     5     6    1
    21     5    52    1
    22     5    53    1
    23     6     7    1
    24     6    54    1
    25     6    55    1
    26     7     8    1
    27     7    56    1
    28     7    57    1
    29     8     9    1
    30     8    58    1
    31     8    59    1
    32     9    10    1
    33     9    60    1
    34     9    61    1
    35    10    11    1
    36    10    19    1
    37    11    12    1
    38    11    62    1
    39    11    63    1
    40    12    13    1
    41    12    64    1
    42    12    65    1
    43    13    14    1
    44    13    66    1
    45    13    67    1
    46    14    15    1
    47    14    68    1
    48    14    69    1
    49    15    16    1
    50    15    70    1
    51    15    71    1
    52    16    17    1
    53    16    72    1
    54    16    73    1
    55    17    18    1
    56    17    74    1
    57    17    75    1
    58    18    76    1
    59    18    77    1
    60    18    78    1
    61    19    20    2
    62    19    21    1
    63    21    22    1
    64    21    23    1
    65    21    79    1
    66    22    80    1
    67    22    81    1
    68    22    82    1
    69    23    24    1
    70    24    25    1
    71    24    26    1
    72    24    83    1
    73    25    84    1
    74    25    85    1
    75    25    86    1
    76    26    27    2
    77    26    28    1
    78    28    29    1
    79    28    37    1
    80    29    30    1
    81    29    87    1
    82    29    88    1
    83    30    31    1
    84    30    89    1
    85    30    90    1
    86    31    32    1
    87    31    91    1
    88    31    92    1
    89    32    33    1
    90    32    93    1
    91    32    94    1
    92    33    34    1
    93    33    95    1
    94    33    96    1
    95    34    35    1
    96    34    97    1
    97    34    98    1
    98    35    36    1
    99    35    99    1
   100    35   100    1
   101    36   101    1
   102    36   102    1
   103    36   103    1
   104    37    38    1
   105    37   104    1
   106    37   105    1
   107    38    39    1
   108    38   106    1
   109    38   107    1
   110    39    40    1
   111    39   108    1
   112    39   109    1
   113    40    41    1
   114    40   110    1
   115    40   111    1
   116    41    42    1
   117    41   112    1
   118    41   113    1
   119    42    43    1
   120    42   114    1
   121    42   115    1
   122    43    44    1
   123    43   116    1
   124    43   117    1
   125    44   118    1
   126    44   119    1
   127    44   120    1
   128   121   122    1
   129   121   164    1
   130   121   165    1
   131   121   166    1
   132   122   123    1
   133   122   167    1
   134   122   168    1
   135   123   124    1
   136   123   169    1
   137   123   170    1
   138   124   125    1
   139   124   171    1
   140   124   172    1
   141   125   126    1
   142   125   173    1
   143   125   174    1
   144   126   127    1
   145   126   175    1
   146   126   176    1
   147   127   128    1
   148   127   177    1
   149   127   178    1
   150   128   129    1
   151   128   179    1
   152   128   180    1
   153   129   130    1
   154   129   138    1
   155   130   131    1
   156   130   181    1
   157   130   182    1
   158   131   132    1
   159   131   183    1
   160   131   184    1
   161   132   133    1
   162   132   185    1
   163   132   186    1
   164   133   134    1
   165   133   187    1
   166   133   188    1
   167   134   135    1
   168   134   189    1
   169   134   190    1
   170   135   136    1
   171   135   191    1
   172   135   192    1
   173   136   137    1
   174   136   193    1
   175   136   194    1
   176   137   195    1
   177   137   196    1
   178   137   197    1
   179   138   139    2
   180   138   140    1
   181   140   141    1
   182   140   142    1
   183   140   198    1
   184   141   199    1
   185   141   200    1
   186   141   201    1
   187   142   143    1
   188   143   144    1
   189   143   145    1
   190   143   202    1
   191   144   203    1
   192   144   204    1
   193   144   205    1
   194   145   146    2
   195   145   147    1
   196   147   148    1
   197   147   156    1
   198   148   149    1
   199   148   206    1
   200   148   207    1
   201   149   150    1
   202   149   208    1
   203   149   209    1
   204   150   151    1
   205   150   210    1
   206   150   211    1
   207   151   152    1
   208   151   212    1
   209   151   213    1
   210   152   153    1
   211   152   214    1
   212   152   215    1
   213   153   154    1
   214   153   216    1
   215   153   217    1
   216   154   155    1
   217   154   218    1
   218   154   219    1
   219   155   220    1
   220   155   221    1
   221   155   222    1
   222   156   157    1
   223   156   223    1
   224   156   224    1
   225   157   158    1
   226   157   225    1
   227   157   226    1
   228   158   159    1
   229   158   227    1
   230   158   228    1
   231   159   160    1
   232   159   229    1
   233   159   230    1
   234   160   161    1
   235   160   231    1
   236   160   232    1
   237   161   162    1
   238   161   233    1
   239   161   234    1
   240   162   163    1
   241   162   235    1
   242   162   236    1
   243   163   237    1
   244   163   238    1
   245   163   239    1
   246   240   241    1
   247   240   283    1
   248   240   284    1
   249   240   285    1
   250   241   242    1
   251   241   286    1
   252   241   287    1
   253   242   243    1
   254   242   288    1
   255   242   289    1
   256   243   244    1
   257   243   290    1
   258   243   291    1
   259   244   245    1
   260   244   292    1
   261   244   293    1
   262   245   246    1
   263   245   294    1
   264   245   295    1
   265   246   247    1
   266   246   296    1
   267   246   297    1
   268   247   248    1
   269   247   298    1
   270   247   299    1
   271   248   249    1
   272   248   257    1
   273   249   250    1
   274   249   300    1
   275   249   301    1
   276   250   251    1
   277   250   302    1
   278   250   303    1
   279   251   252    1
   280   251   304    1
   281   251   305    1
   282   252   253    1
   283   252   306    1
   284   252   307    1
   285   253   254    1
   286   253   308    1
   287   253   309    1
   288   254   255    1
   289   254   310    1
   290   254   311    1
   291   255   256    1
   292   255   312    1
   293   255   313    1
   294   256   314    1
   295   256   315    1
   296   256   316    1
   297   257   258    2
   298   257   259    1
   299   259   260    1
   300   259   261    1
   301   259   317    1
   302   260   318    1
   303   260   319    1
   304   260   320    1
   305   261   262    1
   306   262   263    1
   307   262   264    1
   308   262   321    1
   309   263   322    1
   310   263   323    1
   311   263   324    1
   312   264   265    2
   313   264   266    1
   314   266   267    1
   315   266   275    1
   316   267   268    1
   317   267   325    1
   318   267   326    1
   319   268   269    1
   320   268   327    1
   321   268   328    1
   322   269   270    1
   323   269   329    1
   324   269   330    1
   325   270   271    1
   326   270   331    1
   327   270   332    1
   328   271   272    1
   329   271   333    1
   330   271   334    1
   331   272   273    1
   332   272   335    1
   333   272   336    1
   334   273   274    1
   335   273   337    1
   336   273   338    1
   337   274   339    1
   338   274   340    1
   339   274   341    1
   340   275   276    1
   341   275   342    1
   342   275   343    1
   343   276   277    1
   344   276   344    1
   345   276   345    1
   346   277   278    1
   347   277   346    1
   348   277   347    1
   349   278   279    1
   350   278   348    1
   351   278   349    1
   352   279   280    1
   353   279   350    1
   354   279   351    1
   355   280   281    1
   356   280   352    1
   357   280   353    1
   358   281   282    1
   359   281   354    1
   360   281   355    1
   361   282   356    1
   362   282   357    1
   363   282   358    1
@<TRIPOS>SUBSTRUCTURE
     1 RES1      358 GROUP             0 ****  ****    0  
