@<TRIPOS>MOLECULE
capped_square_antiprismatic_0_nunpairedes_0_charge_3 Charge: 3 Unpaired_Electrons: 3 XTB_Unpaired_Electrons: 0 XTB_Charge: 3
   466   471     1     0     0
SMALL
NoCharges
****
Generated from Architector

@<TRIPOS>ATOM
     1 Nd1      -0.0696   -0.0689    0.0932   Nd        1 RES1   0.0000
     2 C1       -5.6990    4.5015   -1.2566   C.3       1 RES1   0.0000
     3 C2       -5.0241    5.6591   -1.9789   C.3       1 RES1   0.0000
     4 C3       -4.9704    6.9175   -1.1147   C.3       1 RES1   0.0000
     5 C4       -4.1282    6.7108    0.1479   C.3       1 RES1   0.0000
     6 C5       -4.9058    6.2990    1.4007   C.3       1 RES1   0.0000
     7 C6       -3.9554    5.7312    2.4558   C.3       1 RES1   0.0000
     8 C7       -4.6899    5.3555    3.7394   C.3       1 RES1   0.0000
     9 C8       -3.7461    4.8579    4.8471   C.3       1 RES1   0.0000
    10 C9       -3.8740    3.3757    5.2325   C.3       1 RES1   0.0000
    11 C10      -2.7570    2.4320    4.7502   C.3       1 RES1   0.0000
    12 N1       -2.8317    1.8902    3.3836   N.am      1 RES1   0.0000
    13 C11      -4.1331    1.9452    2.7103   C.3       1 RES1   0.0000
    14 C12      -5.2380    1.1358    3.4129   C.3       1 RES1   0.0000
    15 C13      -5.4057   -0.2915    2.8944   C.3       1 RES1   0.0000
    16 C14      -6.0246   -1.2157    3.9487   C.3       1 RES1   0.0000
    17 C15      -7.5368   -1.0550    4.0811   C.3       1 RES1   0.0000
    18 C16      -8.1545   -2.0067    5.1169   C.3       1 RES1   0.0000
    19 C17      -8.4504   -1.3555    6.4701   C.3       1 RES1   0.0000
    20 C18      -7.2127   -0.8569    7.2151   C.3       1 RES1   0.0000
    21 C19      -7.5657   -0.3718    8.6208   C.3       1 RES1   0.0000
    22 C20      -6.3661    0.2461    9.3296   C.3       1 RES1   0.0000
    23 C21      -1.7723    1.3720    2.7609   C.2       1 RES1   0.0000
    24 O1       -1.8002    0.9974    1.5680   O.2       1 RES1   0.0000
    25 C22      -0.4000    1.2753    3.4591   C.3       1 RES1   0.0000
    26 C23       0.2437    2.6819    3.4179   C.3       1 RES1   0.0000
    27 C24       0.8754    3.1395    4.7390   C.3       1 RES1   0.0000
    28 C25       0.8408    4.6589    4.8317   C.3       1 RES1   0.0000
    29 O2        0.3394    0.3213    2.6847   O.3       1 RES1   0.0000
    30 C26       1.3960   -0.3732    3.3606   C.3       1 RES1   0.0000
    31 C27       2.7533    0.3489    3.1749   C.3       1 RES1   0.0000
    32 C28       3.7320   -0.4283    2.2885   C.3       1 RES1   0.0000
    33 C29       5.0447    0.3177    2.0329   C.3       1 RES1   0.0000
    34 C30       1.4758   -1.7555    2.6847   C.2       1 RES1   0.0000
    35 O3        1.0960   -1.8269    1.5045   O.2       1 RES1   0.0000
    36 N2        1.9384   -2.8353    3.3242   N.am      1 RES1   0.0000
    37 C31       1.8039   -4.1034    2.5956   C.3       1 RES1   0.0000
    38 C32       2.8347   -4.2528    1.4727   C.3       1 RES1   0.0000
    39 C33       2.4921   -5.3733    0.4703   C.3       1 RES1   0.0000
    40 C34       3.3149   -6.6625    0.5429   C.3       1 RES1   0.0000
    41 C35       2.9067   -7.5806    1.6946   C.3       1 RES1   0.0000
    42 C36       3.6964   -7.3200    2.9732   C.3       1 RES1   0.0000
    43 C37       3.3683   -8.2848    4.1164   C.3       1 RES1   0.0000
    44 C38       2.1414   -7.9298    4.9638   C.3       1 RES1   0.0000
    45 C39       0.7695   -8.0726    4.2993   C.3       1 RES1   0.0000
    46 C40       0.5018   -9.4732    3.7657   C.3       1 RES1   0.0000
    47 C41       2.3067   -2.8306    4.7436   C.3       1 RES1   0.0000
    48 C42       3.3481   -3.8675    5.1762   C.3       1 RES1   0.0000
    49 C43       4.8017   -3.4442    4.9604   C.3       1 RES1   0.0000
    50 C44       5.3261   -2.6058    6.1273   C.3       1 RES1   0.0000
    51 C45       6.8527   -2.5499    6.1641   C.3       1 RES1   0.0000
    52 C46       7.3640   -1.8311    7.4166   C.3       1 RES1   0.0000
    53 C47       8.8909   -1.7177    7.5213   C.3       1 RES1   0.0000
    54 C48       9.5458   -0.6034    6.6927   C.3       1 RES1   0.0000
    55 C49       9.8751   -0.9377    5.2352   C.3       1 RES1   0.0000
    56 C50      10.9754   -1.9817    5.1104   C.3       1 RES1   0.0000
    57 H1       -5.7958    3.6431   -1.9118   H         1 RES1   0.0000
    58 H2       -6.6945    4.8049   -0.9467   H         1 RES1   0.0000
    59 H3       -5.1438    4.2066   -0.3703   H         1 RES1   0.0000
    60 H4       -5.5775    5.8876   -2.8905   H         1 RES1   0.0000
    61 H5       -4.0067    5.3759   -2.2805   H         1 RES1   0.0000
    62 H6       -5.9830    7.2199   -0.8467   H         1 RES1   0.0000
    63 H7       -4.5418    7.7284   -1.7060   H         1 RES1   0.0000
    64 H8       -3.5903    7.6325    0.3700   H         1 RES1   0.0000
    65 H9       -3.3907    5.9319   -0.0649   H         1 RES1   0.0000
    66 H10      -5.6685    5.5592    1.1568   H         1 RES1   0.0000
    67 H11      -5.4219    7.1643    1.8182   H         1 RES1   0.0000
    68 H12      -3.1972    6.4837    2.6866   H         1 RES1   0.0000
    69 H13      -3.4369    4.8517    2.0519   H         1 RES1   0.0000
    70 H14      -5.4476    4.6049    3.5103   H         1 RES1   0.0000
    71 H15      -5.2300    6.2369    4.0860   H         1 RES1   0.0000
    72 H16      -3.9462    5.4482    5.7391   H         1 RES1   0.0000
    73 H17      -2.7173    5.0728    4.5592   H         1 RES1   0.0000
    74 H18      -4.8634    3.0271    4.9593   H         1 RES1   0.0000
    75 H19      -3.8172    3.3177    6.3195   H         1 RES1   0.0000
    76 H20      -2.7110    1.5919    5.4524   H         1 RES1   0.0000
    77 H21      -1.8229    2.9826    4.8435   H         1 RES1   0.0000
    78 H22      -3.9962    1.5914    1.6903   H         1 RES1   0.0000
    79 H23      -4.4290    2.9914    2.6623   H         1 RES1   0.0000
    80 H24      -6.1803    1.6708    3.2914   H         1 RES1   0.0000
    81 H25      -5.0285    1.0723    4.4791   H         1 RES1   0.0000
    82 H26      -4.4236   -0.6785    2.6279   H         1 RES1   0.0000
    83 H27      -6.0236   -0.2883    1.9941   H         1 RES1   0.0000
    84 H28      -5.5581   -1.0232    4.9166   H         1 RES1   0.0000
    85 H29      -5.8087   -2.2522    3.6815   H         1 RES1   0.0000
    86 H30      -7.9856   -1.2445    3.1052   H         1 RES1   0.0000
    87 H31      -7.7735   -0.0277    4.3563   H         1 RES1   0.0000
    88 H32      -7.4952   -2.8648    5.2690   H         1 RES1   0.0000
    89 H33      -9.0984   -2.3905    4.7263   H         1 RES1   0.0000
    90 H34      -8.9626   -2.0896    7.0968   H         1 RES1   0.0000
    91 H35      -9.1385   -0.5194    6.3204   H         1 RES1   0.0000
    92 H36      -6.7591   -0.0293    6.6615   H         1 RES1   0.0000
    93 H37      -6.4769   -1.6646    7.2865   H         1 RES1   0.0000
    94 H38      -7.9413   -1.2118    9.2083   H         1 RES1   0.0000
    95 H39      -8.3655    0.3685    8.5532   H         1 RES1   0.0000
    96 H40      -5.5634   -0.4829    9.4300   H         1 RES1   0.0000
    97 H41      -6.6472    0.5845   10.3232   H         1 RES1   0.0000
    98 H42      -5.9900    1.1041    8.7724   H         1 RES1   0.0000
    99 H43      -0.4945    0.9235    4.4964   H         1 RES1   0.0000
   100 H44       0.9817    2.6837    2.6118   H         1 RES1   0.0000
   101 H45      -0.5205    3.4087    3.1296   H         1 RES1   0.0000
   102 H46       1.9069    2.7958    4.8122   H         1 RES1   0.0000
   103 H47       0.3381    2.7170    5.5906   H         1 RES1   0.0000
   104 H48       1.3542    5.0952    3.9800   H         1 RES1   0.0000
   105 H49       1.3277    5.0015    5.7378   H         1 RES1   0.0000
   106 H50      -0.1809    5.0307    4.8407   H         1 RES1   0.0000
   107 H51       1.1238   -0.4629    4.4209   H         1 RES1   0.0000
   108 H52       2.5707    1.3129    2.7011   H         1 RES1   0.0000
   109 H53       3.1775    0.5312    4.1627   H         1 RES1   0.0000
   110 H54       3.2283   -0.6444    1.3399   H         1 RES1   0.0000
   111 H55       3.9586   -1.3734    2.7811   H         1 RES1   0.0000
   112 H56       5.0689    0.7416    1.0361   H         1 RES1   0.0000
   113 H57       5.8879   -0.3633    2.1134   H         1 RES1   0.0000
   114 H58       5.1824    1.1180    2.7520   H         1 RES1   0.0000
   115 H59       0.8123   -4.1061    2.1423   H         1 RES1   0.0000
   116 H60       1.8482   -4.9318    3.2978   H         1 RES1   0.0000
   117 H61       3.8264   -4.4200    1.8896   H         1 RES1   0.0000
   118 H62       2.8420   -3.3006    0.9385   H         1 RES1   0.0000
   119 H63       2.6217   -4.9719   -0.5385   H         1 RES1   0.0000
   120 H64       1.4431   -5.6615    0.5873   H         1 RES1   0.0000
   121 H65       4.3776   -6.4311    0.6084   H         1 RES1   0.0000
   122 H66       3.1626   -7.1970   -0.3975   H         1 RES1   0.0000
   123 H67       3.0609   -8.6185    1.3995   H         1 RES1   0.0000
   124 H68       1.8409   -7.4544    1.8765   H         1 RES1   0.0000
   125 H69       3.5351   -6.2953    3.3088   H         1 RES1   0.0000
   126 H70       4.7591   -7.4148    2.7393   H         1 RES1   0.0000
   127 H71       4.2259   -8.3065    4.7944   H         1 RES1   0.0000
   128 H72       3.2540   -9.2914    3.7148   H         1 RES1   0.0000
   129 H73       2.2484   -6.9037    5.3322   H         1 RES1   0.0000
   130 H74       2.1545   -8.5874    5.8356   H         1 RES1   0.0000
   131 H75       0.6562   -7.3391    3.4954   H         1 RES1   0.0000
   132 H76       0.0131   -7.8394    5.0506   H         1 RES1   0.0000
   133 H77       1.1781   -9.7214    2.9532   H         1 RES1   0.0000
   134 H78      -0.5169   -9.5515    3.3922   H         1 RES1   0.0000
   135 H79       0.6329  -10.2065    4.5569   H         1 RES1   0.0000
   136 H80       1.3920   -2.9801    5.3326   H         1 RES1   0.0000
   137 H81       2.7036   -1.8461    4.9848   H         1 RES1   0.0000
   138 H82       3.1714   -4.8178    4.6831   H         1 RES1   0.0000
   139 H83       3.2051   -4.0343    6.2448   H         1 RES1   0.0000
   140 H84       4.8966   -2.8943    4.0231   H         1 RES1   0.0000
   141 H85       5.4229   -4.3369    4.8720   H         1 RES1   0.0000
   142 H86       4.9805   -3.0504    7.0632   H         1 RES1   0.0000
   143 H87       4.9197   -1.5924    6.0775   H         1 RES1   0.0000
   144 H88       7.2166   -2.0592    5.2615   H         1 RES1   0.0000
   145 H89       7.2377   -3.5720    6.1619   H         1 RES1   0.0000
   146 H90       7.0081   -2.3862    8.2890   H         1 RES1   0.0000
   147 H91       6.9290   -0.8299    7.4836   H         1 RES1   0.0000
   148 H92       9.3412   -2.6794    7.2755   H         1 RES1   0.0000
   149 H93       9.1219   -1.5182    8.5707   H         1 RES1   0.0000
   150 H94      10.4840   -0.3356    7.1819   H         1 RES1   0.0000
   151 H95       8.9092    0.2833    6.7285   H         1 RES1   0.0000
   152 H96      10.2091   -0.0192    4.7475   H         1 RES1   0.0000
   153 H97       8.9864   -1.2839    4.7051   H         1 RES1   0.0000
   154 H98      11.8731   -1.6418    5.6195   H         1 RES1   0.0000
   155 H99      11.2207   -2.1596    4.0659   H         1 RES1   0.0000
   156 H100     10.6684   -2.9258    5.5517   H         1 RES1   0.0000
   157 C51       4.7951    6.9217   -2.1324   C.3       1 RES1   0.0000
   158 C52       3.3854    6.6503   -2.6533   C.3       1 RES1   0.0000
   159 C53       3.3486    5.7552   -3.9049   C.3       1 RES1   0.0000
   160 C54       2.9952    4.2834   -3.6502   C.3       1 RES1   0.0000
   161 C55       3.1745    3.4688   -4.9360   C.3       1 RES1   0.0000
   162 C56       2.6469    2.0257   -4.9165   C.3       1 RES1   0.0000
   163 C57       3.5479    1.0000   -4.2057   C.3       1 RES1   0.0000
   164 C58       3.5633   -0.3325   -4.9618   C.3       1 RES1   0.0000
   165 C59       4.4734   -1.4373   -4.4098   C.3       1 RES1   0.0000
   166 C60       3.8753   -2.3621   -3.3319   C.3       1 RES1   0.0000
   167 N3        3.4842   -1.6776   -2.1097   N.am      1 RES1   0.0000
   168 C61       4.5682   -0.9136   -1.4823   C.3       1 RES1   0.0000
   169 C62       5.7705   -1.7589   -1.0461   C.3       1 RES1   0.0000
   170 C63       5.3612   -2.8239   -0.0378   C.3       1 RES1   0.0000
   171 C64       6.4833   -3.7546    0.4119   C.3       1 RES1   0.0000
   172 C65       7.5695   -3.0960    1.2638   C.3       1 RES1   0.0000
   173 C66       8.3441   -4.1011    2.1260   C.3       1 RES1   0.0000
   174 C67       9.4264   -4.9033    1.3967   C.3       1 RES1   0.0000
   175 C68       8.8933   -5.7828    0.2662   C.3       1 RES1   0.0000
   176 C69       9.8970   -6.8233   -0.2212   C.3       1 RES1   0.0000
   177 C70       9.3341   -7.5873   -1.4151   C.3       1 RES1   0.0000
   178 C71       2.2458   -1.5794   -1.6170   C.2       1 RES1   0.0000
   179 O4        1.9596   -0.7175   -0.7643   O.2       1 RES1   0.0000
   180 C72       1.1262   -2.5931   -2.0017   C.3       1 RES1   0.0000
   181 C73       0.6315   -2.4257   -3.4557   C.3       1 RES1   0.0000
   182 C74       0.7184   -3.6858   -4.3404   C.3       1 RES1   0.0000
   183 C75       1.1182   -3.3315   -5.7686   C.3       1 RES1   0.0000
   184 O5        0.0199   -2.3714   -1.0961   O.3       1 RES1   0.0000
   185 C76      -0.4693   -3.5373   -0.4023   C.3       1 RES1   0.0000
   186 C77      -1.2023   -4.5018   -1.3549   C.3       1 RES1   0.0000
   187 C78      -2.7215   -4.4879   -1.2410   C.3       1 RES1   0.0000
   188 C79      -3.3195   -3.1949   -1.7753   C.3       1 RES1   0.0000
   189 C80      -1.2438   -3.0079    0.8310   C.2       1 RES1   0.0000
   190 O6       -1.4346   -1.7832    0.9210   O.2       1 RES1   0.0000
   191 N4       -1.5325   -3.8061    1.8751   N.am      1 RES1   0.0000
   192 C81      -1.4460   -3.1901    3.2121   C.3       1 RES1   0.0000
   193 C82      -2.6156   -2.3430    3.7016   C.3       1 RES1   0.0000
   194 C83      -2.2346   -1.5365    4.9593   C.3       1 RES1   0.0000
   195 C84      -2.9114   -1.9359    6.2736   C.3       1 RES1   0.0000
   196 C85      -2.3621   -3.2003    6.9391   C.3       1 RES1   0.0000
   197 C86      -3.1374   -4.4659    6.5805   C.3       1 RES1   0.0000
   198 C87      -2.8112   -5.6755    7.4641   C.3       1 RES1   0.0000
   199 C88      -1.5639   -6.4686    7.0615   C.3       1 RES1   0.0000
   200 C89      -0.2070   -5.8286    7.3686   C.3       1 RES1   0.0000
   201 C90      -0.0140   -5.5111    8.8455   C.3       1 RES1   0.0000
   202 C91      -1.6974   -5.2608    1.8777   C.3       1 RES1   0.0000
   203 C92      -3.0024   -5.7188    2.5573   C.3       1 RES1   0.0000
   204 C93      -4.3289   -5.4987    1.8165   C.3       1 RES1   0.0000
   205 C94      -4.6796   -6.6354    0.8518   C.3       1 RES1   0.0000
   206 C95      -6.0000   -6.4438    0.0899   C.3       1 RES1   0.0000
   207 C96      -5.8939   -5.4062   -1.0286   C.3       1 RES1   0.0000
   208 C97      -7.1379   -5.2050   -1.9054   C.3       1 RES1   0.0000
   209 C98      -8.0706   -4.0880   -1.4297   C.3       1 RES1   0.0000
   210 C99      -8.8543   -4.3983   -0.1557   C.3       1 RES1   0.0000
   211 C100     -9.7487   -5.6203   -0.3087   C.3       1 RES1   0.0000
   212 H101      4.7641    7.5451   -1.2424   H         1 RES1   0.0000
   213 H102      5.3818    7.4500   -2.8773   H         1 RES1   0.0000
   214 H103      5.3195    6.0021   -1.8868   H         1 RES1   0.0000
   215 H104      2.9306    7.6124   -2.8937   H         1 RES1   0.0000
   216 H105      2.7798    6.1957   -1.8647   H         1 RES1   0.0000
   217 H106      4.3224    5.7960   -4.3925   H         1 RES1   0.0000
   218 H107      2.6182    6.1551   -4.6120   H         1 RES1   0.0000
   219 H108      1.9551    4.2076   -3.3118   H         1 RES1   0.0000
   220 H109      3.6199    3.8739   -2.8588   H         1 RES1   0.0000
   221 H110      4.2347    3.4464   -5.1985   H         1 RES1   0.0000
   222 H111      2.6549    4.0037   -5.7361   H         1 RES1   0.0000
   223 H112      2.5446    1.7198   -5.9596   H         1 RES1   0.0000
   224 H113      1.6451    2.0054   -4.4780   H         1 RES1   0.0000
   225 H114      3.1997    0.8582   -3.1809   H         1 RES1   0.0000
   226 H115      4.5619    1.3979   -4.1751   H         1 RES1   0.0000
   227 H116      3.8944   -0.1173   -5.9791   H         1 RES1   0.0000
   228 H117      2.5434   -0.7081   -5.0361   H         1 RES1   0.0000
   229 H118      5.4099   -1.0040   -4.0617   H         1 RES1   0.0000
   230 H119      4.7303   -2.1012   -5.2373   H         1 RES1   0.0000
   231 H120      4.6337   -3.1087   -3.0820   H         1 RES1   0.0000
   232 H121      3.0170   -2.8790   -3.7429   H         1 RES1   0.0000
   233 H122      4.1466   -0.4242   -0.6069   H         1 RES1   0.0000
   234 H123      4.9152   -0.1487   -2.1737   H         1 RES1   0.0000
   235 H124      6.4880   -1.0751   -0.5902   H         1 RES1   0.0000
   236 H125      6.2661   -2.2211   -1.8996   H         1 RES1   0.0000
   237 H126      4.5850   -3.4435   -0.4906   H         1 RES1   0.0000
   238 H127      4.9356   -2.3250    0.8310   H         1 RES1   0.0000
   239 H128      6.9275   -4.2058   -0.4709   H         1 RES1   0.0000
   240 H129      6.0328   -4.5620    0.9951   H         1 RES1   0.0000
   241 H130      7.1011   -2.3714    1.9365   H         1 RES1   0.0000
   242 H131      8.2702   -2.5491    0.6320   H         1 RES1   0.0000
   243 H132      7.6372   -4.8014    2.5795   H         1 RES1   0.0000
   244 H133      8.8237   -3.5599    2.9456   H         1 RES1   0.0000
   245 H134      9.9170   -5.5406    2.1370   H         1 RES1   0.0000
   246 H135     10.1837   -4.2226    1.0019   H         1 RES1   0.0000
   247 H136      8.6343   -5.1575   -0.5903   H         1 RES1   0.0000
   248 H137      7.9899   -6.2965    0.6077   H         1 RES1   0.0000
   249 H138     10.1291   -7.5203    0.5855   H         1 RES1   0.0000
   250 H139     10.8243   -6.3250   -0.5096   H         1 RES1   0.0000
   251 H140      8.4191   -8.1103   -1.1402   H         1 RES1   0.0000
   252 H141     10.0504   -8.3183   -1.7774   H         1 RES1   0.0000
   253 H142      9.1033   -6.9039   -2.2314   H         1 RES1   0.0000
   254 H143      1.5268   -3.6025   -1.8373   H         1 RES1   0.0000
   255 H144     -0.4034   -2.0905   -3.3864   H         1 RES1   0.0000
   256 H145      1.1781   -1.6075   -3.9251   H         1 RES1   0.0000
   257 H146     -0.2469   -4.1921   -4.3787   H         1 RES1   0.0000
   258 H147      1.4309   -4.4066   -3.9315   H         1 RES1   0.0000
   259 H148      0.4939   -2.5277   -6.1484   H         1 RES1   0.0000
   260 H149      1.0065   -4.1903   -6.4215   H         1 RES1   0.0000
   261 H150      2.1529   -3.0096   -5.8286   H         1 RES1   0.0000
   262 H151      0.3983   -4.0497    0.0309   H         1 RES1   0.0000
   263 H152     -0.9443   -4.2201   -2.3734   H         1 RES1   0.0000
   264 H153     -0.8215   -5.5127   -1.1962   H         1 RES1   0.0000
   265 H154     -3.0241   -4.6034   -0.2076   H         1 RES1   0.0000
   266 H155     -3.0981   -5.3440   -1.8006   H         1 RES1   0.0000
   267 H156     -2.6327   -2.3733   -1.5752   H         1 RES1   0.0000
   268 H157     -4.2660   -2.9788   -1.2879   H         1 RES1   0.0000
   269 H158     -3.5083   -3.2802   -2.8395   H         1 RES1   0.0000
   270 H159     -0.5878   -2.5140    3.1787   H         1 RES1   0.0000
   271 H160     -1.2315   -3.9909    3.9219   H         1 RES1   0.0000
   272 H161     -3.4924   -2.9538    3.9006   H         1 RES1   0.0000
   273 H162     -2.8456   -1.6497    2.8932   H         1 RES1   0.0000
   274 H163     -2.4875   -0.4925    4.7710   H         1 RES1   0.0000
   275 H164     -1.1521   -1.5815    5.1118   H         1 RES1   0.0000
   276 H165     -3.9819   -2.0532    6.1140   H         1 RES1   0.0000
   277 H166     -2.7779   -1.1032    6.9678   H         1 RES1   0.0000
   278 H167     -2.4132   -3.0718    8.0204   H         1 RES1   0.0000
   279 H168     -1.3102   -3.3156    6.6815   H         1 RES1   0.0000
   280 H169     -2.9587   -4.7322    5.5368   H         1 RES1   0.0000
   281 H170     -4.2041   -4.2543    6.6872   H         1 RES1   0.0000
   282 H171     -3.6578   -6.3661    7.4123   H         1 RES1   0.0000
   283 H172     -2.7263   -5.3580    8.5035   H         1 RES1   0.0000
   284 H173     -1.6216   -6.6820    5.9887   H         1 RES1   0.0000
   285 H174     -1.6022   -7.4264    7.5852   H         1 RES1   0.0000
   286 H175     -0.0685   -4.9227    6.7726   H         1 RES1   0.0000
   287 H176      0.5684   -6.5338    7.0628   H         1 RES1   0.0000
   288 H177     -0.7037   -4.7401    9.1770   H         1 RES1   0.0000
   289 H178      0.9986   -5.1605    9.0321   H         1 RES1   0.0000
   290 H179     -0.1811   -6.4022    9.4444   H         1 RES1   0.0000
   291 H180     -0.8687   -5.7026    2.4469   H         1 RES1   0.0000
   292 H181     -1.6496   -5.6460    0.8646   H         1 RES1   0.0000
   293 H182     -3.0686   -5.2216    3.5216   H         1 RES1   0.0000
   294 H183     -2.8959   -6.7858    2.7572   H         1 RES1   0.0000
   295 H184     -4.3201   -4.5368    1.3049   H         1 RES1   0.0000
   296 H185     -5.1257   -5.4454    2.5607   H         1 RES1   0.0000
   297 H186     -4.7564   -7.5553    1.4328   H         1 RES1   0.0000
   298 H187     -3.8763   -6.7821    0.1291   H         1 RES1   0.0000
   299 H188     -6.7841   -6.1640    0.7919   H         1 RES1   0.0000
   300 H189     -6.2770   -7.4035   -0.3527   H         1 RES1   0.0000
   301 H190     -5.0809   -5.7202   -1.6845   H         1 RES1   0.0000
   302 H191     -5.6328   -4.4398   -0.5947   H         1 RES1   0.0000
   303 H192     -7.6915   -6.1383   -1.9954   H         1 RES1   0.0000
   304 H193     -6.7978   -4.9377   -2.9114   H         1 RES1   0.0000
   305 H194     -8.7827   -3.8772   -2.2313   H         1 RES1   0.0000
   306 H195     -7.4800   -3.1782   -1.2748   H         1 RES1   0.0000
   307 H196     -9.4717   -3.5290    0.0789   H         1 RES1   0.0000
   308 H197     -8.1684   -4.5401    0.6810   H         1 RES1   0.0000
   309 H198    -10.3985   -5.5037   -1.1723   H         1 RES1   0.0000
   310 H199    -10.3671   -5.7505    0.5744   H         1 RES1   0.0000
   311 H200     -9.1606   -6.5242   -0.4419   H         1 RES1   0.0000
   312 C101      7.5526    1.4829    4.1347   C.3       1 RES1   0.0000
   313 C102      6.5640    0.8806    5.1267   C.3       1 RES1   0.0000
   314 C103      5.9643    1.8473    6.1496   C.3       1 RES1   0.0000
   315 C104      4.8687    2.7656    5.6044   C.3       1 RES1   0.0000
   316 C105      5.3980    3.9807    4.8459   C.3       1 RES1   0.0000
   317 C106      4.2675    4.7919    4.2195   C.3       1 RES1   0.0000
   318 C107      4.8130    5.8452    3.2604   C.3       1 RES1   0.0000
   319 C108      3.7231    6.6159    2.5043   C.3       1 RES1   0.0000
   320 C109      3.5222    6.1824    1.0410   C.3       1 RES1   0.0000
   321 C110      2.3082    5.2666    0.7736   C.3       1 RES1   0.0000
   322 N5        2.4949    3.8503    0.4200   N.am      1 RES1   0.0000
   323 C111      3.7788    3.2491    0.7729   C.3       1 RES1   0.0000
   324 C112      4.8863    3.6411   -0.2269   C.3       1 RES1   0.0000
   325 C113      5.3165    2.4823   -1.1230   C.3       1 RES1   0.0000
   326 C114      6.1813    2.8837   -2.3190   C.3       1 RES1   0.0000
   327 C115      7.6077    3.2952   -1.9739   C.3       1 RES1   0.0000
   328 C116      8.4698    3.4733   -3.2349   C.3       1 RES1   0.0000
   329 C117      8.5839    4.9158   -3.7410   C.3       1 RES1   0.0000
   330 C118      7.3402    5.4625   -4.4449   C.3       1 RES1   0.0000
   331 C119      7.5858    6.8785   -4.9710   C.3       1 RES1   0.0000
   332 C120      6.3661    7.5006   -5.6446   C.3       1 RES1   0.0000
   333 C121      1.4889    3.0383    0.0664   C.2       1 RES1   0.0000
   334 O7        1.5509    1.8041    0.2471   O.2       1 RES1   0.0000
   335 C122      0.2298    3.5528   -0.6769   C.3       1 RES1   0.0000
   336 C123     -0.5994    4.6312    0.0617   C.3       1 RES1   0.0000
   337 C124     -0.6874    5.9903   -0.6630   C.3       1 RES1   0.0000
   338 C125     -0.7157    7.1394    0.3406   C.3       1 RES1   0.0000
   339 O8       -0.5058    2.3439   -0.9246   O.3       1 RES1   0.0000
   340 C126     -1.6269    2.4512   -1.8130   C.3       1 RES1   0.0000
   341 C127     -2.9224    2.4784   -0.9651   C.3       1 RES1   0.0000
   342 C128     -3.9327    1.3648   -1.2349   C.3       1 RES1   0.0000
   343 C129     -3.5764    0.0385   -0.5816   C.3       1 RES1   0.0000
   344 C130     -1.5762    1.2159   -2.7294   C.2       1 RES1   0.0000
   345 O9       -0.8856    0.2454   -2.3490   O.2       1 RES1   0.0000
   346 N6       -2.2496    1.2120   -3.8800   N.am      1 RES1   0.0000
   347 C131     -2.0065    0.0866   -4.7836   C.3       1 RES1   0.0000
   348 C132     -2.8993   -1.1107   -4.4520   C.3       1 RES1   0.0000
   349 C133     -2.4784   -2.3791   -5.2113   C.3       1 RES1   0.0000
   350 C134     -3.5086   -2.9747   -6.1800   C.3       1 RES1   0.0000
   351 C135     -3.3651   -2.4486   -7.6106   C.3       1 RES1   0.0000
   352 C136     -4.0756   -1.1128   -7.8285   C.3       1 RES1   0.0000
   353 C137     -3.6936   -0.3911   -9.1273   C.3       1 RES1   0.0000
   354 C138     -2.5271    0.5968   -8.9874   C.3       1 RES1   0.0000
   355 C139     -1.1540   -0.0076   -8.6828   C.3       1 RES1   0.0000
   356 C140     -0.6694   -0.9486   -9.7779   C.3       1 RES1   0.0000
   357 C141     -3.1112    2.3107   -4.3559   C.3       1 RES1   0.0000
   358 C142     -4.3516    1.9089   -5.1882   C.3       1 RES1   0.0000
   359 C143     -5.6919    1.7305   -4.4517   C.3       1 RES1   0.0000
   360 C144     -6.5576    2.9958   -4.4404   C.3       1 RES1   0.0000
   361 C145     -7.7871    2.8360   -3.5366   C.3       1 RES1   0.0000
   362 C146     -8.5229    4.1550   -3.2890   C.3       1 RES1   0.0000
   363 C147     -9.7376    4.0476   -2.3564   C.3       1 RES1   0.0000
   364 C148     -9.4526    3.5682   -0.9239   C.3       1 RES1   0.0000
   365 C149     -9.5609    2.0593   -0.6844   C.3       1 RES1   0.0000
   366 C150    -10.9784    1.5370   -0.8706   C.3       1 RES1   0.0000
   367 H201      8.0625    0.6872    3.5962   H         1 RES1   0.0000
   368 H202      8.3000    2.0745    4.6576   H         1 RES1   0.0000
   369 H203      7.0698    2.1143    3.3945   H         1 RES1   0.0000
   370 H204      7.0997    0.1192    5.6809   H         1 RES1   0.0000
   371 H205      5.7540    0.3733    4.5995   H         1 RES1   0.0000
   372 H206      6.7550    2.4499    6.5957   H         1 RES1   0.0000
   373 H207      5.5296    1.2501    6.9568   H         1 RES1   0.0000
   374 H208      4.2510    3.1157    6.4370   H         1 RES1   0.0000
   375 H209      4.2242    2.1810    4.9366   H         1 RES1   0.0000
   376 H210      6.0762    3.6541    4.0585   H         1 RES1   0.0000
   377 H211      5.9655    4.6207    5.5233   H         1 RES1   0.0000
   378 H212      3.6895    5.2740    5.0095   H         1 RES1   0.0000
   379 H213      3.5945    4.1158    3.6808   H         1 RES1   0.0000
   380 H214      5.4753    5.3612    2.5408   H         1 RES1   0.0000
   381 H215      5.4275    6.5406    3.8319   H         1 RES1   0.0000
   382 H216      3.9964    7.6688    2.5016   H         1 RES1   0.0000
   383 H217      2.7875    6.5535    3.0594   H         1 RES1   0.0000
   384 H218      4.4580    5.7688    0.6914   H         1 RES1   0.0000
   385 H219      3.3565    7.0867    0.4575   H         1 RES1   0.0000
   386 H220      1.7165    5.7134   -0.0183   H         1 RES1   0.0000
   387 H221      1.7181    5.2824    1.6958   H         1 RES1   0.0000
   388 H222      3.6372    2.1712    0.7549   H         1 RES1   0.0000
   389 H223      4.0423    3.5529    1.7861   H         1 RES1   0.0000
   390 H224      5.7549    4.0199    0.3132   H         1 RES1   0.0000
   391 H225      4.5044    4.4305   -0.8703   H         1 RES1   0.0000
   392 H226      4.4112    2.0033   -1.5025   H         1 RES1   0.0000
   393 H227      5.8775    1.7586   -0.5299   H         1 RES1   0.0000
   394 H228      5.7094    3.6873   -2.8799   H         1 RES1   0.0000
   395 H229      6.2429    2.0176   -2.9821   H         1 RES1   0.0000
   396 H230      8.0542    2.5216   -1.3453   H         1 RES1   0.0000
   397 H231      7.6115    4.2257   -1.4052   H         1 RES1   0.0000
   398 H232      8.0808    2.8440   -4.0392   H         1 RES1   0.0000
   399 H233      9.4814    3.1241   -3.0203   H         1 RES1   0.0000
   400 H234      9.4219    4.9662   -4.4414   H         1 RES1   0.0000
   401 H235      8.8286    5.5634   -2.8954   H         1 RES1   0.0000
   402 H236      6.5050    5.4808   -3.7450   H         1 RES1   0.0000
   403 H237      7.0708    4.8046   -5.2765   H         1 RES1   0.0000
   404 H238      8.4045    6.8462   -5.6918   H         1 RES1   0.0000
   405 H239      7.9001    7.5179   -4.1415   H         1 RES1   0.0000
   406 H240      6.0021    6.8728   -6.4556   H         1 RES1   0.0000
   407 H241      6.6281    8.4705   -6.0583   H         1 RES1   0.0000
   408 H242      5.5520    7.6559   -4.9396   H         1 RES1   0.0000
   409 H243      0.5750    3.9511   -1.6483   H         1 RES1   0.0000
   410 H244     -1.6001    4.2319    0.2184   H         1 RES1   0.0000
   411 H245     -0.1799    4.7880    1.0546   H         1 RES1   0.0000
   412 H246     -1.5901    6.0427   -1.2751   H         1 RES1   0.0000
   413 H247      0.1531    6.1238   -1.3485   H         1 RES1   0.0000
   414 H248     -1.5065    6.9828    1.0673   H         1 RES1   0.0000
   415 H249     -0.9063    8.0763   -0.1714   H         1 RES1   0.0000
   416 H250      0.2247    7.2343    0.8769   H         1 RES1   0.0000
   417 H251     -1.5098    3.3558   -2.4256   H         1 RES1   0.0000
   418 H252     -2.6101    2.3866    0.0776   H         1 RES1   0.0000
   419 H253     -3.3898    3.4493   -1.1077   H         1 RES1   0.0000
   420 H254     -4.0118    1.2014   -2.3028   H         1 RES1   0.0000
   421 H255     -4.9080    1.6958   -0.8740   H         1 RES1   0.0000
   422 H256     -2.5377   -0.2511   -0.7987   H         1 RES1   0.0000
   423 H257     -4.2399   -0.7287   -0.9639   H         1 RES1   0.0000
   424 H258     -3.7023    0.0796    0.4943   H         1 RES1   0.0000
   425 H259     -0.9563   -0.2022   -4.6753   H         1 RES1   0.0000
   426 H260     -2.1540    0.4208   -5.8082   H         1 RES1   0.0000
   427 H261     -3.9460   -0.8908   -4.6581   H         1 RES1   0.0000
   428 H262     -2.8113   -1.2640   -3.3778   H         1 RES1   0.0000
   429 H263     -2.2242   -3.1472   -4.4826   H         1 RES1   0.0000
   430 H264     -1.5765   -2.1675   -5.7831   H         1 RES1   0.0000
   431 H265     -4.5217   -2.7947   -5.8190   H         1 RES1   0.0000
   432 H266     -3.3640   -4.0565   -6.2003   H         1 RES1   0.0000
   433 H267     -3.7750   -3.1821   -8.3055   H         1 RES1   0.0000
   434 H268     -2.3041   -2.3502   -7.8354   H         1 RES1   0.0000
   435 H269     -3.8511   -0.4470   -6.9963   H         1 RES1   0.0000
   436 H270     -5.1538   -1.2905   -7.8225   H         1 RES1   0.0000
   437 H271     -4.5564    0.1881   -9.4673   H         1 RES1   0.0000
   438 H272     -3.4736   -1.1212   -9.9063   H         1 RES1   0.0000
   439 H273     -2.7759    1.3227   -8.2045   H         1 RES1   0.0000
   440 H274     -2.4458    1.1522   -9.9240   H         1 RES1   0.0000
   441 H275     -1.1767   -0.5350   -7.7263   H         1 RES1   0.0000
   442 H276     -0.4383    0.8129   -8.5798   H         1 RES1   0.0000
   443 H277     -1.3423   -1.7935   -9.8938   H         1 RES1   0.0000
   444 H278      0.3209   -1.3338   -9.5447   H         1 RES1   0.0000
   445 H279     -0.6185   -0.4253  -10.7285   H         1 RES1   0.0000
   446 H280     -2.4810    2.9603   -4.9744   H         1 RES1   0.0000
   447 H281     -3.4432    2.8954   -3.5003   H         1 RES1   0.0000
   448 H282     -4.1469    0.9986   -5.7407   H         1 RES1   0.0000
   449 H283     -4.4949    2.6936   -5.9300   H         1 RES1   0.0000
   450 H284     -5.5269    1.4021   -3.4270   H         1 RES1   0.0000
   451 H285     -6.2612    0.9416   -4.9467   H         1 RES1   0.0000
   452 H286     -6.8855    3.2215   -5.4564   H         1 RES1   0.0000
   453 H287     -5.9606    3.8437   -4.0994   H         1 RES1   0.0000
   454 H288     -7.4662    2.4286   -2.5759   H         1 RES1   0.0000
   455 H289     -8.4755    2.1194   -3.9885   H         1 RES1   0.0000
   456 H290     -8.8731    4.5511   -4.2449   H         1 RES1   0.0000
   457 H291     -7.8290    4.8884   -2.8739   H         1 RES1   0.0000
   458 H292    -10.4867    3.4065   -2.8195   H         1 RES1   0.0000
   459 H293    -10.1757    5.0476   -2.2946   H         1 RES1   0.0000
   460 H294    -10.1648    4.0549   -0.2541   H         1 RES1   0.0000
   461 H295     -8.4575    3.9023   -0.6215   H         1 RES1   0.0000
   462 H296     -9.2451    1.8598    0.3439   H         1 RES1   0.0000
   463 H297     -8.8869    1.5141   -1.3459   H         1 RES1   0.0000
   464 H298    -11.6642    2.0593   -0.2088   H         1 RES1   0.0000
   465 H299    -11.0261    0.4737   -0.6495   H         1 RES1   0.0000
   466 H300    -11.3143    1.6819   -1.8932   H         1 RES1   0.0000
@<TRIPOS>BOND
     1     1    24    1
     2     1    29    1
     3     1    35    1
     4     1   179    1
     5     1   184    1
     6     1   190    1
     7     1   334    1
     8     1   339    1
     9     1   345    1
    10     2     3    1
    11     2    57    1
    12     2    58    1
    13     2    59    1
    14     3     4    1
    15     3    60    1
    16     3    61    1
    17     4     5    1
    18     4    62    1
    19     4    63    1
    20     5     6    1
    21     5    64    1
    22     5    65    1
    23     6     7    1
    24     6    66    1
    25     6    67    1
    26     7     8    1
    27     7    68    1
    28     7    69    1
    29     8     9    1
    30     8    70    1
    31     8    71    1
    32     9    10    1
    33     9    72    1
    34     9    73    1
    35    10    11    1
    36    10    74    1
    37    10    75    1
    38    11    12    1
    39    11    76    1
    40    11    77    1
    41    12    13    1
    42    12    23    1
    43    13    14    1
    44    13    78    1
    45    13    79    1
    46    14    15    1
    47    14    80    1
    48    14    81    1
    49    15    16    1
    50    15    82    1
    51    15    83    1
    52    16    17    1
    53    16    84    1
    54    16    85    1
    55    17    18    1
    56    17    86    1
    57    17    87    1
    58    18    19    1
    59    18    88    1
    60    18    89    1
    61    19    20    1
    62    19    90    1
    63    19    91    1
    64    20    21    1
    65    20    92    1
    66    20    93    1
    67    21    22    1
    68    21    94    1
    69    21    95    1
    70    22    96    1
    71    22    97    1
    72    22    98    1
    73    23    24    2
    74    23    25    1
    75    25    26    1
    76    25    29    1
    77    25    99    1
    78    26    27    1
    79    26   100    1
    80    26   101    1
    81    27    28    1
    82    27   102    1
    83    27   103    1
    84    28   104    1
    85    28   105    1
    86    28   106    1
    87    29    30    1
    88    30    31    1
    89    30    34    1
    90    30   107    1
    91    31    32    1
    92    31   108    1
    93    31   109    1
    94    32    33    1
    95    32   110    1
    96    32   111    1
    97    33   112    1
    98    33   113    1
    99    33   114    1
   100    34    35    2
   101    34    36    1
   102    36    37    1
   103    36    47    1
   104    37    38    1
   105    37   115    1
   106    37   116    1
   107    38    39    1
   108    38   117    1
   109    38   118    1
   110    39    40    1
   111    39   119    1
   112    39   120    1
   113    40    41    1
   114    40   121    1
   115    40   122    1
   116    41    42    1
   117    41   123    1
   118    41   124    1
   119    42    43    1
   120    42   125    1
   121    42   126    1
   122    43    44    1
   123    43   127    1
   124    43   128    1
   125    44    45    1
   126    44   129    1
   127    44   130    1
   128    45    46    1
   129    45   131    1
   130    45   132    1
   131    46   133    1
   132    46   134    1
   133    46   135    1
   134    47    48    1
   135    47   136    1
   136    47   137    1
   137    48    49    1
   138    48   138    1
   139    48   139    1
   140    49    50    1
   141    49   140    1
   142    49   141    1
   143    50    51    1
   144    50   142    1
   145    50   143    1
   146    51    52    1
   147    51   144    1
   148    51   145    1
   149    52    53    1
   150    52   146    1
   151    52   147    1
   152    53    54    1
   153    53   148    1
   154    53   149    1
   155    54    55    1
   156    54   150    1
   157    54   151    1
   158    55    56    1
   159    55   152    1
   160    55   153    1
   161    56   154    1
   162    56   155    1
   163    56   156    1
   164   157   158    1
   165   157   212    1
   166   157   213    1
   167   157   214    1
   168   158   159    1
   169   158   215    1
   170   158   216    1
   171   159   160    1
   172   159   217    1
   173   159   218    1
   174   160   161    1
   175   160   219    1
   176   160   220    1
   177   161   162    1
   178   161   221    1
   179   161   222    1
   180   162   163    1
   181   162   223    1
   182   162   224    1
   183   163   164    1
   184   163   225    1
   185   163   226    1
   186   164   165    1
   187   164   227    1
   188   164   228    1
   189   165   166    1
   190   165   229    1
   191   165   230    1
   192   166   167    1
   193   166   231    1
   194   166   232    1
   195   167   168    1
   196   167   178    1
   197   168   169    1
   198   168   233    1
   199   168   234    1
   200   169   170    1
   201   169   235    1
   202   169   236    1
   203   170   171    1
   204   170   237    1
   205   170   238    1
   206   171   172    1
   207   171   239    1
   208   171   240    1
   209   172   173    1
   210   172   241    1
   211   172   242    1
   212   173   174    1
   213   173   243    1
   214   173   244    1
   215   174   175    1
   216   174   245    1
   217   174   246    1
   218   175   176    1
   219   175   247    1
   220   175   248    1
   221   176   177    1
   222   176   249    1
   223   176   250    1
   224   177   251    1
   225   177   252    1
   226   177   253    1
   227   178   179    2
   228   178   180    1
   229   180   181    1
   230   180   184    1
   231   180   254    1
   232   181   182    1
   233   181   255    1
   234   181   256    1
   235   182   183    1
   236   182   257    1
   237   182   258    1
   238   183   259    1
   239   183   260    1
   240   183   261    1
   241   184   185    1
   242   185   186    1
   243   185   189    1
   244   185   262    1
   245   186   187    1
   246   186   263    1
   247   186   264    1
   248   187   188    1
   249   187   265    1
   250   187   266    1
   251   188   267    1
   252   188   268    1
   253   188   269    1
   254   189   190    2
   255   189   191    1
   256   191   192    1
   257   191   202    1
   258   192   193    1
   259   192   270    1
   260   192   271    1
   261   193   194    1
   262   193   272    1
   263   193   273    1
   264   194   195    1
   265   194   274    1
   266   194   275    1
   267   195   196    1
   268   195   276    1
   269   195   277    1
   270   196   197    1
   271   196   278    1
   272   196   279    1
   273   197   198    1
   274   197   280    1
   275   197   281    1
   276   198   199    1
   277   198   282    1
   278   198   283    1
   279   199   200    1
   280   199   284    1
   281   199   285    1
   282   200   201    1
   283   200   286    1
   284   200   287    1
   285   201   288    1
   286   201   289    1
   287   201   290    1
   288   202   203    1
   289   202   291    1
   290   202   292    1
   291   203   204    1
   292   203   293    1
   293   203   294    1
   294   204   205    1
   295   204   295    1
   296   204   296    1
   297   205   206    1
   298   205   297    1
   299   205   298    1
   300   206   207    1
   301   206   299    1
   302   206   300    1
   303   207   208    1
   304   207   301    1
   305   207   302    1
   306   208   209    1
   307   208   303    1
   308   208   304    1
   309   209   210    1
   310   209   305    1
   311   209   306    1
   312   210   211    1
   313   210   307    1
   314   210   308    1
   315   211   309    1
   316   211   310    1
   317   211   311    1
   318   312   313    1
   319   312   367    1
   320   312   368    1
   321   312   369    1
   322   313   314    1
   323   313   370    1
   324   313   371    1
   325   314   315    1
   326   314   372    1
   327   314   373    1
   328   315   316    1
   329   315   374    1
   330   315   375    1
   331   316   317    1
   332   316   376    1
   333   316   377    1
   334   317   318    1
   335   317   378    1
   336   317   379    1
   337   318   319    1
   338   318   380    1
   339   318   381    1
   340   319   320    1
   341   319   382    1
   342   319   383    1
   343   320   321    1
   344   320   384    1
   345   320   385    1
   346   321   322    1
   347   321   386    1
   348   321   387    1
   349   322   323    1
   350   322   333    1
   351   323   324    1
   352   323   388    1
   353   323   389    1
   354   324   325    1
   355   324   390    1
   356   324   391    1
   357   325   326    1
   358   325   392    1
   359   325   393    1
   360   326   327    1
   361   326   394    1
   362   326   395    1
   363   327   328    1
   364   327   396    1
   365   327   397    1
   366   328   329    1
   367   328   398    1
   368   328   399    1
   369   329   330    1
   370   329   400    1
   371   329   401    1
   372   330   331    1
   373   330   402    1
   374   330   403    1
   375   331   332    1
   376   331   404    1
   377   331   405    1
   378   332   406    1
   379   332   407    1
   380   332   408    1
   381   333   334    2
   382   333   335    1
   383   335   336    1
   384   335   339    1
   385   335   409    1
   386   336   337    1
   387   336   410    1
   388   336   411    1
   389   337   338    1
   390   337   412    1
   391   337   413    1
   392   338   414    1
   393   338   415    1
   394   338   416    1
   395   339   340    1
   396   340   341    1
   397   340   344    1
   398   340   417    1
   399   341   342    1
   400   341   418    1
   401   341   419    1
   402   342   343    1
   403   342   420    1
   404   342   421    1
   405   343   422    1
   406   343   423    1
   407   343   424    1
   408   344   345    2
   409   344   346    1
   410   346   347    1
   411   346   357    1
   412   347   348    1
   413   347   425    1
   414   347   426    1
   415   348   349    1
   416   348   427    1
   417   348   428    1
   418   349   350    1
   419   349   429    1
   420   349   430    1
   421   350   351    1
   422   350   431    1
   423   350   432    1
   424   351   352    1
   425   351   433    1
   426   351   434    1
   427   352   353    1
   428   352   435    1
   429   352   436    1
   430   353   354    1
   431   353   437    1
   432   353   438    1
   433   354   355    1
   434   354   439    1
   435   354   440    1
   436   355   356    1
   437   355   441    1
   438   355   442    1
   439   356   443    1
   440   356   444    1
   441   356   445    1
   442   357   358    1
   443   357   446    1
   444   357   447    1
   445   358   359    1
   446   358   448    1
   447   358   449    1
   448   359   360    1
   449   359   450    1
   450   359   451    1
   451   360   361    1
   452   360   452    1
   453   360   453    1
   454   361   362    1
   455   361   454    1
   456   361   455    1
   457   362   363    1
   458   362   456    1
   459   362   457    1
   460   363   364    1
   461   363   458    1
   462   363   459    1
   463   364   365    1
   464   364   460    1
   465   364   461    1
   466   365   366    1
   467   365   462    1
   468   365   463    1
   469   366   464    1
   470   366   465    1
   471   366   466    1
@<TRIPOS>SUBSTRUCTURE
     1 RES1      466 GROUP             0 ****  ****    0  
