@<TRIPOS>MOLECULE
am_c3_9H2O_c0_0_nunpairedes_0_charge_3 Charge: 3 Unpaired_Electrons: 3 XTB_Unpaired_Electrons: 0 XTB_Charge: 3
   358   363     1     0     0
SMALL
NoCharges
****
Generated from Architector

@<TRIPOS>ATOM
     1 Nd1      -0.0620    0.0415   -0.0821   Nd        1 RES1   0.0000
     2 C1       -9.0086    3.5609   -3.4196   C.3       1 RES1   0.0000
     3 C2       -8.9525    3.9354   -1.9438   C.3       1 RES1   0.0000
     4 C3       -7.5306    3.9007   -1.3772   C.3       1 RES1   0.0000
     5 C4       -6.6183    4.9556   -2.0051   C.3       1 RES1   0.0000
     6 C5       -5.2935    5.1224   -1.2588   C.3       1 RES1   0.0000
     7 C6       -4.3849    3.8949   -1.3841   C.3       1 RES1   0.0000
     8 C7       -3.0388    4.0679   -0.6720   C.3       1 RES1   0.0000
     9 C8       -3.1600    4.0889    0.8549   C.3       1 RES1   0.0000
    10 N1       -3.6231    2.8015    1.3644   N.am      1 RES1   0.0000
    11 C9       -4.9213    2.7894    2.0174   C.3       1 RES1   0.0000
    12 C10      -5.0095    3.7292    3.2332   C.3       1 RES1   0.0000
    13 C11      -3.9741    3.4871    4.3321   C.3       1 RES1   0.0000
    14 C12      -2.5499    3.9618    4.0322   C.3       1 RES1   0.0000
    15 C13      -1.7234    4.0768    5.3242   C.3       1 RES1   0.0000
    16 C14      -1.2083    5.4904    5.6011   C.3       1 RES1   0.0000
    17 C15      -2.3060    6.5002    5.9488   C.3       1 RES1   0.0000
    18 C16      -2.9228    6.2863    7.3249   C.3       1 RES1   0.0000
    19 C17      -2.9000    1.7007    1.1778   C.2       1 RES1   0.0000
    20 O1       -1.6623    1.7097    1.0231   O.2       1 RES1   0.0000
    21 C18      -3.6268    0.3622    0.9669   C.3       1 RES1   0.0000
    22 C19      -3.4987   -0.6010    2.1385   C.3       1 RES1   0.0000
    23 O2       -2.9482   -0.1753   -0.1801   O.3       1 RES1   0.0000
    24 C20      -3.8076   -0.4472   -1.2894   C.3       1 RES1   0.0000
    25 C21      -4.3998   -1.8489   -1.1219   C.3       1 RES1   0.0000
    26 C22      -2.9307   -0.3185   -2.5475   C.2       1 RES1   0.0000
    27 O3       -1.7074   -0.4385   -2.3714   O.2       1 RES1   0.0000
    28 N2       -3.5121   -0.0559   -3.7298   N.am      1 RES1   0.0000
    29 C23      -4.9286   -0.3290   -4.0036   C.3       1 RES1   0.0000
    30 C24      -5.7448    0.7233   -4.7547   C.3       1 RES1   0.0000
    31 C25      -7.2161    0.2885   -4.8320   C.3       1 RES1   0.0000
    32 C26      -7.4403   -1.0305   -5.5835   C.3       1 RES1   0.0000
    33 C27      -7.6419   -2.2346   -4.6605   C.3       1 RES1   0.0000
    34 C28      -7.9649   -3.4950   -5.4603   C.3       1 RES1   0.0000
    35 C29      -8.4015   -4.6760   -4.5972   C.3       1 RES1   0.0000
    36 C30      -7.2804   -5.2865   -3.7658   C.3       1 RES1   0.0000
    37 C31      -2.6700   -0.0405   -4.9339   C.3       1 RES1   0.0000
    38 C32      -2.6590    1.2490   -5.7794   C.3       1 RES1   0.0000
    39 C33      -2.4410    0.9551   -7.2734   C.3       1 RES1   0.0000
    40 C34      -1.0057    0.5849   -7.6818   C.3       1 RES1   0.0000
    41 C35      -0.0784    1.7643   -7.9975   C.3       1 RES1   0.0000
    42 C36       1.3708    1.2693   -8.1691   C.3       1 RES1   0.0000
    43 C37       2.4519    2.2398   -7.6898   C.3       1 RES1   0.0000
    44 C38       3.7864    1.5370   -7.4588   C.3       1 RES1   0.0000
    45 H1      -10.0401    3.4995   -3.7518   H         1 RES1   0.0000
    46 H2       -8.5395    2.5939   -3.5818   H         1 RES1   0.0000
    47 H3       -8.5018    4.3030   -4.0289   H         1 RES1   0.0000
    48 H4       -9.5703    3.2372   -1.3736   H         1 RES1   0.0000
    49 H5       -9.3729    4.9333   -1.8050   H         1 RES1   0.0000
    50 H6       -7.1130    2.9020   -1.5409   H         1 RES1   0.0000
    51 H7       -7.5799    4.0726   -0.2961   H         1 RES1   0.0000
    52 H8       -7.1422    5.9126   -1.9973   H         1 RES1   0.0000
    53 H9       -6.4111    4.7017   -3.0462   H         1 RES1   0.0000
    54 H10      -5.5108    5.3281   -0.2079   H         1 RES1   0.0000
    55 H11      -4.7717    5.9939   -1.6630   H         1 RES1   0.0000
    56 H12      -4.1910    3.7157   -2.4454   H         1 RES1   0.0000
    57 H13      -4.8874    3.0100   -0.9859   H         1 RES1   0.0000
    58 H14      -2.6043    5.0186   -0.9882   H         1 RES1   0.0000
    59 H15      -2.3566    3.2619   -0.9684   H         1 RES1   0.0000
    60 H16      -3.8851    4.8396    1.1568   H         1 RES1   0.0000
    61 H17      -2.2033    4.3478    1.3047   H         1 RES1   0.0000
    62 H18      -5.1232    1.7818    2.3802   H         1 RES1   0.0000
    63 H19      -5.6934    3.0709    1.2922   H         1 RES1   0.0000
    64 H20      -5.9999    3.5613    3.6625   H         1 RES1   0.0000
    65 H21      -4.9697    4.7766    2.9300   H         1 RES1   0.0000
    66 H22      -3.9490    2.4252    4.5778   H         1 RES1   0.0000
    67 H23      -4.3227    4.0250    5.2139   H         1 RES1   0.0000
    68 H24      -2.5941    4.9380    3.5439   H         1 RES1   0.0000
    69 H25      -2.0622    3.2623    3.3488   H         1 RES1   0.0000
    70 H26      -0.8752    3.3899    5.2873   H         1 RES1   0.0000
    71 H27      -2.3354    3.7668    6.1678   H         1 RES1   0.0000
    72 H28      -0.6492    5.8499    4.7316   H         1 RES1   0.0000
    73 H29      -0.5104    5.4396    6.4385   H         1 RES1   0.0000
    74 H30      -3.0927    6.4699    5.1926   H         1 RES1   0.0000
    75 H31      -1.8663    7.4984    5.9212   H         1 RES1   0.0000
    76 H32      -3.3854    5.3067    7.4111   H         1 RES1   0.0000
    77 H33      -3.6883    7.0359    7.5019   H         1 RES1   0.0000
    78 H34      -2.1736    6.3830    8.1059   H         1 RES1   0.0000
    79 H35      -4.6829    0.5347    0.7263   H         1 RES1   0.0000
    80 H36      -2.4448   -0.7347    2.3794   H         1 RES1   0.0000
    81 H37      -3.9264   -1.5655    1.8784   H         1 RES1   0.0000
    82 H38      -4.0312   -0.2212    3.0040   H         1 RES1   0.0000
    83 H39      -4.5955    0.3140   -1.3369   H         1 RES1   0.0000
    84 H40      -3.6012   -2.5480   -0.8877   H         1 RES1   0.0000
    85 H41      -4.8823   -2.1780   -2.0308   H         1 RES1   0.0000
    86 H42      -5.1272   -1.8647   -0.3140   H         1 RES1   0.0000
    87 H43      -5.4475   -0.5264   -3.0720   H         1 RES1   0.0000
    88 H44      -4.9390   -1.2366   -4.6140   H         1 RES1   0.0000
    89 H45      -5.3874    0.8326   -5.7780   H         1 RES1   0.0000
    90 H46      -5.6901    1.6915   -4.2485   H         1 RES1   0.0000
    91 H47      -7.7516    1.0842   -5.3489   H         1 RES1   0.0000
    92 H48      -7.6431    0.2061   -3.8293   H         1 RES1   0.0000
    93 H49      -6.6157   -1.2210   -6.2740   H         1 RES1   0.0000
    94 H50      -8.3383   -0.9390   -6.1953   H         1 RES1   0.0000
    95 H51      -8.4776   -2.0305   -3.9882   H         1 RES1   0.0000
    96 H52      -6.7632   -2.4055   -4.0347   H         1 RES1   0.0000
    97 H53      -7.1010   -3.7761   -6.0664   H         1 RES1   0.0000
    98 H54      -8.7791   -3.2474   -6.1408   H         1 RES1   0.0000
    99 H55      -8.8036   -5.4455   -5.2546   H         1 RES1   0.0000
   100 H56      -9.2061   -4.3499   -3.9386   H         1 RES1   0.0000
   101 H57      -6.4676   -5.6213   -4.4084   H         1 RES1   0.0000
   102 H58      -7.6561   -6.1463   -3.2155   H         1 RES1   0.0000
   103 H59      -6.8847   -4.5742   -3.0423   H         1 RES1   0.0000
   104 H60      -3.0152   -0.8628   -5.5725   H         1 RES1   0.0000
   105 H61      -1.6648   -0.2670   -4.5903   H         1 RES1   0.0000
   106 H62      -1.8819    1.9285   -5.4376   H         1 RES1   0.0000
   107 H63      -3.6014    1.7715   -5.6566   H         1 RES1   0.0000
   108 H64      -2.7436    1.8331   -7.8435   H         1 RES1   0.0000
   109 H65      -3.1102    0.1433   -7.5640   H         1 RES1   0.0000
   110 H66      -1.0361   -0.0531   -8.5658   H         1 RES1   0.0000
   111 H67      -0.5506   -0.0051   -6.8882   H         1 RES1   0.0000
   112 H68      -0.1396    2.5020   -7.1927   H         1 RES1   0.0000
   113 H69      -0.4110    2.2628   -8.9074   H         1 RES1   0.0000
   114 H70       1.5603    1.0083   -9.2095   H         1 RES1   0.0000
   115 H71       1.4844    0.3487   -7.5939   H         1 RES1   0.0000
   116 H72       2.1381    2.6796   -6.7415   H         1 RES1   0.0000
   117 H73       2.5766    3.0540   -8.4049   H         1 RES1   0.0000
   118 H74       4.5028    2.2149   -7.0012   H         1 RES1   0.0000
   119 H75       3.6556    0.6862   -6.7889   H         1 RES1   0.0000
   120 H76       4.2025    1.1735   -8.3943   H         1 RES1   0.0000
   121 C39       9.0396    2.4023   -2.3359   C.3       1 RES1   0.0000
   122 C40       9.2386    3.1391   -1.0157   C.3       1 RES1   0.0000
   123 C41       8.3865    2.5706    0.1251   C.3       1 RES1   0.0000
   124 C42       8.8886    1.2341    0.6824   C.3       1 RES1   0.0000
   125 C43       7.8321    0.5088    1.5364   C.3       1 RES1   0.0000
   126 C44       6.7235   -0.0147    0.6225   C.3       1 RES1   0.0000
   127 C45       5.4657   -0.6900    1.2047   C.3       1 RES1   0.0000
   128 C46       4.8085   -0.1349    2.4724   C.3       1 RES1   0.0000
   129 N3        4.0736    1.1248    2.3330   N.am      1 RES1   0.0000
   130 C47       4.7314    2.2838    2.9283   C.3       1 RES1   0.0000
   131 C48       5.1143    2.1565    4.4160   C.3       1 RES1   0.0000
   132 C49       3.9672    2.1461    5.4311   C.3       1 RES1   0.0000
   133 C50       3.1118    0.8674    5.5060   C.3       1 RES1   0.0000
   134 C51       3.5718   -0.1727    6.5396   C.3       1 RES1   0.0000
   135 C52       4.7588   -1.0421    6.1003   C.3       1 RES1   0.0000
   136 C53       6.0936   -0.6064    6.7116   C.3       1 RES1   0.0000
   137 C54       6.2402   -1.1087    8.1431   C.3       1 RES1   0.0000
   138 C55       2.8526    1.1325    1.7939   C.2       1 RES1   0.0000
   139 O4        2.2480    0.0995    1.4674   O.2       1 RES1   0.0000
   140 C56       2.1094    2.4683    1.5559   C.3       1 RES1   0.0000
   141 C57       1.2115    2.7307    2.7681   C.3       1 RES1   0.0000
   142 O5        1.3043    2.2207    0.3965   O.3       1 RES1   0.0000
   143 C58       1.1357    3.3177   -0.5129   C.3       1 RES1   0.0000
   144 C59       0.3664    4.4517    0.1591   C.3       1 RES1   0.0000
   145 C60       0.4081    2.6179   -1.6779   C.2       1 RES1   0.0000
   146 O6       -0.3513    1.6812   -1.3833   O.2       1 RES1   0.0000
   147 N4        0.6666    2.8763   -2.9605   N.am      1 RES1   0.0000
   148 C61       0.8111    4.2521   -3.4215   C.3       1 RES1   0.0000
   149 C62       1.7461    4.4418   -4.6037   C.3       1 RES1   0.0000
   150 C63       1.7413    5.8747   -5.1395   C.3       1 RES1   0.0000
   151 C64       0.3994    6.3178   -5.7341   C.3       1 RES1   0.0000
   152 C65      -0.4885    7.1147   -4.7791   C.3       1 RES1   0.0000
   153 C66      -1.7079    7.6686   -5.5107   C.3       1 RES1   0.0000
   154 C67      -2.5812    8.5841   -4.6561   C.3       1 RES1   0.0000
   155 C68      -3.3415    7.8581   -3.5536   C.3       1 RES1   0.0000
   156 C69       0.2682    1.8075   -3.9009   C.3       1 RES1   0.0000
   157 C70       1.0740    0.5466   -3.5551   C.3       1 RES1   0.0000
   158 C71       1.4957   -0.4785   -4.6127   C.3       1 RES1   0.0000
   159 C72       0.5447   -1.6205   -4.9953   C.3       1 RES1   0.0000
   160 C73       0.1130   -2.6009   -3.8961   C.3       1 RES1   0.0000
   161 C74      -1.1533   -3.3347   -4.3477   C.3       1 RES1   0.0000
   162 C75      -1.7441   -4.3129   -3.3380   C.3       1 RES1   0.0000
   163 C76      -3.0678   -4.8771   -3.8479   C.3       1 RES1   0.0000
   164 H77       9.6433    2.8595   -3.1137   H         1 RES1   0.0000
   165 H78       7.9973    2.4466   -2.6485   H         1 RES1   0.0000
   166 H79       9.3284    1.3584   -2.2546   H         1 RES1   0.0000
   167 H80       8.9648    4.1872   -1.1592   H         1 RES1   0.0000
   168 H81      10.2931    3.1117   -0.7410   H         1 RES1   0.0000
   169 H82       7.3721    2.4468   -0.2621   H         1 RES1   0.0000
   170 H83       8.3454    3.2998    0.9399   H         1 RES1   0.0000
   171 H84       9.7780    1.4253    1.2826   H         1 RES1   0.0000
   172 H85       9.1934    0.5846   -0.1405   H         1 RES1   0.0000
   173 H86       7.4454    1.2053    2.2812   H         1 RES1   0.0000
   174 H87       8.3036   -0.3192    2.0670   H         1 RES1   0.0000
   175 H88       7.1944   -0.7545   -0.0284   H         1 RES1   0.0000
   176 H89       6.4212    0.8058   -0.0234   H         1 RES1   0.0000
   177 H90       5.7060   -1.7322    1.4262   H         1 RES1   0.0000
   178 H91       4.6956   -0.6823    0.4331   H         1 RES1   0.0000
   179 H92       5.5749    0.0060    3.2277   H         1 RES1   0.0000
   180 H93       4.0929   -0.8864    2.8191   H         1 RES1   0.0000
   181 H94       4.0829    3.1504    2.8348   H         1 RES1   0.0000
   182 H95       5.6435    2.4745    2.3534   H         1 RES1   0.0000
   183 H96       5.7135    3.0466    4.6165   H         1 RES1   0.0000
   184 H97       5.7531    1.2963    4.6029   H         1 RES1   0.0000
   185 H98       3.3215    3.0025    5.2264   H         1 RES1   0.0000
   186 H99       4.4020    2.3232    6.4165   H         1 RES1   0.0000
   187 H100      3.0426    0.3906    4.5267   H         1 RES1   0.0000
   188 H101      2.0938    1.1581    5.7796   H         1 RES1   0.0000
   189 H102      2.7206   -0.8245    6.7495   H         1 RES1   0.0000
   190 H103      3.8152    0.3331    7.4735   H         1 RES1   0.0000
   191 H104      4.8196   -1.0425    5.0107   H         1 RES1   0.0000
   192 H105      4.5816   -2.0763    6.4031   H         1 RES1   0.0000
   193 H106      6.1730    0.4826    6.6994   H         1 RES1   0.0000
   194 H107      6.9154   -1.0102    6.1151   H         1 RES1   0.0000
   195 H108      5.4041   -0.7859    8.7581   H         1 RES1   0.0000
   196 H109      7.1581   -0.7345    8.5868   H         1 RES1   0.0000
   197 H110      6.2778   -2.1957    8.1628   H         1 RES1   0.0000
   198 H111      2.8002    3.2921    1.3498   H         1 RES1   0.0000
   199 H112      0.3687    2.0351    2.7096   H         1 RES1   0.0000
   200 H113      0.8296    3.7467    2.7719   H         1 RES1   0.0000
   201 H114      1.7505    2.5613    3.6948   H         1 RES1   0.0000
   202 H115      2.1233    3.6752   -0.8368   H         1 RES1   0.0000
   203 H116     -0.0798    5.1228   -0.5670   H         1 RES1   0.0000
   204 H117      1.0353    5.0250    0.7975   H         1 RES1   0.0000
   205 H118     -0.4181    4.0048    0.7622   H         1 RES1   0.0000
   206 H119      1.1437    4.8487   -2.5698   H         1 RES1   0.0000
   207 H120     -0.1909    4.5832   -3.7116   H         1 RES1   0.0000
   208 H121      1.4196    3.8002   -5.4192   H         1 RES1   0.0000
   209 H122      2.7641    4.1528   -4.3301   H         1 RES1   0.0000
   210 H123      2.4971    5.9042   -5.9229   H         1 RES1   0.0000
   211 H124      2.0431    6.5770   -4.3631   H         1 RES1   0.0000
   212 H125     -0.1466    5.4528   -6.1209   H         1 RES1   0.0000
   213 H126      0.6022    6.9645   -6.5873   H         1 RES1   0.0000
   214 H127      0.0844    7.9497   -4.3755   H         1 RES1   0.0000
   215 H128     -0.8071    6.5035   -3.9347   H         1 RES1   0.0000
   216 H129     -2.3103    6.8430   -5.8960   H         1 RES1   0.0000
   217 H130     -1.3475    8.2386   -6.3672   H         1 RES1   0.0000
   218 H131     -3.3018    9.0771   -5.3093   H         1 RES1   0.0000
   219 H132     -1.9555    9.3598   -4.2161   H         1 RES1   0.0000
   220 H133     -3.9583    7.0670   -3.9764   H         1 RES1   0.0000
   221 H134     -3.9895    8.5569   -3.0305   H         1 RES1   0.0000
   222 H135     -2.6610    7.4217   -2.8237   H         1 RES1   0.0000
   223 H136      0.4538    2.1422   -4.9198   H         1 RES1   0.0000
   224 H137     -0.7977    1.6187   -3.7629   H         1 RES1   0.0000
   225 H138      0.5355    0.0102   -2.7622   H         1 RES1   0.0000
   226 H139      2.0005    0.9321   -3.1360   H         1 RES1   0.0000
   227 H140      2.4004   -0.9454   -4.2190   H         1 RES1   0.0000
   228 H141      1.7748    0.0442   -5.5283   H         1 RES1   0.0000
   229 H142      1.0481   -2.1992   -5.7723   H         1 RES1   0.0000
   230 H143     -0.3532   -1.2239   -5.4581   H         1 RES1   0.0000
   231 H144     -0.0919   -2.0727   -2.9569   H         1 RES1   0.0000
   232 H145      0.9128   -3.3223   -3.7266   H         1 RES1   0.0000
   233 H146     -0.9529   -3.8644   -5.2789   H         1 RES1   0.0000
   234 H147     -1.9228   -2.5917   -4.5540   H         1 RES1   0.0000
   235 H148     -1.9286   -3.7824   -2.4022   H         1 RES1   0.0000
   236 H149     -1.0509   -5.1343   -3.1413   H         1 RES1   0.0000
   237 H150     -3.7913   -4.0743   -3.9962   H         1 RES1   0.0000
   238 H151     -3.4875   -5.5848   -3.1360   H         1 RES1   0.0000
   239 H152     -2.9233   -5.3818   -4.8016   H         1 RES1   0.0000
   240 C77       5.1882   -1.6996   -9.6103   C.3       1 RES1   0.0000
   241 C78       3.9857   -2.5832   -9.2995   C.3       1 RES1   0.0000
   242 C79       3.6873   -2.7073   -7.8002   C.3       1 RES1   0.0000
   243 C80       4.7653   -3.5079   -7.0462   C.3       1 RES1   0.0000
   244 C81       5.5493   -2.7106   -5.9963   C.3       1 RES1   0.0000
   245 C82       4.8143   -2.5813   -4.6555   C.3       1 RES1   0.0000
   246 C83       5.7385   -1.9761   -3.5980   C.3       1 RES1   0.0000
   247 C84       5.2118   -1.8300   -2.1554   C.3       1 RES1   0.0000
   248 N5        4.1289   -0.8669   -1.9602   N.am      1 RES1   0.0000
   249 C85       4.4833    0.4798   -2.4460   C.3       1 RES1   0.0000
   250 C86       4.2461    1.6470   -1.4917   C.3       1 RES1   0.0000
   251 C87       4.7895    2.9576   -2.0827   C.3       1 RES1   0.0000
   252 C88       5.0015    4.0194   -0.9945   C.3       1 RES1   0.0000
   253 C89       5.1469    5.4597   -1.4952   C.3       1 RES1   0.0000
   254 C90       3.8334    6.0590   -1.9998   C.3       1 RES1   0.0000
   255 C91       3.7708    7.5865   -1.9149   C.3       1 RES1   0.0000
   256 C92       4.7504    8.2848   -2.8486   C.3       1 RES1   0.0000
   257 C93       2.9816   -1.0811   -1.3105   C.2       1 RES1   0.0000
   258 O7        2.1427   -0.1719   -1.1667   O.2       1 RES1   0.0000
   259 C94       2.6037   -2.4346   -0.6389   C.3       1 RES1   0.0000
   260 C95       2.6058   -3.6721   -1.5461   C.3       1 RES1   0.0000
   261 O8        1.2738   -2.1853   -0.1455   O.3       1 RES1   0.0000
   262 C96       0.6801   -3.1554    0.7391   C.3       1 RES1   0.0000
   263 C97      -0.5701   -3.6821    0.0303   C.3       1 RES1   0.0000
   264 C98       0.2637   -2.3543    1.9936   C.2       1 RES1   0.0000
   265 O9       -0.2473   -1.2293    1.7754   O.2       1 RES1   0.0000
   266 N6        0.4745   -2.8056    3.2242   N.am      1 RES1   0.0000
   267 C99       0.6110   -4.2187    3.5539   C.3       1 RES1   0.0000
   268 C100     -0.7700   -4.8922    3.6092   C.3       1 RES1   0.0000
   269 C101     -0.7048   -6.4018    3.8588   C.3       1 RES1   0.0000
   270 C102     -2.0579   -6.9453    4.3282   C.3       1 RES1   0.0000
   271 C103     -3.1589   -6.8374    3.2741   C.3       1 RES1   0.0000
   272 C104     -4.5130   -7.3497    3.7739   C.3       1 RES1   0.0000
   273 C105     -5.1508   -6.5132    4.8854   C.3       1 RES1   0.0000
   274 C106     -5.4556   -5.0799    4.4657   C.3       1 RES1   0.0000
   275 C107      0.4430   -1.8682    4.3543   C.3       1 RES1   0.0000
   276 C108     -0.6889   -2.0789    5.3621   C.3       1 RES1   0.0000
   277 C109     -0.5510   -1.1642    6.5870   C.3       1 RES1   0.0000
   278 C110     -1.1031    0.2597    6.4325   C.3       1 RES1   0.0000
   279 C111     -2.5516    0.4203    6.9083   C.3       1 RES1   0.0000
   280 C112     -3.6133   -0.0920    5.9370   C.3       1 RES1   0.0000
   281 C113     -5.0204    0.2936    6.4030   C.3       1 RES1   0.0000
   282 C114     -6.0837    0.0730    5.3331   C.3       1 RES1   0.0000
   283 H153      5.3816   -1.6989  -10.6798   H         1 RES1   0.0000
   284 H154      6.0816   -2.0531   -9.1009   H         1 RES1   0.0000
   285 H155      5.0055   -0.6726   -9.3056   H         1 RES1   0.0000
   286 H156      4.1625   -3.5784   -9.7119   H         1 RES1   0.0000
   287 H157      3.1082   -2.1716   -9.8042   H         1 RES1   0.0000
   288 H158      2.7163   -3.1984   -7.6924   H         1 RES1   0.0000
   289 H159      3.5964   -1.7063   -7.3749   H         1 RES1   0.0000
   290 H160      5.4680   -3.9084   -7.7786   H         1 RES1   0.0000
   291 H161      4.3102   -4.3716   -6.5565   H         1 RES1   0.0000
   292 H162      5.7750   -1.7143   -6.3806   H         1 RES1   0.0000
   293 H163      6.4976   -3.2196   -5.8206   H         1 RES1   0.0000
   294 H164      4.4924   -3.5749   -4.3401   H         1 RES1   0.0000
   295 H165      3.9280   -1.9598   -4.7884   H         1 RES1   0.0000
   296 H166      6.0979   -1.0233   -3.9845   H         1 RES1   0.0000
   297 H167      6.6161   -2.6166   -3.5048   H         1 RES1   0.0000
   298 H168      6.0567   -1.4851   -1.5499   H         1 RES1   0.0000
   299 H169      4.9100   -2.8016   -1.7790   H         1 RES1   0.0000
   300 H170      3.9589    0.6642   -3.3858   H         1 RES1   0.0000
   301 H171      5.5493    0.4484   -2.6611   H         1 RES1   0.0000
   302 H172      4.7484    1.4476   -0.5476   H         1 RES1   0.0000
   303 H173      3.1864    1.7410   -1.2699   H         1 RES1   0.0000
   304 H174      4.0993    3.3285   -2.8426   H         1 RES1   0.0000
   305 H175      5.7474    2.7812   -2.5782   H         1 RES1   0.0000
   306 H176      5.9062    3.7713   -0.4379   H         1 RES1   0.0000
   307 H177      4.1674    3.9756   -0.2861   H         1 RES1   0.0000
   308 H178      5.8958    5.4998   -2.2844   H         1 RES1   0.0000
   309 H179      5.5137    6.0631   -0.6642   H         1 RES1   0.0000
   310 H180      3.0084    5.6623   -1.3977   H         1 RES1   0.0000
   311 H181      3.6706    5.7672   -3.0367   H         1 RES1   0.0000
   312 H182      3.9578    7.9066   -0.8882   H         1 RES1   0.0000
   313 H183      2.7550    7.9024   -2.1693   H         1 RES1   0.0000
   314 H184      5.7766    8.0351   -2.5970   H         1 RES1   0.0000
   315 H185      4.6383    9.3636   -2.7720   H         1 RES1   0.0000
   316 H186      4.5679    7.9956   -3.8812   H         1 RES1   0.0000
   317 H187      3.2877   -2.5758    0.2138   H         1 RES1   0.0000
   318 H188      1.5882   -3.8965   -1.8385   H         1 RES1   0.0000
   319 H189      3.0104   -4.5376   -1.0290   H         1 RES1   0.0000
   320 H190      3.1705   -3.5043   -2.4544   H         1 RES1   0.0000
   321 H191      1.3864   -3.9582    0.9615   H         1 RES1   0.0000
   322 H192     -1.1520   -2.8085   -0.3085   H         1 RES1   0.0000
   323 H193     -1.1803   -4.2939    0.6882   H         1 RES1   0.0000
   324 H194     -0.2937   -4.2871   -0.8320   H         1 RES1   0.0000
   325 H195      1.1036   -4.2920    4.5256   H         1 RES1   0.0000
   326 H196      1.2453   -4.7243    2.8220   H         1 RES1   0.0000
   327 H197     -1.2897   -4.7035    2.6690   H         1 RES1   0.0000
   328 H198     -1.3684   -4.4405    4.4008   H         1 RES1   0.0000
   329 H199      0.0405   -6.6147    4.6286   H         1 RES1   0.0000
   330 H200     -0.3954   -6.9093    2.9421   H         1 RES1   0.0000
   331 H201     -2.3557   -6.4025    5.2271   H         1 RES1   0.0000
   332 H202     -1.9380   -7.9939    4.6017   H         1 RES1   0.0000
   333 H203     -2.8702   -7.4234    2.3973   H         1 RES1   0.0000
   334 H204     -3.2711   -5.8017    2.9487   H         1 RES1   0.0000
   335 H205     -4.3909   -8.3727    4.1344   H         1 RES1   0.0000
   336 H206     -5.2039   -7.3785    2.9277   H         1 RES1   0.0000
   337 H207     -4.5084   -6.5085    5.7662   H         1 RES1   0.0000
   338 H208     -6.0840   -6.9980    5.1736   H         1 RES1   0.0000
   339 H209     -4.5415   -4.5025    4.3397   H         1 RES1   0.0000
   340 H210     -6.0633   -4.5894    5.2212   H         1 RES1   0.0000
   341 H211     -6.0067   -5.0690    3.5278   H         1 RES1   0.0000
   342 H212      0.4076   -0.8614    3.9313   H         1 RES1   0.0000
   343 H213      1.3975   -1.9991    4.8745   H         1 RES1   0.0000
   344 H214     -0.6466   -3.1030    5.7296   H         1 RES1   0.0000
   345 H215     -1.6484   -1.9190    4.8742   H         1 RES1   0.0000
   346 H216      0.5076   -1.1130    6.8493   H         1 RES1   0.0000
   347 H217     -1.0621   -1.6375    7.4272   H         1 RES1   0.0000
   348 H218     -1.0211    0.5920    5.3950   H         1 RES1   0.0000
   349 H219     -0.4899    0.9273    7.0417   H         1 RES1   0.0000
   350 H220     -2.7404    1.4841    7.0653   H         1 RES1   0.0000
   351 H221     -2.6709   -0.0816    7.8689   H         1 RES1   0.0000
   352 H222     -3.5504   -1.1779    5.8399   H         1 RES1   0.0000
   353 H223     -3.4262    0.3493    4.9526   H         1 RES1   0.0000
   354 H224     -5.0223    1.3484    6.6905   H         1 RES1   0.0000
   355 H225     -5.2752   -0.2887    7.2901   H         1 RES1   0.0000
   356 H226     -5.9069    0.7172    4.4722   H         1 RES1   0.0000
   357 H227     -7.0638    0.3129    5.7330   H         1 RES1   0.0000
   358 H228     -6.0960   -0.9618    5.0013   H         1 RES1   0.0000
@<TRIPOS>BOND
     1     1    20    1
     2     1    23    1
     3     1    27    1
     4     1   139    1
     5     1   142    1
     6     1   146    1
     7     1   258    1
     8     1   261    1
     9     1   265    1
    10     2     3    1
    11     2    45    1
    12     2    46    1
    13     2    47    1
    14     3     4    1
    15     3    48    1
    16     3    49    1
    17     4     5    1
    18     4    50    1
    19     4    51    1
    20     5     6    1
    21     5    52    1
    22     5    53    1
    23     6     7    1
    24     6    54    1
    25     6    55    1
    26     7     8    1
    27     7    56    1
    28     7    57    1
    29     8     9    1
    30     8    58    1
    31     8    59    1
    32     9    10    1
    33     9    60    1
    34     9    61    1
    35    10    11    1
    36    10    19    1
    37    11    12    1
    38    11    62    1
    39    11    63    1
    40    12    13    1
    41    12    64    1
    42    12    65    1
    43    13    14    1
    44    13    66    1
    45    13    67    1
    46    14    15    1
    47    14    68    1
    48    14    69    1
    49    15    16    1
    50    15    70    1
    51    15    71    1
    52    16    17    1
    53    16    72    1
    54    16    73    1
    55    17    18    1
    56    17    74    1
    57    17    75    1
    58    18    76    1
    59    18    77    1
    60    18    78    1
    61    19    20    2
    62    19    21    1
    63    21    22    1
    64    21    23    1
    65    21    79    1
    66    22    80    1
    67    22    81    1
    68    22    82    1
    69    23    24    1
    70    24    25    1
    71    24    26    1
    72    24    83    1
    73    25    84    1
    74    25    85    1
    75    25    86    1
    76    26    27    2
    77    26    28    1
    78    28    29    1
    79    28    37    1
    80    29    30    1
    81    29    87    1
    82    29    88    1
    83    30    31    1
    84    30    89    1
    85    30    90    1
    86    31    32    1
    87    31    91    1
    88    31    92    1
    89    32    33    1
    90    32    93    1
    91    32    94    1
    92    33    34    1
    93    33    95    1
    94    33    96    1
    95    34    35    1
    96    34    97    1
    97    34    98    1
    98    35    36    1
    99    35    99    1
   100    35   100    1
   101    36   101    1
   102    36   102    1
   103    36   103    1
   104    37    38    1
   105    37   104    1
   106    37   105    1
   107    38    39    1
   108    38   106    1
   109    38   107    1
   110    39    40    1
   111    39   108    1
   112    39   109    1
   113    40    41    1
   114    40   110    1
   115    40   111    1
   116    41    42    1
   117    41   112    1
   118    41   113    1
   119    42    43    1
   120    42   114    1
   121    42   115    1
   122    43    44    1
   123    43   116    1
   124    43   117    1
   125    44   118    1
   126    44   119    1
   127    44   120    1
   128   121   122    1
   129   121   164    1
   130   121   165    1
   131   121   166    1
   132   122   123    1
   133   122   167    1
   134   122   168    1
   135   123   124    1
   136   123   169    1
   137   123   170    1
   138   124   125    1
   139   124   171    1
   140   124   172    1
   141   125   126    1
   142   125   173    1
   143   125   174    1
   144   126   127    1
   145   126   175    1
   146   126   176    1
   147   127   128    1
   148   127   177    1
   149   127   178    1
   150   128   129    1
   151   128   179    1
   152   128   180    1
   153   129   130    1
   154   129   138    1
   155   130   131    1
   156   130   181    1
   157   130   182    1
   158   131   132    1
   159   131   183    1
   160   131   184    1
   161   132   133    1
   162   132   185    1
   163   132   186    1
   164   133   134    1
   165   133   187    1
   166   133   188    1
   167   134   135    1
   168   134   189    1
   169   134   190    1
   170   135   136    1
   171   135   191    1
   172   135   192    1
   173   136   137    1
   174   136   193    1
   175   136   194    1
   176   137   195    1
   177   137   196    1
   178   137   197    1
   179   138   139    2
   180   138   140    1
   181   140   141    1
   182   140   142    1
   183   140   198    1
   184   141   199    1
   185   141   200    1
   186   141   201    1
   187   142   143    1
   188   143   144    1
   189   143   145    1
   190   143   202    1
   191   144   203    1
   192   144   204    1
   193   144   205    1
   194   145   146    2
   195   145   147    1
   196   147   148    1
   197   147   156    1
   198   148   149    1
   199   148   206    1
   200   148   207    1
   201   149   150    1
   202   149   208    1
   203   149   209    1
   204   150   151    1
   205   150   210    1
   206   150   211    1
   207   151   152    1
   208   151   212    1
   209   151   213    1
   210   152   153    1
   211   152   214    1
   212   152   215    1
   213   153   154    1
   214   153   216    1
   215   153   217    1
   216   154   155    1
   217   154   218    1
   218   154   219    1
   219   155   220    1
   220   155   221    1
   221   155   222    1
   222   156   157    1
   223   156   223    1
   224   156   224    1
   225   157   158    1
   226   157   225    1
   227   157   226    1
   228   158   159    1
   229   158   227    1
   230   158   228    1
   231   159   160    1
   232   159   229    1
   233   159   230    1
   234   160   161    1
   235   160   231    1
   236   160   232    1
   237   161   162    1
   238   161   233    1
   239   161   234    1
   240   162   163    1
   241   162   235    1
   242   162   236    1
   243   163   237    1
   244   163   238    1
   245   163   239    1
   246   240   241    1
   247   240   283    1
   248   240   284    1
   249   240   285    1
   250   241   242    1
   251   241   286    1
   252   241   287    1
   253   242   243    1
   254   242   288    1
   255   242   289    1
   256   243   244    1
   257   243   290    1
   258   243   291    1
   259   244   245    1
   260   244   292    1
   261   244   293    1
   262   245   246    1
   263   245   294    1
   264   245   295    1
   265   246   247    1
   266   246   296    1
   267   246   297    1
   268   247   248    1
   269   247   298    1
   270   247   299    1
   271   248   249    1
   272   248   257    1
   273   249   250    1
   274   249   300    1
   275   249   301    1
   276   250   251    1
   277   250   302    1
   278   250   303    1
   279   251   252    1
   280   251   304    1
   281   251   305    1
   282   252   253    1
   283   252   306    1
   284   252   307    1
   285   253   254    1
   286   253   308    1
   287   253   309    1
   288   254   255    1
   289   254   310    1
   290   254   311    1
   291   255   256    1
   292   255   312    1
   293   255   313    1
   294   256   314    1
   295   256   315    1
   296   256   316    1
   297   257   258    2
   298   257   259    1
   299   259   260    1
   300   259   261    1
   301   259   317    1
   302   260   318    1
   303   260   319    1
   304   260   320    1
   305   261   262    1
   306   262   263    1
   307   262   264    1
   308   262   321    1
   309   263   322    1
   310   263   323    1
   311   263   324    1
   312   264   265    2
   313   264   266    1
   314   266   267    1
   315   266   275    1
   316   267   268    1
   317   267   325    1
   318   267   326    1
   319   268   269    1
   320   268   327    1
   321   268   328    1
   322   269   270    1
   323   269   329    1
   324   269   330    1
   325   270   271    1
   326   270   331    1
   327   270   332    1
   328   271   272    1
   329   271   333    1
   330   271   334    1
   331   272   273    1
   332   272   335    1
   333   272   336    1
   334   273   274    1
   335   273   337    1
   336   273   338    1
   337   274   339    1
   338   274   340    1
   339   274   341    1
   340   275   276    1
   341   275   342    1
   342   275   343    1
   343   276   277    1
   344   276   344    1
   345   276   345    1
   346   277   278    1
   347   277   346    1
   348   277   347    1
   349   278   279    1
   350   278   348    1
   351   278   349    1
   352   279   280    1
   353   279   350    1
   354   279   351    1
   355   280   281    1
   356   280   352    1
   357   280   353    1
   358   281   282    1
   359   281   354    1
   360   281   355    1
   361   282   356    1
   362   282   357    1
   363   282   358    1
@<TRIPOS>SUBSTRUCTURE
     1 RES1      358 GROUP             0 ****  ****    0  
