@<TRIPOS>MOLECULE
capped_square_antiprismatic_0_nunpairedes_0_charge_3 Charge: 3 Unpaired_Electrons: 3 XTB_Unpaired_Electrons: 0 XTB_Charge: 3
   430   435     1     0     0
SMALL
NoCharges
****
Generated from Architector

@<TRIPOS>ATOM
     1 Nd1       0.3708   -0.2189   -0.0093   Nd        1 RES1   0.0000
     2 C1       -1.2453   -9.3043    3.7989   C.3       1 RES1   0.0000
     3 C2        0.1885   -8.8744    4.0791   C.3       1 RES1   0.0000
     4 C3        1.2188   -9.9690    3.8086   C.3       1 RES1   0.0000
     5 C4        1.3526  -10.3818    2.3412   C.3       1 RES1   0.0000
     6 C5        1.6433   -9.2485    1.3535   C.3       1 RES1   0.0000
     7 C6        2.9120   -8.4514    1.6607   C.3       1 RES1   0.0000
     8 C7        3.1638   -7.3385    0.6373   C.3       1 RES1   0.0000
     9 C8        2.1667   -6.1793    0.7817   C.3       1 RES1   0.0000
    10 C9        2.6080   -5.1092    1.7892   C.3       1 RES1   0.0000
    11 C10       1.3736   -4.3999    2.3508   C.3       1 RES1   0.0000
    12 N1        1.6438   -3.2189    3.1700   N.am      1 RES1   0.0000
    13 C11       2.3032   -3.4665    4.4486   C.3       1 RES1   0.0000
    14 C12       1.5189   -4.1051    5.6162   C.3       1 RES1   0.0000
    15 C13       0.9228   -5.5066    5.4424   C.3       1 RES1   0.0000
    16 C14      -0.5525   -5.5306    4.9974   C.3       1 RES1   0.0000
    17 C15      -1.5314   -5.7559    6.1598   C.3       1 RES1   0.0000
    18 C16      -2.9976   -5.8885    5.7062   C.3       1 RES1   0.0000
    19 C17      -3.8409   -4.6158    5.8603   C.3       1 RES1   0.0000
    20 C18      -5.0101   -4.5571    4.8756   C.3       1 RES1   0.0000
    21 C19      -5.6587   -3.1724    4.7626   C.3       1 RES1   0.0000
    22 C20      -6.5193   -3.0718    3.5056   C.3       1 RES1   0.0000
    23 C21       1.4174   -2.0323    2.6095   C.2       1 RES1   0.0000
    24 O1        0.9934   -1.9480    1.4348   O.2       1 RES1   0.0000
    25 C22       1.6577   -0.6859    3.3144   C.3       1 RES1   0.0000
    26 C23       3.1159   -0.2770    3.1264   C.3       1 RES1   0.0000
    27 O2        0.8039    0.2291    2.6197   O.3       1 RES1   0.0000
    28 C24       0.1213    1.2396    3.3675   C.3       1 RES1   0.0000
    29 C25       0.9862    2.4813    3.5784   C.3       1 RES1   0.0000
    30 C26      -1.0816    1.5621    2.4704   C.2       1 RES1   0.0000
    31 O3       -0.9596    1.2380    1.2713   O.2       1 RES1   0.0000
    32 N2       -2.2031    2.1223    2.9148   N.am      1 RES1   0.0000
    33 C27      -2.3661    2.6979    4.2382   C.3       1 RES1   0.0000
    34 C28      -2.4540    4.2270    4.2023   C.3       1 RES1   0.0000
    35 C29      -2.2597    4.8190    5.5952   C.3       1 RES1   0.0000
    36 C30      -2.4003    6.3442    5.6415   C.3       1 RES1   0.0000
    37 C31      -1.4835    7.1195    4.6831   C.3       1 RES1   0.0000
    38 C32      -2.1862    7.5424    3.3909   C.3       1 RES1   0.0000
    39 C33      -1.3145    8.3893    2.4627   C.3       1 RES1   0.0000
    40 C34      -0.1653    7.6176    1.8170   C.3       1 RES1   0.0000
    41 C35       0.6379    8.4788    0.8392   C.3       1 RES1   0.0000
    42 C36       1.5082    9.5114    1.5467   C.3       1 RES1   0.0000
    43 C37      -3.3866    2.0162    2.0516   C.3       1 RES1   0.0000
    44 C38      -4.0351    3.2888    1.4564   C.3       1 RES1   0.0000
    45 C39      -3.1124    4.3693    0.8617   C.3       1 RES1   0.0000
    46 C40      -3.7179    5.1213   -0.3486   C.3       1 RES1   0.0000
    47 C41      -2.8402    5.1621   -1.6125   C.3       1 RES1   0.0000
    48 C42      -1.7403    6.2376   -1.6293   C.3       1 RES1   0.0000
    49 C43      -0.5454    5.8991   -2.5409   C.3       1 RES1   0.0000
    50 C44      -0.6282    6.4088   -3.9877   C.3       1 RES1   0.0000
    51 C45      -0.4878    5.2898   -5.0181   C.3       1 RES1   0.0000
    52 C46      -0.3836    5.8183   -6.4406   C.3       1 RES1   0.0000
    53 H1       -1.9449   -8.5305    4.1098   H         1 RES1   0.0000
    54 H2       -1.4790  -10.2104    4.3486   H         1 RES1   0.0000
    55 H3       -1.3976   -9.5038    2.7421   H         1 RES1   0.0000
    56 H4        0.2685   -8.5873    5.1293   H         1 RES1   0.0000
    57 H5        0.4351   -7.9959    3.4776   H         1 RES1   0.0000
    58 H6        0.9394  -10.8547    4.3810   H         1 RES1   0.0000
    59 H7        2.1902   -9.6360    4.1802   H         1 RES1   0.0000
    60 H8        0.4297  -10.8702    2.0251   H         1 RES1   0.0000
    61 H9        2.1488  -11.1242    2.2717   H         1 RES1   0.0000
    62 H10       0.7790   -8.5816    1.3142   H         1 RES1   0.0000
    63 H11       1.7503   -9.6919    0.3603   H         1 RES1   0.0000
    64 H12       3.7588   -9.1399    1.6576   H         1 RES1   0.0000
    65 H13       2.8451   -8.0048    2.6541   H         1 RES1   0.0000
    66 H14       3.0775   -7.7585   -0.3666   H         1 RES1   0.0000
    67 H15       4.1860   -6.9687    0.7467   H         1 RES1   0.0000
    68 H16       1.2079   -6.5973    1.0947   H         1 RES1   0.0000
    69 H17       2.0069   -5.7104   -0.1930   H         1 RES1   0.0000
    70 H18       3.2808   -4.3975    1.3048   H         1 RES1   0.0000
    71 H19       3.1519   -5.5959    2.5997   H         1 RES1   0.0000
    72 H20       0.8286   -5.1140    2.9598   H         1 RES1   0.0000
    73 H21       0.7305   -4.0717    1.5339   H         1 RES1   0.0000
    74 H22       2.6960   -2.5247    4.8286   H         1 RES1   0.0000
    75 H23       3.1633   -4.1074    4.2332   H         1 RES1   0.0000
    76 H24       0.7358   -3.4398    5.9756   H         1 RES1   0.0000
    77 H25       2.2708   -4.1625    6.4069   H         1 RES1   0.0000
    78 H26       0.9911   -6.0066    6.4084   H         1 RES1   0.0000
    79 H27       1.5331   -6.0893    4.7519   H         1 RES1   0.0000
    80 H28      -0.6986   -6.3510    4.2912   H         1 RES1   0.0000
    81 H29      -0.7865   -4.6029    4.4722   H         1 RES1   0.0000
    82 H30      -1.4423   -4.9513    6.8903   H         1 RES1   0.0000
    83 H31      -1.2379   -6.6814    6.6533   H         1 RES1   0.0000
    84 H32      -3.4728   -6.6862    6.2737   H         1 RES1   0.0000
    85 H33      -3.0150   -6.1936    4.6561   H         1 RES1   0.0000
    86 H34      -3.2075   -3.7440    5.7098   H         1 RES1   0.0000
    87 H35      -4.2363   -4.5491    6.8724   H         1 RES1   0.0000
    88 H36      -5.7703   -5.2699    5.1926   H         1 RES1   0.0000
    89 H37      -4.6684   -4.8760    3.8863   H         1 RES1   0.0000
    90 H38      -4.9003   -2.3825    4.7441   H         1 RES1   0.0000
    91 H39      -6.2823   -3.0023    5.6399   H         1 RES1   0.0000
    92 H40      -5.9088   -3.0800    2.6021   H         1 RES1   0.0000
    93 H41      -7.1037   -2.1559    3.5059   H         1 RES1   0.0000
    94 H42      -7.2073   -3.9105    3.4558   H         1 RES1   0.0000
    95 H43       1.4023   -0.6998    4.3753   H         1 RES1   0.0000
    96 H44       3.3258   -0.1878    2.0609   H         1 RES1   0.0000
    97 H45       3.7964   -0.9958    3.5763   H         1 RES1   0.0000
    98 H46       3.2805    0.6901    3.5904   H         1 RES1   0.0000
    99 H47      -0.2181    0.8319    4.3232   H         1 RES1   0.0000
   100 H48       1.5469    2.6584    2.6621   H         1 RES1   0.0000
   101 H49       1.6740    2.3351    4.4099   H         1 RES1   0.0000
   102 H50       0.3783    3.3553    3.7980   H         1 RES1   0.0000
   103 H51      -1.5175    2.4135    4.8583   H         1 RES1   0.0000
   104 H52      -3.2675    2.2838    4.6957   H         1 RES1   0.0000
   105 H53      -3.4270    4.5313    3.8229   H         1 RES1   0.0000
   106 H54      -1.6771    4.6077    3.5378   H         1 RES1   0.0000
   107 H55      -1.2704    4.5433    5.9676   H         1 RES1   0.0000
   108 H56      -3.0050    4.3933    6.2698   H         1 RES1   0.0000
   109 H57      -2.1780    6.6516    6.6642   H         1 RES1   0.0000
   110 H58      -3.4360    6.6206    5.4400   H         1 RES1   0.0000
   111 H59      -0.5982    6.5205    4.4651   H         1 RES1   0.0000
   112 H60      -1.1447    8.0279    5.1831   H         1 RES1   0.0000
   113 H61      -3.0642    8.1329    3.6612   H         1 RES1   0.0000
   114 H62      -2.5395    6.6683    2.8395   H         1 RES1   0.0000
   115 H63      -0.9214    9.2358    3.0239   H         1 RES1   0.0000
   116 H64      -1.9476    8.7849    1.6649   H         1 RES1   0.0000
   117 H65      -0.5804    6.7566    1.2823   H         1 RES1   0.0000
   118 H66       0.5101    7.2327    2.5832   H         1 RES1   0.0000
   119 H67      -0.0465    8.9834    0.1539   H         1 RES1   0.0000
   120 H68       1.2832    7.8318    0.2364   H         1 RES1   0.0000
   121 H69       0.8999   10.2233    2.0958   H         1 RES1   0.0000
   122 H70       2.1039   10.0681    0.8278   H         1 RES1   0.0000
   123 H71       2.1854    9.0275    2.2484   H         1 RES1   0.0000
   124 H72      -4.1585    1.5031    2.6345   H         1 RES1   0.0000
   125 H73      -3.0916    1.3415    1.2469   H         1 RES1   0.0000
   126 H74      -4.6712    3.7521    2.2106   H         1 RES1   0.0000
   127 H75      -4.6952    2.9069    0.6696   H         1 RES1   0.0000
   128 H76      -2.1730    3.9137    0.5752   H         1 RES1   0.0000
   129 H77      -2.8705    5.0917    1.6414   H         1 RES1   0.0000
   130 H78      -3.9493    6.1445   -0.0613   H         1 RES1   0.0000
   131 H79      -4.6606    4.6464   -0.6290   H         1 RES1   0.0000
   132 H80      -3.4980    5.3286   -2.4671   H         1 RES1   0.0000
   133 H81      -2.3952    4.1783   -1.7416   H         1 RES1   0.0000
   134 H82      -1.3745    6.4052   -0.6130   H         1 RES1   0.0000
   135 H83      -2.1826    7.1780   -1.9532   H         1 RES1   0.0000
   136 H84      -0.4204    4.8150   -2.5854   H         1 RES1   0.0000
   137 H85       0.3623    6.2974   -2.0855   H         1 RES1   0.0000
   138 H86       0.1491    7.1543   -4.1578   H         1 RES1   0.0000
   139 H87      -1.5789    6.9139   -4.1457   H         1 RES1   0.0000
   140 H88      -1.3614    4.6412   -4.9608   H         1 RES1   0.0000
   141 H89       0.3982    4.6926   -4.7887   H         1 RES1   0.0000
   142 H90      -1.2176    6.4794   -6.6595   H         1 RES1   0.0000
   143 H91      -0.4023    5.0006   -7.1582   H         1 RES1   0.0000
   144 H92       0.5410    6.3698   -6.5807   H         1 RES1   0.0000
   145 C47       0.5291   -7.6526   -5.2926   C.3       1 RES1   0.0000
   146 C48       0.2967   -6.6082   -4.2076   C.3       1 RES1   0.0000
   147 C49       0.0737   -7.2134   -2.8187   C.3       1 RES1   0.0000
   148 C50      -1.2229   -8.0125   -2.7011   C.3       1 RES1   0.0000
   149 C51      -1.3977   -8.6549   -1.3236   C.3       1 RES1   0.0000
   150 C52      -1.8039   -7.6867   -0.2086   C.3       1 RES1   0.0000
   151 C53      -3.2717   -7.2753   -0.3024   C.3       1 RES1   0.0000
   152 C54      -3.8418   -6.5688    0.9324   C.3       1 RES1   0.0000
   153 C55      -3.5844   -5.0616    1.0239   C.3       1 RES1   0.0000
   154 C56      -2.2160   -4.6850    1.5964   C.3       1 RES1   0.0000
   155 N3       -2.0285   -3.2362    1.5992   N.am      1 RES1   0.0000
   156 C57      -2.7993   -2.5128    2.6318   C.3       1 RES1   0.0000
   157 C58      -2.0849   -1.4471    3.4870   C.3       1 RES1   0.0000
   158 C59      -1.3466   -1.9151    4.7600   C.3       1 RES1   0.0000
   159 C60      -1.5365   -0.9641    5.9599   C.3       1 RES1   0.0000
   160 C61      -0.6040   -1.2085    7.1627   C.3       1 RES1   0.0000
   161 C62       0.8448   -0.7519    6.9483   C.3       1 RES1   0.0000
   162 C63       1.7662   -0.9604    8.1539   C.3       1 RES1   0.0000
   163 C64       3.1988   -0.4766    7.8887   C.3       1 RES1   0.0000
   164 C65       4.0106   -1.3758    6.9495   C.3       1 RES1   0.0000
   165 C66       5.5043   -1.2730    7.2208   C.3       1 RES1   0.0000
   166 C67      -1.5618   -2.5678    0.5471   C.2       1 RES1   0.0000
   167 O4       -1.6139   -1.3218    0.4833   O.2       1 RES1   0.0000
   168 C68      -0.9702   -3.2686   -0.7014   C.3       1 RES1   0.0000
   169 C69      -2.0195   -3.1331   -1.8152   C.3       1 RES1   0.0000
   170 O5        0.1796   -2.4848   -1.0075   O.3       1 RES1   0.0000
   171 C70       1.2416   -3.0451   -1.7823   C.3       1 RES1   0.0000
   172 C71       0.9435   -3.0246   -3.2825   C.3       1 RES1   0.0000
   173 C72       2.4094   -2.0959   -1.4628   C.2       1 RES1   0.0000
   174 O6        2.1199   -0.9285   -1.1322   O.2       1 RES1   0.0000
   175 N4        3.6760   -2.4780   -1.5323   N.am      1 RES1   0.0000
   176 C73       4.0398   -3.8467   -1.9015   C.3       1 RES1   0.0000
   177 C74       5.5269   -4.1878   -1.9039   C.3       1 RES1   0.0000
   178 C75       6.2950   -3.6029   -3.0863   C.3       1 RES1   0.0000
   179 C76       7.7349   -4.1048   -3.1564   C.3       1 RES1   0.0000
   180 C77       8.3997   -3.7183   -4.4795   C.3       1 RES1   0.0000
   181 C78       8.8213   -2.2482   -4.6255   C.3       1 RES1   0.0000
   182 C79      10.2449   -1.9507   -4.1306   C.3       1 RES1   0.0000
   183 C80      10.3472   -1.4859   -2.6759   C.3       1 RES1   0.0000
   184 C81       9.9516   -0.0200   -2.5050   C.3       1 RES1   0.0000
   185 C82       9.8970    0.3977   -1.0406   C.3       1 RES1   0.0000
   186 C83       4.6520   -1.4469   -1.1732   C.3       1 RES1   0.0000
   187 C84       4.8358   -0.4072   -2.2852   C.3       1 RES1   0.0000
   188 C85       6.1139    0.4119   -2.1080   C.3       1 RES1   0.0000
   189 C86       6.3369    1.4119   -3.2441   C.3       1 RES1   0.0000
   190 C87       5.2681    2.5011   -3.3543   C.3       1 RES1   0.0000
   191 C88       5.3246    3.2001   -4.7133   C.3       1 RES1   0.0000
   192 C89       4.0948    4.0637   -4.9942   C.3       1 RES1   0.0000
   193 C90       4.0003    4.4804   -6.4637   C.3       1 RES1   0.0000
   194 C91       3.6620    3.3435   -7.4304   C.3       1 RES1   0.0000
   195 C92       2.2652    2.7650   -7.2290   C.3       1 RES1   0.0000
   196 H93       0.7799   -7.1667   -6.2321   H         1 RES1   0.0000
   197 H94      -0.3576   -8.2570   -5.4548   H         1 RES1   0.0000
   198 H95       1.3486   -8.3112   -5.0168   H         1 RES1   0.0000
   199 H96      -0.5677   -5.9951   -4.4801   H         1 RES1   0.0000
   200 H97       1.1760   -5.9563   -4.1643   H         1 RES1   0.0000
   201 H98       0.0712   -6.4014   -2.0810   H         1 RES1   0.0000
   202 H99       0.9159   -7.8685   -2.5817   H         1 RES1   0.0000
   203 H100     -1.2049   -8.8071   -3.4454   H         1 RES1   0.0000
   204 H101     -2.0747   -7.3692   -2.9262   H         1 RES1   0.0000
   205 H102     -0.4587   -9.1369   -1.0444   H         1 RES1   0.0000
   206 H103     -2.1548   -9.4361   -1.3960   H         1 RES1   0.0000
   207 H104     -1.1401   -6.8202   -0.2346   H         1 RES1   0.0000
   208 H105     -1.6580   -8.1867    0.7508   H         1 RES1   0.0000
   209 H106     -3.8464   -8.1922   -0.4401   H         1 RES1   0.0000
   210 H107     -3.4468   -6.6545   -1.1822   H         1 RES1   0.0000
   211 H108     -3.4904   -7.0615    1.8406   H         1 RES1   0.0000
   212 H109     -4.9246   -6.6951    0.8997   H         1 RES1   0.0000
   213 H110     -4.3478   -4.6234    1.6679   H         1 RES1   0.0000
   214 H111     -3.7082   -4.6192    0.0354   H         1 RES1   0.0000
   215 H112     -1.4240   -5.1610    1.0246   H         1 RES1   0.0000
   216 H113     -2.1441   -5.0364    2.6257   H         1 RES1   0.0000
   217 H114     -3.2391   -3.2667    3.2786   H         1 RES1   0.0000
   218 H115     -3.6146   -2.0045    2.1078   H         1 RES1   0.0000
   219 H116     -2.8717   -0.7551    3.8033   H         1 RES1   0.0000
   220 H117     -1.4109   -0.8997    2.8266   H         1 RES1   0.0000
   221 H118     -0.2889   -2.0271    4.5377   H         1 RES1   0.0000
   222 H119     -1.7130   -2.8929    5.0651   H         1 RES1   0.0000
   223 H120     -2.5656   -1.0468    6.3175   H         1 RES1   0.0000
   224 H121     -1.4063    0.0718    5.6401   H         1 RES1   0.0000
   225 H122     -0.6245   -2.2631    7.4442   H         1 RES1   0.0000
   226 H123     -1.0079   -0.6511    8.0103   H         1 RES1   0.0000
   227 H124      0.8471    0.3140    6.6978   H         1 RES1   0.0000
   228 H125      1.2806   -1.3074    6.1173   H         1 RES1   0.0000
   229 H126      1.7914   -2.0204    8.4153   H         1 RES1   0.0000
   230 H127      1.3701   -0.4166    9.0132   H         1 RES1   0.0000
   231 H128      3.7193   -0.4313    8.8451   H         1 RES1   0.0000
   232 H129      3.1775    0.5422    7.4915   H         1 RES1   0.0000
   233 H130      3.8173   -1.0994    5.9092   H         1 RES1   0.0000
   234 H131      3.7061   -2.4147    7.0876   H         1 RES1   0.0000
   235 H132      5.8465   -0.2514    7.0985   H         1 RES1   0.0000
   236 H133      6.0699   -1.9085    6.5458   H         1 RES1   0.0000
   237 H134      5.7198   -1.5869    8.2361   H         1 RES1   0.0000
   238 H135     -0.6808   -4.3134   -0.5424   H         1 RES1   0.0000
   239 H136     -1.9419   -2.1188   -2.2069   H         1 RES1   0.0000
   240 H137     -3.0293   -3.2795   -1.4400   H         1 RES1   0.0000
   241 H138     -1.8434   -3.8478   -2.6127   H         1 RES1   0.0000
   242 H139      1.4533   -4.0685   -1.4496   H         1 RES1   0.0000
   243 H140      0.5020   -2.0653   -3.5395   H         1 RES1   0.0000
   244 H141      0.2656   -3.8281   -3.5543   H         1 RES1   0.0000
   245 H142      1.8471   -3.1445   -3.8717   H         1 RES1   0.0000
   246 H143      3.6413   -4.0527   -2.8995   H         1 RES1   0.0000
   247 H144      3.5468   -4.5194   -1.1927   H         1 RES1   0.0000
   248 H145      5.5830   -5.2767   -1.9669   H         1 RES1   0.0000
   249 H146      5.9863   -3.9081   -0.9552   H         1 RES1   0.0000
   250 H147      6.2949   -2.5172   -3.0370   H         1 RES1   0.0000
   251 H148      5.7848   -3.8974   -4.0055   H         1 RES1   0.0000
   252 H149      7.7314   -5.1938   -3.0851   H         1 RES1   0.0000
   253 H150      8.3084   -3.7211   -2.3132   H         1 RES1   0.0000
   254 H151      7.6984   -3.9612   -5.2826   H         1 RES1   0.0000
   255 H152      9.2797   -4.3470   -4.6228   H         1 RES1   0.0000
   256 H153      8.1043   -1.5945   -4.1228   H         1 RES1   0.0000
   257 H154      8.7855   -2.0041   -5.6897   H         1 RES1   0.0000
   258 H155     10.6814   -1.1707   -4.7581   H         1 RES1   0.0000
   259 H156     10.8527   -2.8479   -4.2588   H         1 RES1   0.0000
   260 H157     11.3795   -1.6060   -2.3439   H         1 RES1   0.0000
   261 H158      9.7250   -2.1112   -2.0322   H         1 RES1   0.0000
   262 H159      8.9802    0.1523   -2.9719   H         1 RES1   0.0000
   263 H160     10.6748    0.6039   -3.0318   H         1 RES1   0.0000
   264 H161      9.1829   -0.2158   -0.4932   H         1 RES1   0.0000
   265 H162      9.6058    1.4415   -0.9472   H         1 RES1   0.0000
   266 H163     10.8725    0.2747   -0.5798   H         1 RES1   0.0000
   267 H164      5.6004   -1.9153   -0.9306   H         1 RES1   0.0000
   268 H165      4.2696   -0.9450   -0.2751   H         1 RES1   0.0000
   269 H166      3.9610    0.2431   -2.2935   H         1 RES1   0.0000
   270 H167      4.8795   -0.9109   -3.2491   H         1 RES1   0.0000
   271 H168      6.9668   -0.2676   -2.0915   H         1 RES1   0.0000
   272 H169      6.0993    0.9354   -1.1539   H         1 RES1   0.0000
   273 H170      6.3731    0.8613   -4.1852   H         1 RES1   0.0000
   274 H171      7.3103    1.8878   -3.1111   H         1 RES1   0.0000
   275 H172      5.4064    3.2376   -2.5593   H         1 RES1   0.0000
   276 H173      4.2729    2.0623   -3.2356   H         1 RES1   0.0000
   277 H174      5.4074    2.4359   -5.4868   H         1 RES1   0.0000
   278 H175      6.2212    3.8187   -4.7673   H         1 RES1   0.0000
   279 H176      4.1380    4.9650   -4.3765   H         1 RES1   0.0000
   280 H177      3.1879    3.5180   -4.7192   H         1 RES1   0.0000
   281 H178      4.9542    4.9178   -6.7619   H         1 RES1   0.0000
   282 H179      3.2376    5.2556   -6.5605   H         1 RES1   0.0000
   283 H180      4.3971    2.5434   -7.3410   H         1 RES1   0.0000
   284 H181      3.7334    3.7337   -8.4464   H         1 RES1   0.0000
   285 H182      2.1849    2.2441   -6.2750   H         1 RES1   0.0000
   286 H183      2.0416    2.0556   -8.0233   H         1 RES1   0.0000
   287 H184      1.5227    3.5596   -7.2597   H         1 RES1   0.0000
   288 C93      -4.6245   10.5098   -2.3910   C.3       1 RES1   0.0000
   289 C94      -4.0872    9.0848   -2.3536   C.3       1 RES1   0.0000
   290 C95      -4.1664    8.3843   -3.7175   C.3       1 RES1   0.0000
   291 C96      -5.3954    7.4909   -3.8786   C.3       1 RES1   0.0000
   292 C97      -5.4145    6.7686   -5.2284   C.3       1 RES1   0.0000
   293 C98      -4.5840    5.4795   -5.3071   C.3       1 RES1   0.0000
   294 C99      -5.3179    4.2476   -4.7609   C.3       1 RES1   0.0000
   295 C100     -4.8308    2.8985   -5.3291   C.3       1 RES1   0.0000
   296 C101     -4.0242    1.9948   -4.3754   C.3       1 RES1   0.0000
   297 C102     -2.4981    2.1247   -4.5077   C.3       1 RES1   0.0000
   298 N5       -1.7579    0.9309   -4.0804   N.am      1 RES1   0.0000
   299 C103     -1.8873   -0.2500   -4.9405   C.3       1 RES1   0.0000
   300 C104     -1.1589   -0.1039   -6.2772   C.3       1 RES1   0.0000
   301 C105     -1.4291   -1.2803   -7.2244   C.3       1 RES1   0.0000
   302 C106     -0.9474   -2.6666   -6.7845   C.3       1 RES1   0.0000
   303 C107      0.4943   -3.0175   -7.1664   C.3       1 RES1   0.0000
   304 C108      1.5240   -2.0023   -6.6725   C.3       1 RES1   0.0000
   305 C109      2.9334   -2.5803   -6.5429   C.3       1 RES1   0.0000
   306 C110      3.8027   -1.7230   -5.6221   C.3       1 RES1   0.0000
   307 C111      4.3002   -0.4292   -6.2742   C.3       1 RES1   0.0000
   308 C112      5.6552   -0.6183   -6.9448   C.3       1 RES1   0.0000
   309 C113     -1.0085    0.8296   -2.9842   C.2       1 RES1   0.0000
   310 O7       -0.4525   -0.2218   -2.6120   O.2       1 RES1   0.0000
   311 C114     -0.9643    1.9745   -1.9734   C.3       1 RES1   0.0000
   312 C115     -2.2405    1.7048   -1.1723   C.3       1 RES1   0.0000
   313 O8        0.2239    1.8108   -1.1781   O.3       1 RES1   0.0000
   314 C116      0.9865    2.9932   -0.8880   C.3       1 RES1   0.0000
   315 C117      0.2558    3.9205    0.0874   C.3       1 RES1   0.0000
   316 C118      2.2672    2.5157   -0.1887   C.2       1 RES1   0.0000
   317 O9        2.2619    1.3934    0.3481   O.2       1 RES1   0.0000
   318 N6        3.3171    3.3386   -0.1320   N.am      1 RES1   0.0000
   319 C119      3.3172    4.6421   -0.8121   C.3       1 RES1   0.0000
   320 C120      4.3600    5.6794   -0.3838   C.3       1 RES1   0.0000
   321 C121      4.1864    6.3181    0.9941   C.3       1 RES1   0.0000
   322 C122      5.1832    7.4742    1.1636   C.3       1 RES1   0.0000
   323 C123      5.4857    7.8260    2.6241   C.3       1 RES1   0.0000
   324 C124      6.5010    6.9089    3.3174   C.3       1 RES1   0.0000
   325 C125      7.9731    7.1697    2.9583   C.3       1 RES1   0.0000
   326 C126      8.5496    6.3226    1.8196   C.3       1 RES1   0.0000
   327 C127      8.6316    4.8364    2.1592   C.3       1 RES1   0.0000
   328 C128      9.1500    4.0084    0.9913   C.3       1 RES1   0.0000
   329 C129      4.5854    2.7451    0.2983   C.3       1 RES1   0.0000
   330 C130      4.9247    2.8406    1.7939   C.3       1 RES1   0.0000
   331 C131      5.9638    1.7610    2.1248   C.3       1 RES1   0.0000
   332 C132      6.6902    1.8572    3.4741   C.3       1 RES1   0.0000
   333 C133      5.8142    1.9193    4.7294   C.3       1 RES1   0.0000
   334 C134      5.3736    3.3342    5.1221   C.3       1 RES1   0.0000
   335 C135      4.2304    3.3044    6.1343   C.3       1 RES1   0.0000
   336 C136      3.9201    4.6619    6.7676   C.3       1 RES1   0.0000
   337 C137      3.5788    5.7977    5.8024   C.3       1 RES1   0.0000
   338 C138      2.3731    5.5071    4.9168   C.3       1 RES1   0.0000
   339 H185     -4.5375   10.9710   -1.4097   H         1 RES1   0.0000
   340 H186     -5.6696   10.5258   -2.6858   H         1 RES1   0.0000
   341 H187     -4.0572   11.1095   -3.0999   H         1 RES1   0.0000
   342 H188     -4.6450    8.5054   -1.6128   H         1 RES1   0.0000
   343 H189     -3.0462    9.1336   -2.0187   H         1 RES1   0.0000
   344 H190     -3.2706    7.7791   -3.8674   H         1 RES1   0.0000
   345 H191     -4.1735    9.1404   -4.5039   H         1 RES1   0.0000
   346 H192     -6.2876    8.1132   -3.7953   H         1 RES1   0.0000
   347 H193     -5.4324    6.7598   -3.0677   H         1 RES1   0.0000
   348 H194     -5.0431    7.4584   -5.9861   H         1 RES1   0.0000
   349 H195     -6.4455    6.5320   -5.4894   H         1 RES1   0.0000
   350 H196     -3.6331    5.6211   -4.7907   H         1 RES1   0.0000
   351 H197     -4.3601    5.2975   -6.3604   H         1 RES1   0.0000
   352 H198     -6.3717    4.3550   -5.0234   H         1 RES1   0.0000
   353 H199     -5.2696    4.2229   -3.6708   H         1 RES1   0.0000
   354 H200     -4.2560    3.0680   -6.2403   H         1 RES1   0.0000
   355 H201     -5.7172    2.3343   -5.6219   H         1 RES1   0.0000
   356 H202     -4.3055    0.9653   -4.5927   H         1 RES1   0.0000
   357 H203     -4.3357    2.2093   -3.3530   H         1 RES1   0.0000
   358 H204     -2.1597    2.9944   -3.9504   H         1 RES1   0.0000
   359 H205     -2.2625    2.3012   -5.5601   H         1 RES1   0.0000
   360 H206     -2.9473   -0.4425   -5.1154   H         1 RES1   0.0000
   361 H207     -1.4722   -1.0824   -4.3751   H         1 RES1   0.0000
   362 H208     -0.0928    0.0214   -6.0916   H         1 RES1   0.0000
   363 H209     -1.5223    0.7933   -6.7834   H         1 RES1   0.0000
   364 H210     -0.9814   -1.0420   -8.1888   H         1 RES1   0.0000
   365 H211     -2.5083   -1.3301   -7.3757   H         1 RES1   0.0000
   366 H212     -1.5932   -3.4029   -7.2641   H         1 RES1   0.0000
   367 H213     -1.0786   -2.7828   -5.7073   H         1 RES1   0.0000
   368 H214      0.5700   -3.1172   -8.2502   H         1 RES1   0.0000
   369 H215      0.7162   -3.9975   -6.7335   H         1 RES1   0.0000
   370 H216      1.2183   -1.6480   -5.6869   H         1 RES1   0.0000
   371 H217      1.5326   -1.1454   -7.3453   H         1 RES1   0.0000
   372 H218      3.4063   -2.6710   -7.5191   H         1 RES1   0.0000
   373 H219      2.8628   -3.5896   -6.1276   H         1 RES1   0.0000
   374 H220      4.6696   -2.3049   -5.3001   H         1 RES1   0.0000
   375 H221      3.2141   -1.4743   -4.7321   H         1 RES1   0.0000
   376 H222      4.3893    0.3441   -5.5091   H         1 RES1   0.0000
   377 H223      3.5719   -0.0852   -7.0088   H         1 RES1   0.0000
   378 H224      6.4133   -0.8864   -6.2098   H         1 RES1   0.0000
   379 H225      5.9751    0.2933   -7.4443   H         1 RES1   0.0000
   380 H226      5.6090   -1.4114   -7.6863   H         1 RES1   0.0000
   381 H227     -0.9422    2.9653   -2.4266   H         1 RES1   0.0000
   382 H228     -2.2415    0.6627   -0.8307   H         1 RES1   0.0000
   383 H229     -3.1243    1.8571   -1.7829   H         1 RES1   0.0000
   384 H230     -2.2884    2.3603   -0.3190   H         1 RES1   0.0000
   385 H231      1.2424    3.4846   -1.8372   H         1 RES1   0.0000
   386 H232     -0.2908    3.2895    0.7761   H         1 RES1   0.0000
   387 H233     -0.4159    4.5875   -0.4353   H         1 RES1   0.0000
   388 H234      0.9359    4.5213    0.6824   H         1 RES1   0.0000
   389 H235      2.3429    5.1053   -0.6694   H         1 RES1   0.0000
   390 H236      3.4638    4.4714   -1.8862   H         1 RES1   0.0000
   391 H237      4.2800    6.4847   -1.1199   H         1 RES1   0.0000
   392 H238      5.3654    5.2735   -0.4649   H         1 RES1   0.0000
   393 H239      4.3350    5.5813    1.7810   H         1 RES1   0.0000
   394 H240      3.1716    6.7039    1.0980   H         1 RES1   0.0000
   395 H241      4.7771    8.3590    0.6697   H         1 RES1   0.0000
   396 H242      6.1173    7.2190    0.6647   H         1 RES1   0.0000
   397 H243      4.5527    7.8067    3.1951   H         1 RES1   0.0000
   398 H244      5.8674    8.8481    2.6636   H         1 RES1   0.0000
   399 H245      6.2521    5.8641    3.1212   H         1 RES1   0.0000
   400 H246      6.3960    7.0692    4.3927   H         1 RES1   0.0000
   401 H247      8.5850    6.9756    3.8425   H         1 RES1   0.0000
   402 H248      8.0966    8.2239    2.7023   H         1 RES1   0.0000
   403 H249      9.5559    6.6871    1.6036   H         1 RES1   0.0000
   404 H250      7.9615    6.4483    0.9083   H         1 RES1   0.0000
   405 H251      7.6392    4.4786    2.4379   H         1 RES1   0.0000
   406 H252      9.2848    4.7010    3.0227   H         1 RES1   0.0000
   407 H253      8.5128    4.1403    0.1185   H         1 RES1   0.0000
   408 H254      9.1793    2.9522    1.2498   H         1 RES1   0.0000
   409 H255     10.1543    4.3225    0.7265   H         1 RES1   0.0000
   410 H256      5.3890    3.2048   -0.2806   H         1 RES1   0.0000
   411 H257      4.5287    1.6814    0.0434   H         1 RES1   0.0000
   412 H258      4.0205    2.6987    2.3880   H         1 RES1   0.0000
   413 H259      5.3398    3.8217    2.0174   H         1 RES1   0.0000
   414 H260      6.7357    1.8020    1.3527   H         1 RES1   0.0000
   415 H261      5.4842    0.7817    2.0527   H         1 RES1   0.0000
   416 H262      7.3553    2.7194    3.4740   H         1 RES1   0.0000
   417 H263      7.3217    0.9664    3.5377   H         1 RES1   0.0000
   418 H264      6.3943    1.5077    5.5579   H         1 RES1   0.0000
   419 H265      4.9403    1.2774    4.5948   H         1 RES1   0.0000
   420 H266      5.0474    3.8870    4.2425   H         1 RES1   0.0000
   421 H267      6.2259    3.8650    5.5495   H         1 RES1   0.0000
   422 H268      4.4845    2.6117    6.9402   H         1 RES1   0.0000
   423 H269      3.3348    2.9125    5.6419   H         1 RES1   0.0000
   424 H270      4.7801    4.9694    7.3631   H         1 RES1   0.0000
   425 H271      3.0825    4.5303    7.4556   H         1 RES1   0.0000
   426 H272      4.4399    6.0276    5.1772   H         1 RES1   0.0000
   427 H273      3.3678    6.6835    6.4031   H         1 RES1   0.0000
   428 H274      2.6072    4.7469    4.1738   H         1 RES1   0.0000
   429 H275      2.0663    6.4103    4.3935   H         1 RES1   0.0000
   430 H276      1.5369    5.1623    5.5230   H         1 RES1   0.0000
@<TRIPOS>BOND
     1     1    24    1
     2     1    27    1
     3     1    31    1
     4     1   167    1
     5     1   170    1
     6     1   174    1
     7     1   310    1
     8     1   313    1
     9     1   317    1
    10     2     3    1
    11     2    53    1
    12     2    54    1
    13     2    55    1
    14     3     4    1
    15     3    56    1
    16     3    57    1
    17     4     5    1
    18     4    58    1
    19     4    59    1
    20     5     6    1
    21     5    60    1
    22     5    61    1
    23     6     7    1
    24     6    62    1
    25     6    63    1
    26     7     8    1
    27     7    64    1
    28     7    65    1
    29     8     9    1
    30     8    66    1
    31     8    67    1
    32     9    10    1
    33     9    68    1
    34     9    69    1
    35    10    11    1
    36    10    70    1
    37    10    71    1
    38    11    12    1
    39    11    72    1
    40    11    73    1
    41    12    13    1
    42    12    23    1
    43    13    14    1
    44    13    74    1
    45    13    75    1
    46    14    15    1
    47    14    76    1
    48    14    77    1
    49    15    16    1
    50    15    78    1
    51    15    79    1
    52    16    17    1
    53    16    80    1
    54    16    81    1
    55    17    18    1
    56    17    82    1
    57    17    83    1
    58    18    19    1
    59    18    84    1
    60    18    85    1
    61    19    20    1
    62    19    86    1
    63    19    87    1
    64    20    21    1
    65    20    88    1
    66    20    89    1
    67    21    22    1
    68    21    90    1
    69    21    91    1
    70    22    92    1
    71    22    93    1
    72    22    94    1
    73    23    24    2
    74    23    25    1
    75    25    26    1
    76    25    27    1
    77    25    95    1
    78    26    96    1
    79    26    97    1
    80    26    98    1
    81    27    28    1
    82    28    29    1
    83    28    30    1
    84    28    99    1
    85    29   100    1
    86    29   101    1
    87    29   102    1
    88    30    31    2
    89    30    32    1
    90    32    33    1
    91    32    43    1
    92    33    34    1
    93    33   103    1
    94    33   104    1
    95    34    35    1
    96    34   105    1
    97    34   106    1
    98    35    36    1
    99    35   107    1
   100    35   108    1
   101    36    37    1
   102    36   109    1
   103    36   110    1
   104    37    38    1
   105    37   111    1
   106    37   112    1
   107    38    39    1
   108    38   113    1
   109    38   114    1
   110    39    40    1
   111    39   115    1
   112    39   116    1
   113    40    41    1
   114    40   117    1
   115    40   118    1
   116    41    42    1
   117    41   119    1
   118    41   120    1
   119    42   121    1
   120    42   122    1
   121    42   123    1
   122    43    44    1
   123    43   124    1
   124    43   125    1
   125    44    45    1
   126    44   126    1
   127    44   127    1
   128    45    46    1
   129    45   128    1
   130    45   129    1
   131    46    47    1
   132    46   130    1
   133    46   131    1
   134    47    48    1
   135    47   132    1
   136    47   133    1
   137    48    49    1
   138    48   134    1
   139    48   135    1
   140    49    50    1
   141    49   136    1
   142    49   137    1
   143    50    51    1
   144    50   138    1
   145    50   139    1
   146    51    52    1
   147    51   140    1
   148    51   141    1
   149    52   142    1
   150    52   143    1
   151    52   144    1
   152   145   146    1
   153   145   196    1
   154   145   197    1
   155   145   198    1
   156   146   147    1
   157   146   199    1
   158   146   200    1
   159   147   148    1
   160   147   201    1
   161   147   202    1
   162   148   149    1
   163   148   203    1
   164   148   204    1
   165   149   150    1
   166   149   205    1
   167   149   206    1
   168   150   151    1
   169   150   207    1
   170   150   208    1
   171   151   152    1
   172   151   209    1
   173   151   210    1
   174   152   153    1
   175   152   211    1
   176   152   212    1
   177   153   154    1
   178   153   213    1
   179   153   214    1
   180   154   155    1
   181   154   215    1
   182   154   216    1
   183   155   156    1
   184   155   166    1
   185   156   157    1
   186   156   217    1
   187   156   218    1
   188   157   158    1
   189   157   219    1
   190   157   220    1
   191   158   159    1
   192   158   221    1
   193   158   222    1
   194   159   160    1
   195   159   223    1
   196   159   224    1
   197   160   161    1
   198   160   225    1
   199   160   226    1
   200   161   162    1
   201   161   227    1
   202   161   228    1
   203   162   163    1
   204   162   229    1
   205   162   230    1
   206   163   164    1
   207   163   231    1
   208   163   232    1
   209   164   165    1
   210   164   233    1
   211   164   234    1
   212   165   235    1
   213   165   236    1
   214   165   237    1
   215   166   167    2
   216   166   168    1
   217   168   169    1
   218   168   170    1
   219   168   238    1
   220   169   239    1
   221   169   240    1
   222   169   241    1
   223   170   171    1
   224   171   172    1
   225   171   173    1
   226   171   242    1
   227   172   243    1
   228   172   244    1
   229   172   245    1
   230   173   174    2
   231   173   175    1
   232   175   176    1
   233   175   186    1
   234   176   177    1
   235   176   246    1
   236   176   247    1
   237   177   178    1
   238   177   248    1
   239   177   249    1
   240   178   179    1
   241   178   250    1
   242   178   251    1
   243   179   180    1
   244   179   252    1
   245   179   253    1
   246   180   181    1
   247   180   254    1
   248   180   255    1
   249   181   182    1
   250   181   256    1
   251   181   257    1
   252   182   183    1
   253   182   258    1
   254   182   259    1
   255   183   184    1
   256   183   260    1
   257   183   261    1
   258   184   185    1
   259   184   262    1
   260   184   263    1
   261   185   264    1
   262   185   265    1
   263   185   266    1
   264   186   187    1
   265   186   267    1
   266   186   268    1
   267   187   188    1
   268   187   269    1
   269   187   270    1
   270   188   189    1
   271   188   271    1
   272   188   272    1
   273   189   190    1
   274   189   273    1
   275   189   274    1
   276   190   191    1
   277   190   275    1
   278   190   276    1
   279   191   192    1
   280   191   277    1
   281   191   278    1
   282   192   193    1
   283   192   279    1
   284   192   280    1
   285   193   194    1
   286   193   281    1
   287   193   282    1
   288   194   195    1
   289   194   283    1
   290   194   284    1
   291   195   285    1
   292   195   286    1
   293   195   287    1
   294   288   289    1
   295   288   339    1
   296   288   340    1
   297   288   341    1
   298   289   290    1
   299   289   342    1
   300   289   343    1
   301   290   291    1
   302   290   344    1
   303   290   345    1
   304   291   292    1
   305   291   346    1
   306   291   347    1
   307   292   293    1
   308   292   348    1
   309   292   349    1
   310   293   294    1
   311   293   350    1
   312   293   351    1
   313   294   295    1
   314   294   352    1
   315   294   353    1
   316   295   296    1
   317   295   354    1
   318   295   355    1
   319   296   297    1
   320   296   356    1
   321   296   357    1
   322   297   298    1
   323   297   358    1
   324   297   359    1
   325   298   299    1
   326   298   309    1
   327   299   300    1
   328   299   360    1
   329   299   361    1
   330   300   301    1
   331   300   362    1
   332   300   363    1
   333   301   302    1
   334   301   364    1
   335   301   365    1
   336   302   303    1
   337   302   366    1
   338   302   367    1
   339   303   304    1
   340   303   368    1
   341   303   369    1
   342   304   305    1
   343   304   370    1
   344   304   371    1
   345   305   306    1
   346   305   372    1
   347   305   373    1
   348   306   307    1
   349   306   374    1
   350   306   375    1
   351   307   308    1
   352   307   376    1
   353   307   377    1
   354   308   378    1
   355   308   379    1
   356   308   380    1
   357   309   310    2
   358   309   311    1
   359   311   312    1
   360   311   313    1
   361   311   381    1
   362   312   382    1
   363   312   383    1
   364   312   384    1
   365   313   314    1
   366   314   315    1
   367   314   316    1
   368   314   385    1
   369   315   386    1
   370   315   387    1
   371   315   388    1
   372   316   317    2
   373   316   318    1
   374   318   319    1
   375   318   329    1
   376   319   320    1
   377   319   389    1
   378   319   390    1
   379   320   321    1
   380   320   391    1
   381   320   392    1
   382   321   322    1
   383   321   393    1
   384   321   394    1
   385   322   323    1
   386   322   395    1
   387   322   396    1
   388   323   324    1
   389   323   397    1
   390   323   398    1
   391   324   325    1
   392   324   399    1
   393   324   400    1
   394   325   326    1
   395   325   401    1
   396   325   402    1
   397   326   327    1
   398   326   403    1
   399   326   404    1
   400   327   328    1
   401   327   405    1
   402   327   406    1
   403   328   407    1
   404   328   408    1
   405   328   409    1
   406   329   330    1
   407   329   410    1
   408   329   411    1
   409   330   331    1
   410   330   412    1
   411   330   413    1
   412   331   332    1
   413   331   414    1
   414   331   415    1
   415   332   333    1
   416   332   416    1
   417   332   417    1
   418   333   334    1
   419   333   418    1
   420   333   419    1
   421   334   335    1
   422   334   420    1
   423   334   421    1
   424   335   336    1
   425   335   422    1
   426   335   423    1
   427   336   337    1
   428   336   424    1
   429   336   425    1
   430   337   338    1
   431   337   426    1
   432   337   427    1
   433   338   428    1
   434   338   429    1
   435   338   430    1
@<TRIPOS>SUBSTRUCTURE
     1 RES1      430 GROUP             0 ****  ****    0  
