@<TRIPOS>MOLECULE
am_c3_9H2O_c0_0_nunpairedes_0_charge_3 Charge: 3 Unpaired_Electrons: 3 XTB_Unpaired_Electrons: 0 XTB_Charge: 3
   358   363     1     0     0
SMALL
NoCharges
****
Generated from Architector

@<TRIPOS>ATOM
     1 Nd1      -0.0723    0.0115    0.0801   Nd        1 RES1   0.0000
     2 C1        2.9724    4.2718   -3.9493   C.3       1 RES1   0.0000
     3 C2        2.7262    2.9148   -4.5995   C.3       1 RES1   0.0000
     4 C3        1.2480    2.5422   -4.7464   C.3       1 RES1   0.0000
     5 C4        0.4485    3.6137   -5.5020   C.3       1 RES1   0.0000
     6 C5       -0.3290    4.5514   -4.5743   C.3       1 RES1   0.0000
     7 C6       -1.7078    4.0009   -4.2201   C.3       1 RES1   0.0000
     8 C7       -2.3901    4.8575   -3.1477   C.3       1 RES1   0.0000
     9 C8       -2.2347    4.2851   -1.7358   C.3       1 RES1   0.0000
    10 N1       -3.1218    3.1554   -1.4574   N.am      1 RES1   0.0000
    11 C9       -4.5484    3.4462   -1.5180   C.3       1 RES1   0.0000
    12 C10      -4.9909    4.3950   -0.3969   C.3       1 RES1   0.0000
    13 C11      -6.4889    4.2741   -0.0543   C.3       1 RES1   0.0000
    14 C12      -7.3363    4.4793   -1.3057   C.3       1 RES1   0.0000
    15 C13      -6.7570    2.9451    0.6700   C.3       1 RES1   0.0000
    16 C14      -8.1233    2.7436    1.3702   C.3       1 RES1   0.0000
    17 C15      -8.5801    4.0037    2.1054   C.3       1 RES1   0.0000
    18 C16      -9.2005    2.2992    0.3768   C.3       1 RES1   0.0000
    19 C17      -7.9465    1.6195    2.4034   C.3       1 RES1   0.0000
    20 C18      -2.6275    1.9855   -1.0789   C.2       1 RES1   0.0000
    21 O1       -1.4093    1.7580   -0.9219   O.2       1 RES1   0.0000
    22 C19      -3.6037    0.8374   -0.8170   C.3       1 RES1   0.0000
    23 O2       -2.8432   -0.3216   -0.5004   O.3       1 RES1   0.0000
    24 C20      -3.3462   -1.0411    0.6092   C.3       1 RES1   0.0000
    25 C21      -2.8655   -0.3404    1.8941   C.2       1 RES1   0.0000
    26 O3       -1.6944    0.0868    1.8416   O.2       1 RES1   0.0000
    27 N2       -3.6707   -0.1897    2.9346   N.am      1 RES1   0.0000
    28 C22      -5.0605   -0.6181    2.8820   C.3       1 RES1   0.0000
    29 C23      -5.2204   -2.1320    3.0456   C.3       1 RES1   0.0000
    30 C24      -6.6077   -2.5999    2.6052   C.3       1 RES1   0.0000
    31 C25      -6.8033   -2.5998    1.0896   C.3       1 RES1   0.0000
    32 C26      -8.1957   -3.0869    0.6922   C.3       1 RES1   0.0000
    33 C27      -9.3000   -2.1118    1.0948   C.3       1 RES1   0.0000
    34 C28     -10.6690   -2.5180    0.5544   C.3       1 RES1   0.0000
    35 C29     -11.1785   -3.8156    1.1667   C.3       1 RES1   0.0000
    36 C30      -3.1999    0.2062    4.2653   C.3       1 RES1   0.0000
    37 C31      -2.2539    1.3992    4.3670   C.3       1 RES1   0.0000
    38 C32      -2.8468    2.7679    3.9836   C.3       1 RES1   0.0000
    39 C33      -3.0449    2.8798    2.4715   C.3       1 RES1   0.0000
    40 C34      -4.1345    3.0543    4.7755   C.3       1 RES1   0.0000
    41 C35      -4.5317    4.5286    5.0130   C.3       1 RES1   0.0000
    42 C36      -5.8107    4.5128    5.8582   C.3       1 RES1   0.0000
    43 C37      -4.8165    5.2736    3.7064   C.3       1 RES1   0.0000
    44 C38      -3.4431    5.2720    5.7888   C.3       1 RES1   0.0000
    45 H1        4.0350    4.4082   -3.7591   H         1 RES1   0.0000
    46 H2        2.4301    4.3659   -3.0084   H         1 RES1   0.0000
    47 H3        2.6481    5.0800   -4.5975   H         1 RES1   0.0000
    48 H4        3.2231    2.1354   -4.0172   H         1 RES1   0.0000
    49 H5        3.1784    2.9230   -5.5926   H         1 RES1   0.0000
    50 H6        0.8059    2.3738   -3.7575   H         1 RES1   0.0000
    51 H7        1.1931    1.5912   -5.2841   H         1 RES1   0.0000
    52 H8       -0.2570    3.1418   -6.1891   H         1 RES1   0.0000
    53 H9        1.1418    4.1909   -6.1148   H         1 RES1   0.0000
    54 H10      -0.4519    5.5225   -5.0564   H         1 RES1   0.0000
    55 H11       0.2370    4.7094   -3.6551   H         1 RES1   0.0000
    56 H12      -1.6126    2.9742   -3.8609   H         1 RES1   0.0000
    57 H13      -2.3169    3.9782   -5.1247   H         1 RES1   0.0000
    58 H14      -3.4435    4.9976   -3.3847   H         1 RES1   0.0000
    59 H15      -1.9432    5.8537   -3.1427   H         1 RES1   0.0000
    60 H16      -2.4438    5.0673   -1.0012   H         1 RES1   0.0000
    61 H17      -1.2064    3.9407   -1.6039   H         1 RES1   0.0000
    62 H18      -5.1182    2.5249   -1.4640   H         1 RES1   0.0000
    63 H19      -4.7616    3.8937   -2.4867   H         1 RES1   0.0000
    64 H20      -4.7898    5.4256   -0.6974   H         1 RES1   0.0000
    65 H21      -4.4062    4.1885    0.5017   H         1 RES1   0.0000
    66 H22      -6.6998    5.0906    0.6394   H         1 RES1   0.0000
    67 H23      -7.3570    3.5842   -1.9185   H         1 RES1   0.0000
    68 H24      -6.9394    5.2997   -1.8976   H         1 RES1   0.0000
    69 H25      -8.3555    4.7354   -1.0389   H         1 RES1   0.0000
    70 H26      -5.9825    2.8391    1.4384   H         1 RES1   0.0000
    71 H27      -6.6307    2.1212   -0.0371   H         1 RES1   0.0000
    72 H28      -8.8008    4.8070    1.4097   H         1 RES1   0.0000
    73 H29      -7.8217    4.3442    2.8076   H         1 RES1   0.0000
    74 H30      -9.4882    3.7916    2.6639   H         1 RES1   0.0000
    75 H31      -9.4656    3.0962   -0.3085   H         1 RES1   0.0000
    76 H32     -10.1019    2.0110    0.9122   H         1 RES1   0.0000
    77 H33      -8.8639    1.4425   -0.2062   H         1 RES1   0.0000
    78 H34      -7.2214    1.9006    3.1662   H         1 RES1   0.0000
    79 H35      -7.6150    0.7006    1.9232   H         1 RES1   0.0000
    80 H36      -8.8899    1.4126    2.9007   H         1 RES1   0.0000
    81 H37      -4.1874    0.6284   -1.7241   H         1 RES1   0.0000
    82 H38      -4.2827    1.1004    0.0029   H         1 RES1   0.0000
    83 H39      -2.8482   -2.0213    0.5695   H         1 RES1   0.0000
    84 H40      -4.4248   -1.1926    0.5169   H         1 RES1   0.0000
    85 H41      -5.5117   -0.2794    1.9451   H         1 RES1   0.0000
    86 H42      -5.5958   -0.1045    3.6814   H         1 RES1   0.0000
    87 H43      -5.0749   -2.3795    4.0988   H         1 RES1   0.0000
    88 H44      -4.4498   -2.6415    2.4630   H         1 RES1   0.0000
    89 H45      -7.3555   -1.9601    3.0734   H         1 RES1   0.0000
    90 H46      -6.7616   -3.6137    2.9755   H         1 RES1   0.0000
    91 H47      -6.0489   -3.2485    0.6341   H         1 RES1   0.0000
    92 H48      -6.6689   -1.5920    0.6859   H         1 RES1   0.0000
    93 H49      -8.3741   -4.0562    1.1556   H         1 RES1   0.0000
    94 H50      -8.2231   -3.2240   -0.3906   H         1 RES1   0.0000
    95 H51      -9.0510   -1.1155    0.7194   H         1 RES1   0.0000
    96 H52      -9.3632   -2.0509    2.1820   H         1 RES1   0.0000
    97 H53     -10.6168   -2.6206   -0.5311   H         1 RES1   0.0000
    98 H54     -11.3784   -1.7184    0.7751   H         1 RES1   0.0000
    99 H55     -10.5542   -4.6580    0.8777   H         1 RES1   0.0000
   100 H56     -12.1916   -4.0173    0.8301   H         1 RES1   0.0000
   101 H57     -11.1870   -3.7455    2.2528   H         1 RES1   0.0000
   102 H58      -2.7039   -0.6610    4.7116   H         1 RES1   0.0000
   103 H59      -4.0869    0.4276    4.8575   H         1 RES1   0.0000
   104 H60      -1.3556    1.2158    3.7761   H         1 RES1   0.0000
   105 H61      -1.9620    1.4442    5.4212   H         1 RES1   0.0000
   106 H62      -2.0930    3.5019    4.2807   H         1 RES1   0.0000
   107 H63      -3.9576    2.3721    2.1703   H         1 RES1   0.0000
   108 H64      -2.2049    2.4398    1.9291   H         1 RES1   0.0000
   109 H65      -3.1289    3.9229    2.1873   H         1 RES1   0.0000
   110 H66      -4.0281    2.6012    5.7641   H         1 RES1   0.0000
   111 H67      -4.9718    2.5569    4.2815   H         1 RES1   0.0000
   112 H68      -6.6143    3.9908    5.3439   H         1 RES1   0.0000
   113 H69      -6.1442    5.5257    6.0613   H         1 RES1   0.0000
   114 H70      -5.6387    4.0205    6.8118   H         1 RES1   0.0000
   115 H71      -5.4430    4.6780    3.0456   H         1 RES1   0.0000
   116 H72      -3.8937    5.5319    3.1914   H         1 RES1   0.0000
   117 H73      -5.3381    6.2040    3.9164   H         1 RES1   0.0000
   118 H74      -3.1966    4.7499    6.7096   H         1 RES1   0.0000
   119 H75      -3.7889    6.2691    6.0464   H         1 RES1   0.0000
   120 H76      -2.5404    5.3829    5.1932   H         1 RES1   0.0000
   121 C39      -5.8955    1.0735   -3.9336   C.3       1 RES1   0.0000
   122 C40      -4.6832    1.5096   -4.7506   C.3       1 RES1   0.0000
   123 C41      -3.6432    0.4112   -4.9889   C.3       1 RES1   0.0000
   124 C42      -4.2525   -0.8496   -5.6170   C.3       1 RES1   0.0000
   125 C43      -4.4287   -1.9994   -4.6221   C.3       1 RES1   0.0000
   126 C44      -3.1473   -2.8172   -4.4815   C.3       1 RES1   0.0000
   127 C45      -3.2941   -3.9445   -3.4527   C.3       1 RES1   0.0000
   128 C46      -2.8492   -3.5476   -2.0378   C.3       1 RES1   0.0000
   129 N3       -1.4934   -3.9625   -1.6589   N.am      1 RES1   0.0000
   130 C47      -1.2475   -5.3979   -1.6435   C.3       1 RES1   0.0000
   131 C48      -1.9183   -6.1020   -0.4535   C.3       1 RES1   0.0000
   132 C49      -1.1983   -7.3946   -0.0141   C.3       1 RES1   0.0000
   133 C50      -0.9848   -8.3142   -1.2121   C.3       1 RES1   0.0000
   134 C51       0.0930   -7.0280    0.7339   C.3       1 RES1   0.0000
   135 C52       0.8974   -8.1411    1.4452   C.3       1 RES1   0.0000
   136 C53      -0.0156   -9.1335    2.1629   C.3       1 RES1   0.0000
   137 C54       1.8151   -8.8786    0.4671   C.3       1 RES1   0.0000
   138 C55       1.7906   -7.4570    2.4915   C.3       1 RES1   0.0000
   139 C56      -0.6380   -3.0597   -1.1979   C.2       1 RES1   0.0000
   140 O4       -0.8683   -1.8323   -1.1764   O.2       1 RES1   0.0000
   141 C57       0.6925   -3.5276   -0.6066   C.3       1 RES1   0.0000
   142 O5        1.4327   -2.3562   -0.2788   O.3       1 RES1   0.0000
   143 C58       2.2616   -2.5326    0.8575   C.3       1 RES1   0.0000
   144 C59       1.3973   -2.3092    2.1127   C.2       1 RES1   0.0000
   145 O6        0.4774   -1.4823    1.9657   O.2       1 RES1   0.0000
   146 N4        1.6239   -3.0065    3.2186   N.am      1 RES1   0.0000
   147 C60       2.7362   -3.9469    3.2965   C.3       1 RES1   0.0000
   148 C61       4.1040   -3.2651    3.4491   C.3       1 RES1   0.0000
   149 C62       5.2507   -4.1464    2.9444   C.3       1 RES1   0.0000
   150 C63       5.3360   -4.2389    1.4221   C.3       1 RES1   0.0000
   151 C64       6.5061   -5.1001    0.9491   C.3       1 RES1   0.0000
   152 C65       6.2953   -6.5866    1.2313   C.3       1 RES1   0.0000
   153 C66       7.3667   -7.4653    0.5895   C.3       1 RES1   0.0000
   154 C67       8.7515   -7.2350    1.1776   C.3       1 RES1   0.0000
   155 C68       0.9500   -2.7710    4.5029   C.3       1 RES1   0.0000
   156 C69      -0.5380   -2.4297    4.5152   C.3       1 RES1   0.0000
   157 C70      -1.5067   -3.5651    4.1285   C.3       1 RES1   0.0000
   158 C71      -1.3238   -3.9409    2.6606   C.3       1 RES1   0.0000
   159 C72      -1.3771   -4.7818    5.0639   C.3       1 RES1   0.0000
   160 C73      -2.6018   -5.7174    5.2112   C.3       1 RES1   0.0000
   161 C74      -2.2021   -6.8335    6.1833   C.3       1 RES1   0.0000
   162 C75      -3.0189   -6.3617    3.8855   C.3       1 RES1   0.0000
   163 C76      -3.7958   -4.9638    5.7996   C.3       1 RES1   0.0000
   164 H77      -6.5238    1.9335   -3.7127   H         1 RES1   0.0000
   165 H78      -5.6035    0.6080   -2.9922   H         1 RES1   0.0000
   166 H79      -6.4976    0.3535   -4.4796   H         1 RES1   0.0000
   167 H80      -4.1895    2.3499   -4.2556   H         1 RES1   0.0000
   168 H81      -5.0364    1.8633   -5.7204   H         1 RES1   0.0000
   169 H82      -3.1479    0.1543   -4.0471   H         1 RES1   0.0000
   170 H83      -2.8740    0.8204   -5.6486   H         1 RES1   0.0000
   171 H84      -3.6244   -1.2005   -6.4370   H         1 RES1   0.0000
   172 H85      -5.2170   -0.5904   -6.0514   H         1 RES1   0.0000
   173 H86      -5.2292   -2.6580   -4.9672   H         1 RES1   0.0000
   174 H87      -4.7252   -1.6071   -3.6462   H         1 RES1   0.0000
   175 H88      -2.3189   -2.1666   -4.1977   H         1 RES1   0.0000
   176 H89      -2.9082   -3.2467   -5.4560   H         1 RES1   0.0000
   177 H90      -2.7435   -4.8200   -3.7930   H         1 RES1   0.0000
   178 H91      -4.3450   -4.2394   -3.3998   H         1 RES1   0.0000
   179 H92      -3.5270   -3.9983   -1.3056   H         1 RES1   0.0000
   180 H93      -2.8893   -2.4616   -1.9457   H         1 RES1   0.0000
   181 H94      -0.1786   -5.5904   -1.6425   H         1 RES1   0.0000
   182 H95      -1.6408   -5.8076   -2.5720   H         1 RES1   0.0000
   183 H96      -2.9476   -6.3524   -0.7189   H         1 RES1   0.0000
   184 H97      -1.9544   -5.4147    0.3940   H         1 RES1   0.0000
   185 H98      -1.8706   -7.8949    0.6878   H         1 RES1   0.0000
   186 H99      -0.1507   -7.9797   -1.8208   H         1 RES1   0.0000
   187 H100     -1.8807   -8.3423   -1.8268   H         1 RES1   0.0000
   188 H101     -0.7843   -9.3295   -0.8867   H         1 RES1   0.0000
   189 H102     -0.1938   -6.3024    1.5011   H         1 RES1   0.0000
   190 H103      0.7728   -6.5260    0.0412   H         1 RES1   0.0000
   191 H104     -0.6246   -9.6897    1.4579   H         1 RES1   0.0000
   192 H105     -0.6708   -8.6239    2.8666   H         1 RES1   0.0000
   193 H106      0.5864   -9.8481    2.7172   H         1 RES1   0.0000
   194 H107      1.2527   -9.4804   -0.2371   H         1 RES1   0.0000
   195 H108      2.4786   -9.5421    1.0149   H         1 RES1   0.0000
   196 H109      2.4289   -8.1747   -0.0942   H         1 RES1   0.0000
   197 H110      1.1952   -6.9193    3.2278   H         1 RES1   0.0000
   198 H111      2.4755   -6.7592    2.0131   H         1 RES1   0.0000
   199 H112      2.3851   -8.1962    3.0194   H         1 RES1   0.0000
   200 H113      1.2726   -4.1232   -1.3255   H         1 RES1   0.0000
   201 H114      0.4906   -4.1277    0.2900   H         1 RES1   0.0000
   202 H115      3.0112   -1.7316    0.8135   H         1 RES1   0.0000
   203 H116      2.7732   -3.4966    0.8040   H         1 RES1   0.0000
   204 H117      2.7305   -4.5854    2.4132   H         1 RES1   0.0000
   205 H118      2.5542   -4.6011    4.1507   H         1 RES1   0.0000
   206 H119      4.2663   -3.0417    4.5055   H         1 RES1   0.0000
   207 H120      4.1001   -2.3175    2.9033   H         1 RES1   0.0000
   208 H121      5.1422   -5.1438    3.3682   H         1 RES1   0.0000
   209 H122      6.1854   -3.7311    3.3204   H         1 RES1   0.0000
   210 H123      5.4377   -3.2308    1.0086   H         1 RES1   0.0000
   211 H124      4.4214   -4.6784    1.0160   H         1 RES1   0.0000
   212 H125      7.4204   -4.7600    1.4329   H         1 RES1   0.0000
   213 H126      6.6263   -4.9603   -0.1273   H         1 RES1   0.0000
   214 H127      5.3159   -6.8881    0.8473   H         1 RES1   0.0000
   215 H128      6.2969   -6.7624    2.3077   H         1 RES1   0.0000
   216 H129      7.3924   -7.2801   -0.4858   H         1 RES1   0.0000
   217 H130      7.0876   -8.5098    0.7359   H         1 RES1   0.0000
   218 H131      9.1168   -6.2374    0.9462   H         1 RES1   0.0000
   219 H132      9.4549   -7.9536    0.7673   H         1 RES1   0.0000
   220 H133      8.7318   -7.3556    2.2587   H         1 RES1   0.0000
   221 H134      1.4917   -1.9695    5.0166   H         1 RES1   0.0000
   222 H135      1.0784   -3.6831    5.0869   H         1 RES1   0.0000
   223 H136     -0.7197   -1.5646    3.8760   H         1 RES1   0.0000
   224 H137     -0.7553   -2.1395    5.5472   H         1 RES1   0.0000
   225 H138     -2.5101   -3.1459    4.2481   H         1 RES1   0.0000
   226 H139     -0.4235   -4.5407    2.5472   H         1 RES1   0.0000
   227 H140     -1.2376   -3.0456    2.0405   H         1 RES1   0.0000
   228 H141     -2.1689   -4.5260    2.3169   H         1 RES1   0.0000
   229 H142     -1.1424   -4.4172    6.0669   H         1 RES1   0.0000
   230 H143     -0.5306   -5.3888    4.7379   H         1 RES1   0.0000
   231 H144     -1.3676   -7.4118    5.7943   H         1 RES1   0.0000
   232 H145     -3.0352   -7.5120    6.3406   H         1 RES1   0.0000
   233 H146     -1.9173   -6.4261    7.1495   H         1 RES1   0.0000
   234 H147     -2.1541   -6.7387    3.3433   H         1 RES1   0.0000
   235 H148     -3.5632   -5.6588    3.2578   H         1 RES1   0.0000
   236 H149     -3.6841   -7.1999    4.0767   H         1 RES1   0.0000
   237 H150     -3.5352   -4.5076    6.7509   H         1 RES1   0.0000
   238 H151     -4.6205   -5.6509    5.9677   H         1 RES1   0.0000
   239 H152     -4.1463   -4.1896    5.1212   H         1 RES1   0.0000
   240 C77       1.3221   -4.8946   -4.1769   C.3       1 RES1   0.0000
   241 C78       0.3091   -3.9886   -4.8665   C.3       1 RES1   0.0000
   242 C79       0.7408   -2.5234   -4.9472   C.3       1 RES1   0.0000
   243 C80       2.0796   -2.3585   -5.6759   C.3       1 RES1   0.0000
   244 C81       3.2764   -2.1528   -4.7428   C.3       1 RES1   0.0000
   245 C82       3.4878   -0.6793   -4.4026   C.3       1 RES1   0.0000
   246 C83       4.7634   -0.4553   -3.5799   C.3       1 RES1   0.0000
   247 C84       4.5236   -0.3768   -2.0688   C.3       1 RES1   0.0000
   248 N5        4.0920    0.9471   -1.6253   N.am      1 RES1   0.0000
   249 C85       5.1219    1.9774   -1.6307   C.3       1 RES1   0.0000
   250 C86       5.9107    2.0118   -0.3093   C.3       1 RES1   0.0000
   251 C87       6.4435    3.4066    0.0853   C.3       1 RES1   0.0000
   252 C88       7.1529    4.0652   -1.0942   C.3       1 RES1   0.0000
   253 C89       5.3057    4.2579    0.6720   C.3       1 RES1   0.0000
   254 C90       5.6618    5.5849    1.3866   C.3       1 RES1   0.0000
   255 C91       6.9167    5.4470    2.2466   C.3       1 RES1   0.0000
   256 C92       5.8234    6.7330    0.3881   C.3       1 RES1   0.0000
   257 C93       4.4862    5.9402    2.3074   C.3       1 RES1   0.0000
   258 C94       2.8798    1.1204   -1.1188   C.2       1 RES1   0.0000
   259 O7        2.0388    0.2052   -0.9946   O.2       1 RES1   0.0000
   260 C95       2.5044    2.5125   -0.6299   C.3       1 RES1   0.0000
   261 O8        1.1124    2.5162   -0.3378   O.3       1 RES1   0.0000
   262 C96       0.7885    3.3618    0.7529   C.3       1 RES1   0.0000
   263 C97       0.9416    2.5368    2.0448   C.2       1 RES1   0.0000
   264 O9        0.7725    1.3123    1.9073   O.2       1 RES1   0.0000
   265 N6        1.2900    3.1283    3.1783   N.am      1 RES1   0.0000
   266 C98       1.3486    4.5832    3.2909   C.3       1 RES1   0.0000
   267 C99      -0.0367    5.2388    3.3675   C.3       1 RES1   0.0000
   268 C100     -0.0006    6.7061    2.9333   C.3       1 RES1   0.0000
   269 C101      0.0596    6.8886    1.4190   C.3       1 RES1   0.0000
   270 C102      0.1262    8.3595    1.0118   C.3       1 RES1   0.0000
   271 C103      1.4730    9.0012    1.3417   C.3       1 RES1   0.0000
   272 C104      1.6190   10.4000    0.7470   C.3       1 RES1   0.0000
   273 C105      0.6628   11.4093    1.3661   C.3       1 RES1   0.0000
   274 C106      1.3962    2.4391    4.4696   C.3       1 RES1   0.0000
   275 C107      1.8784    0.9888    4.5233   C.3       1 RES1   0.0000
   276 C108      3.3691    0.7320    4.2121   C.3       1 RES1   0.0000
   277 C109      3.6542    0.8851    2.7181   C.3       1 RES1   0.0000
   278 C110      4.2841    1.6110    5.0833   C.3       1 RES1   0.0000
   279 C111      5.7496    1.1651    5.3010   C.3       1 RES1   0.0000
   280 C112      6.3826    2.1704    6.2713   C.3       1 RES1   0.0000
   281 C113      6.5720    1.1722    4.0075   C.3       1 RES1   0.0000
   282 C114      5.8117   -0.2267    5.9319   C.3       1 RES1   0.0000
   283 H153      0.9016   -5.8875   -4.0308   H         1 RES1   0.0000
   284 H154      1.6070   -4.4860   -3.2085   H         1 RES1   0.0000
   285 H155      2.2237   -4.9995   -4.7727   H         1 RES1   0.0000
   286 H156     -0.6426   -4.0405   -4.3361   H         1 RES1   0.0000
   287 H157      0.1452   -4.3583   -5.8802   H         1 RES1   0.0000
   288 H158      0.8054   -2.0978   -3.9403   H         1 RES1   0.0000
   289 H159     -0.0394   -1.9721   -5.4781   H         1 RES1   0.0000
   290 H160      2.0294   -1.5090   -6.3590   H         1 RES1   0.0000
   291 H161      2.2438   -3.2428   -6.2907   H         1 RES1   0.0000
   292 H162      4.1773   -2.5292   -5.2320   H         1 RES1   0.0000
   293 H163      3.1388   -2.7217   -3.8215   H         1 RES1   0.0000
   294 H164      2.6216   -0.2980   -3.8575   H         1 RES1   0.0000
   295 H165      3.5626   -0.1206   -5.3373   H         1 RES1   0.0000
   296 H166      5.2646    0.4522   -3.9177   H         1 RES1   0.0000
   297 H167      5.4525   -1.2843   -3.7556   H         1 RES1   0.0000
   298 H168      5.4500   -0.6060   -1.5338   H         1 RES1   0.0000
   299 H169      3.7536   -1.0957   -1.7840   H         1 RES1   0.0000
   300 H170      4.6793    2.9492   -1.8407   H         1 RES1   0.0000
   301 H171      5.8009    1.7523   -2.4518   H         1 RES1   0.0000
   302 H172      6.7628    1.3320   -0.3929   H         1 RES1   0.0000
   303 H173      5.2791    1.6362    0.4990   H         1 RES1   0.0000
   304 H174      7.1800    3.2332    0.8740   H         1 RES1   0.0000
   305 H175      6.4427    4.4830   -1.8014   H         1 RES1   0.0000
   306 H176      7.7749    3.3405   -1.6125   H         1 RES1   0.0000
   307 H177      7.8008    4.8655   -0.7532   H         1 RES1   0.0000
   308 H178      4.7907    3.6277    1.4081   H         1 RES1   0.0000
   309 H179      4.5955    4.4913   -0.1245   H         1 RES1   0.0000
   310 H180      7.7977    5.2853    1.6348   H         1 RES1   0.0000
   311 H181      6.8185    4.6219    2.9494   H         1 RES1   0.0000
   312 H182      7.0707    6.3596    2.8149   H         1 RES1   0.0000
   313 H183      6.7044    6.6083   -0.2302   H         1 RES1   0.0000
   314 H184      5.9239    7.6731    0.9234   H         1 RES1   0.0000
   315 H185      4.9525    6.8065   -0.2623   H         1 RES1   0.0000
   316 H186      4.3258    5.1657    3.0553   H         1 RES1   0.0000
   317 H187      3.5756    6.0751    1.7263   H         1 RES1   0.0000
   318 H188      4.6842    6.8712    2.8290   H         1 RES1   0.0000
   319 H189      2.7035    3.2749   -1.3969   H         1 RES1   0.0000
   320 H190      3.0949    2.7410    0.2669   H         1 RES1   0.0000
   321 H191     -0.2661    3.6386    0.6263   H         1 RES1   0.0000
   322 H192      1.4017    4.2671    0.7157   H         1 RES1   0.0000
   323 H193      1.9033    4.9983    2.4517   H         1 RES1   0.0000
   324 H194      1.9152    4.8223    4.1923   H         1 RES1   0.0000
   325 H195     -0.3947    5.1773    4.3967   H         1 RES1   0.0000
   326 H196     -0.7324    4.6850    2.7320   H         1 RES1   0.0000
   327 H197      0.8581    7.1893    3.3969   H         1 RES1   0.0000
   328 H198     -0.8962    7.2009    3.3097   H         1 RES1   0.0000
   329 H199     -0.8241    6.4246    0.9707   H         1 RES1   0.0000
   330 H200      0.9384    6.3846    1.0105   H         1 RES1   0.0000
   331 H201     -0.6728    8.9057    1.5117   H         1 RES1   0.0000
   332 H202     -0.0435    8.4320   -0.0643   H         1 RES1   0.0000
   333 H203      2.2746    8.3666    0.9520   H         1 RES1   0.0000
   334 H204      1.5986    9.0656    2.4233   H         1 RES1   0.0000
   335 H205      1.4528   10.3538   -0.3307   H         1 RES1   0.0000
   336 H206      2.6442   10.7372    0.9073   H         1 RES1   0.0000
   337 H207     -0.3710   11.1676    1.1317   H         1 RES1   0.0000
   338 H208      0.8711   12.4036    0.9817   H         1 RES1   0.0000
   339 H209      0.7783   11.4309    2.4476   H         1 RES1   0.0000
   340 H210      0.4125    2.4912    4.9470   H         1 RES1   0.0000
   341 H211      2.0822    3.0353    5.0721   H         1 RES1   0.0000
   342 H212      1.2623    0.3671    3.8744   H         1 RES1   0.0000
   343 H213      1.6953    0.6755    5.5561   H         1 RES1   0.0000
   344 H214      3.5392   -0.3154    4.4803   H         1 RES1   0.0000
   345 H215      3.7093    1.9408    2.4612   H         1 RES1   0.0000
   346 H216      2.8645    0.4165    2.1239   H         1 RES1   0.0000
   347 H217      4.6026    0.4241    2.4611   H         1 RES1   0.0000
   348 H218      3.8306    1.6840    6.0754   H         1 RES1   0.0000
   349 H219      4.3046    2.6181    4.6628   H         1 RES1   0.0000
   350 H220      6.3706    3.1755    5.8570   H         1 RES1   0.0000
   351 H221      7.4158    1.9015    6.4683   H         1 RES1   0.0000
   352 H222      5.8554    2.1846    7.2213   H         1 RES1   0.0000
   353 H223      6.3556    2.0536    3.4063   H         1 RES1   0.0000
   354 H224      6.3894    0.2791    3.4137   H         1 RES1   0.0000
   355 H225      7.6321    1.1831    4.2476   H         1 RES1   0.0000
   356 H226      5.2378   -0.2594    6.8548   H         1 RES1   0.0000
   357 H227      6.8428   -0.4782    6.1637   H         1 RES1   0.0000
   358 H228      5.4316   -0.9858    5.2519   H         1 RES1   0.0000
@<TRIPOS>BOND
     1     1    21    1
     2     1    23    1
     3     1    26    1
     4     1   140    1
     5     1   142    1
     6     1   145    1
     7     1   259    1
     8     1   261    1
     9     1   264    1
    10     2     3    1
    11     2    45    1
    12     2    46    1
    13     2    47    1
    14     3     4    1
    15     3    48    1
    16     3    49    1
    17     4     5    1
    18     4    50    1
    19     4    51    1
    20     5     6    1
    21     5    52    1
    22     5    53    1
    23     6     7    1
    24     6    54    1
    25     6    55    1
    26     7     8    1
    27     7    56    1
    28     7    57    1
    29     8     9    1
    30     8    58    1
    31     8    59    1
    32     9    10    1
    33     9    60    1
    34     9    61    1
    35    10    11    1
    36    10    20    1
    37    11    12    1
    38    11    62    1
    39    11    63    1
    40    12    13    1
    41    12    64    1
    42    12    65    1
    43    13    14    1
    44    13    15    1
    45    13    66    1
    46    14    67    1
    47    14    68    1
    48    14    69    1
    49    15    16    1
    50    15    70    1
    51    15    71    1
    52    16    17    1
    53    16    18    1
    54    16    19    1
    55    17    72    1
    56    17    73    1
    57    17    74    1
    58    18    75    1
    59    18    76    1
    60    18    77    1
    61    19    78    1
    62    19    79    1
    63    19    80    1
    64    20    21    2
    65    20    22    1
    66    22    23    1
    67    22    81    1
    68    22    82    1
    69    23    24    1
    70    24    25    1
    71    24    83    1
    72    24    84    1
    73    25    26    2
    74    25    27    1
    75    27    28    1
    76    27    36    1
    77    28    29    1
    78    28    85    1
    79    28    86    1
    80    29    30    1
    81    29    87    1
    82    29    88    1
    83    30    31    1
    84    30    89    1
    85    30    90    1
    86    31    32    1
    87    31    91    1
    88    31    92    1
    89    32    33    1
    90    32    93    1
    91    32    94    1
    92    33    34    1
    93    33    95    1
    94    33    96    1
    95    34    35    1
    96    34    97    1
    97    34    98    1
    98    35    99    1
    99    35   100    1
   100    35   101    1
   101    36    37    1
   102    36   102    1
   103    36   103    1
   104    37    38    1
   105    37   104    1
   106    37   105    1
   107    38    39    1
   108    38    40    1
   109    38   106    1
   110    39   107    1
   111    39   108    1
   112    39   109    1
   113    40    41    1
   114    40   110    1
   115    40   111    1
   116    41    42    1
   117    41    43    1
   118    41    44    1
   119    42   112    1
   120    42   113    1
   121    42   114    1
   122    43   115    1
   123    43   116    1
   124    43   117    1
   125    44   118    1
   126    44   119    1
   127    44   120    1
   128   121   122    1
   129   121   164    1
   130   121   165    1
   131   121   166    1
   132   122   123    1
   133   122   167    1
   134   122   168    1
   135   123   124    1
   136   123   169    1
   137   123   170    1
   138   124   125    1
   139   124   171    1
   140   124   172    1
   141   125   126    1
   142   125   173    1
   143   125   174    1
   144   126   127    1
   145   126   175    1
   146   126   176    1
   147   127   128    1
   148   127   177    1
   149   127   178    1
   150   128   129    1
   151   128   179    1
   152   128   180    1
   153   129   130    1
   154   129   139    1
   155   130   131    1
   156   130   181    1
   157   130   182    1
   158   131   132    1
   159   131   183    1
   160   131   184    1
   161   132   133    1
   162   132   134    1
   163   132   185    1
   164   133   186    1
   165   133   187    1
   166   133   188    1
   167   134   135    1
   168   134   189    1
   169   134   190    1
   170   135   136    1
   171   135   137    1
   172   135   138    1
   173   136   191    1
   174   136   192    1
   175   136   193    1
   176   137   194    1
   177   137   195    1
   178   137   196    1
   179   138   197    1
   180   138   198    1
   181   138   199    1
   182   139   140    2
   183   139   141    1
   184   141   142    1
   185   141   200    1
   186   141   201    1
   187   142   143    1
   188   143   144    1
   189   143   202    1
   190   143   203    1
   191   144   145    2
   192   144   146    1
   193   146   147    1
   194   146   155    1
   195   147   148    1
   196   147   204    1
   197   147   205    1
   198   148   149    1
   199   148   206    1
   200   148   207    1
   201   149   150    1
   202   149   208    1
   203   149   209    1
   204   150   151    1
   205   150   210    1
   206   150   211    1
   207   151   152    1
   208   151   212    1
   209   151   213    1
   210   152   153    1
   211   152   214    1
   212   152   215    1
   213   153   154    1
   214   153   216    1
   215   153   217    1
   216   154   218    1
   217   154   219    1
   218   154   220    1
   219   155   156    1
   220   155   221    1
   221   155   222    1
   222   156   157    1
   223   156   223    1
   224   156   224    1
   225   157   158    1
   226   157   159    1
   227   157   225    1
   228   158   226    1
   229   158   227    1
   230   158   228    1
   231   159   160    1
   232   159   229    1
   233   159   230    1
   234   160   161    1
   235   160   162    1
   236   160   163    1
   237   161   231    1
   238   161   232    1
   239   161   233    1
   240   162   234    1
   241   162   235    1
   242   162   236    1
   243   163   237    1
   244   163   238    1
   245   163   239    1
   246   240   241    1
   247   240   283    1
   248   240   284    1
   249   240   285    1
   250   241   242    1
   251   241   286    1
   252   241   287    1
   253   242   243    1
   254   242   288    1
   255   242   289    1
   256   243   244    1
   257   243   290    1
   258   243   291    1
   259   244   245    1
   260   244   292    1
   261   244   293    1
   262   245   246    1
   263   245   294    1
   264   245   295    1
   265   246   247    1
   266   246   296    1
   267   246   297    1
   268   247   248    1
   269   247   298    1
   270   247   299    1
   271   248   249    1
   272   248   258    1
   273   249   250    1
   274   249   300    1
   275   249   301    1
   276   250   251    1
   277   250   302    1
   278   250   303    1
   279   251   252    1
   280   251   253    1
   281   251   304    1
   282   252   305    1
   283   252   306    1
   284   252   307    1
   285   253   254    1
   286   253   308    1
   287   253   309    1
   288   254   255    1
   289   254   256    1
   290   254   257    1
   291   255   310    1
   292   255   311    1
   293   255   312    1
   294   256   313    1
   295   256   314    1
   296   256   315    1
   297   257   316    1
   298   257   317    1
   299   257   318    1
   300   258   259    2
   301   258   260    1
   302   260   261    1
   303   260   319    1
   304   260   320    1
   305   261   262    1
   306   262   263    1
   307   262   321    1
   308   262   322    1
   309   263   264    2
   310   263   265    1
   311   265   266    1
   312   265   274    1
   313   266   267    1
   314   266   323    1
   315   266   324    1
   316   267   268    1
   317   267   325    1
   318   267   326    1
   319   268   269    1
   320   268   327    1
   321   268   328    1
   322   269   270    1
   323   269   329    1
   324   269   330    1
   325   270   271    1
   326   270   331    1
   327   270   332    1
   328   271   272    1
   329   271   333    1
   330   271   334    1
   331   272   273    1
   332   272   335    1
   333   272   336    1
   334   273   337    1
   335   273   338    1
   336   273   339    1
   337   274   275    1
   338   274   340    1
   339   274   341    1
   340   275   276    1
   341   275   342    1
   342   275   343    1
   343   276   277    1
   344   276   278    1
   345   276   344    1
   346   277   345    1
   347   277   346    1
   348   277   347    1
   349   278   279    1
   350   278   348    1
   351   278   349    1
   352   279   280    1
   353   279   281    1
   354   279   282    1
   355   280   350    1
   356   280   351    1
   357   280   352    1
   358   281   353    1
   359   281   354    1
   360   281   355    1
   361   282   356    1
   362   282   357    1
   363   282   358    1
@<TRIPOS>SUBSTRUCTURE
     1 RES1      358 GROUP             0 ****  ****    0  
