@<TRIPOS>MOLECULE
am_c3_9H2O_c0_0_nunpairedes_0_charge_3 Charge: 3 Unpaired_Electrons: 3 XTB_Unpaired_Electrons: 0 XTB_Charge: 3
   361   369     1     0     0
SMALL
NoCharges
****
Generated from Architector

@<TRIPOS>ATOM
     1 Nd1      -0.2050   -0.0834   -0.3571   Nd        1 RES1   0.0000
     2 C1       -6.0090    5.2469    5.6028   C.3       1 RES1   0.0000
     3 C2       -5.0920    4.4206    6.5028   C.3       1 RES1   0.0000
     4 C3       -5.2645    2.9171    6.2633   C.3       1 RES1   0.0000
     5 C4       -4.3282    2.0278    7.0972   C.3       1 RES1   0.0000
     6 C5       -3.0416    1.5780    6.3979   C.3       1 RES1   0.0000
     7 C6       -2.0097    2.6975    6.2008   C.3       1 RES1   0.0000
     8 C7       -1.9539    3.2288    4.7702   C.3       1 RES1   0.0000
     9 C8       -1.1437    2.3128    3.8582   C.3       1 RES1   0.0000
    10 P1       -1.6559    2.3296    2.0997   P.3       1 RES1   0.0000
    11 O1       -0.6254    1.6194    1.2920   O.2       1 RES1   0.0000
    12 C9       -1.8626    4.1013    1.6232   C.3       1 RES1   0.0000
    13 C10      -0.6113    4.8928    2.0235   C.3       1 RES1   0.0000
    14 C11      -0.7879    6.4177    2.0989   C.3       1 RES1   0.0000
    15 C12      -0.9259    7.1396    0.7550   C.3       1 RES1   0.0000
    16 C13      -1.3168    8.6138    0.9179   C.3       1 RES1   0.0000
    17 C14      -1.8853    9.2092   -0.3751   C.3       1 RES1   0.0000
    18 C15      -2.8577   10.3712   -0.1046   C.3       1 RES1   0.0000
    19 C16      -4.2485   10.1347   -0.6849   C.3       1 RES1   0.0000
    20 C17      -3.2427    1.3697    2.2913   C.3       1 RES1   0.0000
    21 C18      -4.3031    1.1681    1.2772   C.ar      1 RES1   0.0000
    22 C19      -5.6437    1.3348    1.5723   C.ar      1 RES1   0.0000
    23 C20      -6.6129    0.8270    0.7233   C.ar      1 RES1   0.0000
    24 C21      -6.1842    0.1716   -0.4167   C.ar      1 RES1   0.0000
    25 C22      -4.8325    0.0779   -0.7311   C.ar      1 RES1   0.0000
    26 C23      -4.4266   -0.4655   -2.0628   C.3       1 RES1   0.0000
    27 P2       -2.8637   -1.4037   -2.5274   P.3       1 RES1   0.0000
    28 O2       -1.5757   -0.8689   -2.0139   O.2       1 RES1   0.0000
    29 C24      -2.9809   -1.2309   -4.3510   C.3       1 RES1   0.0000
    30 C25      -2.3431    0.0588   -4.8910   C.3       1 RES1   0.0000
    31 C26      -3.3772    0.9081   -5.6318   C.3       1 RES1   0.0000
    32 C27      -2.8330    2.1808   -6.2797   C.3       1 RES1   0.0000
    33 C28      -3.9147    2.8868   -7.1075   C.3       1 RES1   0.0000
    34 C29      -5.1673    3.3192   -6.3372   C.3       1 RES1   0.0000
    35 C30      -6.3975    3.4513   -7.2400   C.3       1 RES1   0.0000
    36 C31      -6.9862    2.1001   -7.6287   C.3       1 RES1   0.0000
    37 C32      -2.9761   -3.2063   -2.1198   C.3       1 RES1   0.0000
    38 C33      -1.5981   -3.8277   -2.3604   C.3       1 RES1   0.0000
    39 C34      -1.3032   -5.1024   -1.5619   C.3       1 RES1   0.0000
    40 C35      -1.7771   -6.4391   -2.1532   C.3       1 RES1   0.0000
    41 C36      -3.2098   -6.8954   -1.8651   C.3       1 RES1   0.0000
    42 C37      -3.6349   -6.8348   -0.3991   C.3       1 RES1   0.0000
    43 C38      -2.8015   -7.6850    0.5613   C.3       1 RES1   0.0000
    44 C39      -3.2965   -7.5448    2.0032   C.3       1 RES1   0.0000
    45 N1       -3.9080    0.6178    0.0992   N.ar      1 RES1   0.0000
    46 O3       -2.6610    0.6581   -0.2209   O.co2     1 RES1   0.0000
    47 H1       -5.9120    6.3068    5.8329   H         1 RES1   0.0000
    48 H2       -7.0499    4.9599    5.7454   H         1 RES1   0.0000
    49 H3       -5.7495    5.0996    4.5539   H         1 RES1   0.0000
    50 H4       -5.3310    4.6396    7.5452   H         1 RES1   0.0000
    51 H5       -4.0575    4.7263    6.3264   H         1 RES1   0.0000
    52 H6       -5.1332    2.6987    5.1972   H         1 RES1   0.0000
    53 H7       -6.2989    2.6639    6.5112   H         1 RES1   0.0000
    54 H8       -4.8781    1.1308    7.3856   H         1 RES1   0.0000
    55 H9       -4.0715    2.5452    8.0222   H         1 RES1   0.0000
    56 H10      -3.3020    1.1244    5.4365   H         1 RES1   0.0000
    57 H11      -2.6051    0.7872    7.0100   H         1 RES1   0.0000
    58 H12      -1.0174    2.3386    6.4776   H         1 RES1   0.0000
    59 H13      -2.2502    3.5225    6.8691   H         1 RES1   0.0000
    60 H14      -1.5106    4.2235    4.7785   H         1 RES1   0.0000
    61 H15      -2.9672    3.3409    4.3881   H         1 RES1   0.0000
    62 H16      -1.2169    1.2694    4.1782   H         1 RES1   0.0000
    63 H17      -0.0868    2.5815    3.8857   H         1 RES1   0.0000
    64 H18      -2.7394    4.5056    2.1246   H         1 RES1   0.0000
    65 H19      -2.0340    4.1485    0.5497   H         1 RES1   0.0000
    66 H20       0.2248    4.6639    1.3602   H         1 RES1   0.0000
    67 H21      -0.3176    4.5725    3.0208   H         1 RES1   0.0000
    68 H22       0.0894    6.8075    2.6218   H         1 RES1   0.0000
    69 H23      -1.6640    6.6389    2.7136   H         1 RES1   0.0000
    70 H24      -1.7135    6.6511    0.1759   H         1 RES1   0.0000
    71 H25       0.0158    7.0627    0.2045   H         1 RES1   0.0000
    72 H26      -0.4599    9.2011    1.2568   H         1 RES1   0.0000
    73 H27      -2.0895    8.6712    1.6869   H         1 RES1   0.0000
    74 H28      -2.4196    8.4216   -0.9113   H         1 RES1   0.0000
    75 H29      -1.0714    9.5300   -1.0255   H         1 RES1   0.0000
    76 H30      -2.4573   11.3000   -0.5064   H         1 RES1   0.0000
    77 H31      -2.9621   10.5136    0.9725   H         1 RES1   0.0000
    78 H32      -4.2144   10.0300   -1.7659   H         1 RES1   0.0000
    79 H33      -4.8933   10.9710   -0.4320   H         1 RES1   0.0000
    80 H34      -4.6885    9.2324   -0.2669   H         1 RES1   0.0000
    81 H35      -3.7054    1.6966    3.2197   H         1 RES1   0.0000
    82 H36      -2.8030    0.3689    2.4139   H         1 RES1   0.0000
    83 H37      -5.9213    1.8493    2.4797   H         1 RES1   0.0000
    84 H38      -7.6630    0.9078    0.9599   H         1 RES1   0.0000
    85 H39      -6.9039   -0.2526   -1.1003   H         1 RES1   0.0000
    86 H40      -5.2491   -1.0680   -2.4486   H         1 RES1   0.0000
    87 H41      -4.3253    0.3889   -2.7410   H         1 RES1   0.0000
    88 H42      -4.0215   -1.2826   -4.6732   H         1 RES1   0.0000
    89 H43      -2.4857   -2.1094   -4.7578   H         1 RES1   0.0000
    90 H44      -1.5423   -0.1864   -5.5888   H         1 RES1   0.0000
    91 H45      -1.8851    0.6239   -4.0760   H         1 RES1   0.0000
    92 H46      -4.1886    1.1806   -4.9541   H         1 RES1   0.0000
    93 H47      -3.8180    0.3034   -6.4262   H         1 RES1   0.0000
    94 H48      -2.0216    1.9128   -6.9554   H         1 RES1   0.0000
    95 H49      -2.4104    2.8509   -5.5285   H         1 RES1   0.0000
    96 H50      -4.2151    2.2092   -7.9053   H         1 RES1   0.0000
    97 H51      -3.4812    3.7669   -7.5837   H         1 RES1   0.0000
    98 H52      -4.9809    4.2732   -5.8383   H         1 RES1   0.0000
    99 H53      -5.4219    2.5927   -5.5655   H         1 RES1   0.0000
   100 H54      -6.1295    4.0136   -8.1333   H         1 RES1   0.0000
   101 H55      -7.1612    4.0232   -6.7097   H         1 RES1   0.0000
   102 H56      -6.2781    1.5046   -8.1976   H         1 RES1   0.0000
   103 H57      -7.8753    2.2366   -8.2345   H         1 RES1   0.0000
   104 H58      -7.2720    1.5392   -6.7421   H         1 RES1   0.0000
   105 H59      -3.7547   -3.6925   -2.7044   H         1 RES1   0.0000
   106 H60      -3.2316   -3.2901   -1.0637   H         1 RES1   0.0000
   107 H61      -0.8584   -3.0720   -2.0771   H         1 RES1   0.0000
   108 H62      -1.4580   -4.0329   -3.4199   H         1 RES1   0.0000
   109 H63      -1.6816   -4.9806   -0.5459   H         1 RES1   0.0000
   110 H64      -0.2165   -5.1727   -1.4764   H         1 RES1   0.0000
   111 H65      -1.1041   -7.2084   -1.7707   H         1 RES1   0.0000
   112 H66      -1.6365   -6.4254   -3.2347   H         1 RES1   0.0000
   113 H67      -3.2813   -7.9322   -2.1960   H         1 RES1   0.0000
   114 H68      -3.9216   -6.3145   -2.4545   H         1 RES1   0.0000
   115 H69      -4.6676   -7.1799   -0.3379   H         1 RES1   0.0000
   116 H70      -3.6203   -5.8012   -0.0492   H         1 RES1   0.0000
   117 H71      -1.7513   -7.3861    0.5215   H         1 RES1   0.0000
   118 H72      -2.8605   -8.7293    0.2522   H         1 RES1   0.0000
   119 H73      -2.9121   -6.6315    2.4622   H         1 RES1   0.0000
   120 H74      -2.9894   -8.3952    2.6087   H         1 RES1   0.0000
   121 H75      -4.3818   -7.5030    2.0298   H         1 RES1   0.0000
   122 C40       6.8312    2.4334    5.7024   C.3       1 RES1   0.0000
   123 C41       5.7013    2.1031    6.6738   C.3       1 RES1   0.0000
   124 C42       4.4569    2.9525    6.4030   C.3       1 RES1   0.0000
   125 C43       3.2264    2.5614    7.2346   C.3       1 RES1   0.0000
   126 C44       2.2213    1.6365    6.5386   C.3       1 RES1   0.0000
   127 C45       2.6809    0.1779    6.4026   C.3       1 RES1   0.0000
   128 C46       3.2366   -0.1821    5.0258   C.3       1 RES1   0.0000
   129 C47       2.1324   -0.4197    3.9995   C.3       1 RES1   0.0000
   130 P3        2.6133   -0.1359    2.2495   P.3       1 RES1   0.0000
   131 O4        1.5428   -0.6365    1.3440   O.2       1 RES1   0.0000
   132 C48       4.2511   -0.9480    2.0027   C.3       1 RES1   0.0000
   133 C49       4.2271   -2.4456    2.3242   C.3       1 RES1   0.0000
   134 C50       5.6194   -3.0897    2.4195   C.3       1 RES1   0.0000
   135 C51       6.3985   -3.1104    1.1032   C.3       1 RES1   0.0000
   136 C52       7.8765   -3.4815    1.2561   C.3       1 RES1   0.0000
   137 C53       8.6156   -3.3147   -0.0780   C.3       1 RES1   0.0000
   138 C54      10.1083   -2.9883    0.0959   C.3       1 RES1   0.0000
   139 C55      10.5453   -1.7632   -0.7023   C.3       1 RES1   0.0000
   140 C56       2.8202    1.7236    2.2747   C.3       1 RES1   0.0000
   141 C57       3.1392    2.6249    1.1282   C.ar      1 RES1   0.0000
   142 C58       4.1514    3.5729    1.1537   C.ar      1 RES1   0.0000
   143 C59       4.1633    4.6007    0.2183   C.ar      1 RES1   0.0000
   144 C60       3.0570    4.7395   -0.6104   C.ar      1 RES1   0.0000
   145 C61       2.0625    3.7703   -0.6288   C.ar      1 RES1   0.0000
   146 C62       0.7060    3.9790   -1.2197   C.3       1 RES1   0.0000
   147 P4       -0.1263    2.9337   -2.5408   P.3       1 RES1   0.0000
   148 O5       -0.2472    1.5041   -2.1502   O.2       1 RES1   0.0000
   149 C63       0.8296    3.2399   -4.0909   C.3       1 RES1   0.0000
   150 C64       1.1906    1.9839   -4.8811   C.3       1 RES1   0.0000
   151 C65       2.3652    2.3088   -5.8128   C.3       1 RES1   0.0000
   152 C66       3.0753    1.0918   -6.4060   C.3       1 RES1   0.0000
   153 C67       4.3290    1.4585   -7.2165   C.3       1 RES1   0.0000
   154 C68       5.4172    2.2434   -6.4689   C.3       1 RES1   0.0000
   155 C69       6.0417    3.3542   -7.3149   C.3       1 RES1   0.0000
   156 C70       5.0773    4.5115   -7.5546   C.3       1 RES1   0.0000
   157 C71      -1.7821    3.7955   -2.6225   C.3       1 RES1   0.0000
   158 C72      -2.9384    2.7966   -2.5237   C.3       1 RES1   0.0000
   159 C73      -4.1532    3.2219   -1.6857   C.3       1 RES1   0.0000
   160 C74      -5.1064    4.2606   -2.2945   C.3       1 RES1   0.0000
   161 C75      -4.7580    5.7301   -2.0576   C.3       1 RES1   0.0000
   162 C76      -4.4667    6.0927   -0.6023   C.3       1 RES1   0.0000
   163 C77      -5.6265    5.8579    0.3658   C.3       1 RES1   0.0000
   164 C78      -5.2897    6.3557    1.7790   C.3       1 RES1   0.0000
   165 N2        2.2293    2.6451    0.1185   N.ar      1 RES1   0.0000
   166 O6        1.4767    1.6207   -0.0789   O.co2     1 RES1   0.0000
   167 H76       7.7393    1.8994    5.9740   H         1 RES1   0.0000
   168 H77       7.0470    3.5000    5.7157   H         1 RES1   0.0000
   169 H78       6.5599    2.1481    4.6850   H         1 RES1   0.0000
   170 H79       6.0425    2.2968    7.6914   H         1 RES1   0.0000
   171 H80       5.4703    1.0386    6.6014   H         1 RES1   0.0000
   172 H81       4.2071    2.9147    5.3375   H         1 RES1   0.0000
   173 H82       4.7146    3.9900    6.6268   H         1 RES1   0.0000
   174 H83       2.6964    3.4748    7.5107   H         1 RES1   0.0000
   175 H84       3.5532    2.0990    8.1662   H         1 RES1   0.0000
   176 H85       1.9761    2.0538    5.5576   H         1 RES1   0.0000
   177 H86       1.3054    1.6647    7.1320   H         1 RES1   0.0000
   178 H87       1.8465   -0.4874    6.6246   H         1 RES1   0.0000
   179 H88       3.4505   -0.0170    7.1470   H         1 RES1   0.0000
   180 H89       3.8401   -1.0844    5.1123   H         1 RES1   0.0000
   181 H90       3.8981    0.6133    4.6937   H         1 RES1   0.0000
   182 H91       1.2683    0.2239    4.1868   H         1 RES1   0.0000
   183 H92       1.7767   -1.4506    4.0632   H         1 RES1   0.0000
   184 H93       4.9716   -0.4540    2.6524   H         1 RES1   0.0000
   185 H94       4.5624   -0.7734    0.9734   H         1 RES1   0.0000
   186 H95       3.6412   -2.9884    1.5813   H         1 RES1   0.0000
   187 H96       3.7424   -2.5836    3.2911   H         1 RES1   0.0000
   188 H97       5.4803   -4.1156    2.7690   H         1 RES1   0.0000
   189 H98       6.2064   -2.5595    3.1714   H         1 RES1   0.0000
   190 H99       6.3719   -2.1107    0.6657   H         1 RES1   0.0000
   191 H100      5.9190   -3.8075    0.4117   H         1 RES1   0.0000
   192 H101      7.9834   -4.5035    1.6274   H         1 RES1   0.0000
   193 H102      8.3210   -2.8046    1.9887   H         1 RES1   0.0000
   194 H103      8.1430   -2.5003   -0.6328   H         1 RES1   0.0000
   195 H104      8.4886   -4.2133   -0.6819   H         1 RES1   0.0000
   196 H105     10.7167   -3.8438   -0.1935   H         1 RES1   0.0000
   197 H106     10.3182   -2.7986    1.1502   H         1 RES1   0.0000
   198 H107     10.3087   -1.8718   -1.7574   H         1 RES1   0.0000
   199 H108     11.6159   -1.6194   -0.5900   H         1 RES1   0.0000
   200 H109     10.0444   -0.8712   -0.3333   H         1 RES1   0.0000
   201 H110      3.5148    1.9439    3.0850   H         1 RES1   0.0000
   202 H111      1.7968    2.0038    2.5746   H         1 RES1   0.0000
   203 H112      4.9150    3.5193    1.9153   H         1 RES1   0.0000
   204 H113      4.9660    5.3225    0.1870   H         1 RES1   0.0000
   205 H114      2.9494    5.6123   -1.2374   H         1 RES1   0.0000
   206 H115      0.6173    5.0126   -1.5555   H         1 RES1   0.0000
   207 H116     -0.0054    3.8132   -0.4009   H         1 RES1   0.0000
   208 H117      1.7518    3.7443   -3.7903   H         1 RES1   0.0000
   209 H118      0.2780    3.9356   -4.7232   H         1 RES1   0.0000
   210 H119      0.3303    1.6428   -5.4585   H         1 RES1   0.0000
   211 H120      1.4514    1.1797   -4.1912   H         1 RES1   0.0000
   212 H121      3.0972    2.8967   -5.2557   H         1 RES1   0.0000
   213 H122      2.0051    2.9363   -6.6278   H         1 RES1   0.0000
   214 H123      2.3884    0.5755   -7.0789   H         1 RES1   0.0000
   215 H124      3.3389    0.3907   -5.6089   H         1 RES1   0.0000
   216 H125      4.0070    2.0387   -8.0790   H         1 RES1   0.0000
   217 H126      4.7614    0.5332   -7.6021   H         1 RES1   0.0000
   218 H127      6.2062    1.5660   -6.1440   H         1 RES1   0.0000
   219 H128      5.0130    2.7172   -5.5755   H         1 RES1   0.0000
   220 H129      6.3696    2.9445   -8.2688   H         1 RES1   0.0000
   221 H130      6.9273    3.7367   -6.8036   H         1 RES1   0.0000
   222 H131      4.2053    4.1881   -8.1197   H         1 RES1   0.0000
   223 H132      5.5621    5.3095   -8.1124   H         1 RES1   0.0000
   224 H133      4.7349    4.9219   -6.6051   H         1 RES1   0.0000
   225 H134     -1.8230    4.3742   -3.5443   H         1 RES1   0.0000
   226 H135     -1.8287    4.5226   -1.8125   H         1 RES1   0.0000
   227 H136     -2.5391    1.8818   -2.0674   H         1 RES1   0.0000
   228 H137     -3.2828    2.5598   -3.5292   H         1 RES1   0.0000
   229 H138     -3.8226    3.5421   -0.6947   H         1 RES1   0.0000
   230 H139     -4.7601    2.3268   -1.5341   H         1 RES1   0.0000
   231 H140     -6.0935    4.0715   -1.8654   H         1 RES1   0.0000
   232 H141     -5.1992    4.0858   -3.3693   H         1 RES1   0.0000
   233 H142     -5.6085    6.3247   -2.3920   H         1 RES1   0.0000
   234 H143     -3.9018    6.0181   -2.6701   H         1 RES1   0.0000
   235 H144     -4.2170    7.1538   -0.5719   H         1 RES1   0.0000
   236 H145     -3.5972    5.5404   -0.2407   H         1 RES1   0.0000
   237 H146     -5.8737    4.7936    0.4084   H         1 RES1   0.0000
   238 H147     -6.5051    6.3812   -0.0123   H         1 RES1   0.0000
   239 H148     -4.8931    5.5476    2.3972   H         1 RES1   0.0000
   240 H149     -6.1699    6.7611    2.2739   H         1 RES1   0.0000
   241 H150     -4.5449    7.1485    1.7381   H         1 RES1   0.0000
   242 C79      -1.9561   -7.5754    5.6981   C.3       1 RES1   0.0000
   243 C80      -1.7062   -6.3837    6.6145   C.3       1 RES1   0.0000
   244 C81      -0.3288   -5.7650    6.3782   C.3       1 RES1   0.0000
   245 C82      -0.0416   -4.5101    7.2149   C.3       1 RES1   0.0000
   246 C83      -0.3008   -3.1727    6.5107   C.3       1 RES1   0.0000
   247 C84      -1.7850   -2.8053    6.3507   C.3       1 RES1   0.0000
   248 C85      -2.3382   -3.0328    4.9420   C.3       1 RES1   0.0000
   249 C86      -1.9078   -1.9479    3.9537   C.3       1 RES1   0.0000
   250 P5       -1.7545   -2.4778    2.1946   P.3       1 RES1   0.0000
   251 O7       -1.6114   -1.2804    1.3152   O.2       1 RES1   0.0000
   252 C87      -3.2045   -3.5411    1.7935   C.3       1 RES1   0.0000
   253 C88      -4.4913   -2.7260    1.6321   C.3       1 RES1   0.0000
   254 C89      -5.7850   -3.5160    1.9027   C.3       1 RES1   0.0000
   255 C90      -6.3347   -4.2885    0.6954   C.3       1 RES1   0.0000
   256 C91      -7.1672   -5.5170    1.0726   C.3       1 RES1   0.0000
   257 C92      -7.6884   -6.2388   -0.1749   C.3       1 RES1   0.0000
   258 C93      -8.1148   -7.6899    0.0970   C.3       1 RES1   0.0000
   259 C94      -7.0667   -8.7206   -0.3122   C.3       1 RES1   0.0000
   260 C95      -0.2763   -3.6064    2.3717   C.3       1 RES1   0.0000
   261 C96       0.3970   -4.3447    1.2665   C.ar      1 RES1   0.0000
   262 C97       0.6845   -5.6964    1.3218   C.ar      1 RES1   0.0000
   263 C98       1.5660   -6.2543    0.4044   C.ar      1 RES1   0.0000
   264 C99       2.2810   -5.3895   -0.4168   C.ar      1 RES1   0.0000
   265 C100      1.9679   -4.0389   -0.4618   C.ar      1 RES1   0.0000
   266 C101      2.8385   -2.9874   -1.0647   C.3       1 RES1   0.0000
   267 P6        2.3349   -1.8331   -2.4561   P.3       1 RES1   0.0000
   268 O8        1.1584   -0.9808   -2.1311   O.2       1 RES1   0.0000
   269 C102      2.0674   -2.9649   -3.8930   C.3       1 RES1   0.0000
   270 C103      0.9605   -2.5556   -4.8646   C.3       1 RES1   0.0000
   271 C104      0.5829   -3.7514   -5.7631   C.3       1 RES1   0.0000
   272 C105     -0.8624   -3.7686   -6.2715   C.3       1 RES1   0.0000
   273 C106     -1.2263   -5.0083   -7.1000   C.3       1 RES1   0.0000
   274 C107     -1.2385   -6.3263   -6.3111   C.3       1 RES1   0.0000
   275 C108     -0.6725   -7.5185   -7.0845   C.3       1 RES1   0.0000
   276 C109      0.8109   -7.3783   -7.4025   C.3       1 RES1   0.0000
   277 C110      3.9106   -0.8327   -2.5507   C.3       1 RES1   0.0000
   278 C111      3.6296    0.6675   -2.6222   C.3       1 RES1   0.0000
   279 C112      4.5206    1.5851   -1.7740   C.3       1 RES1   0.0000
   280 C113      5.9321    1.9042   -2.2855   C.3       1 RES1   0.0000
   281 C114      7.0269    0.8723   -2.0171   C.3       1 RES1   0.0000
   282 C115      7.1362    0.4147   -0.5650   C.3       1 RES1   0.0000
   283 C116      7.4939    1.5118    0.4364   C.3       1 RES1   0.0000
   284 C117      7.8229    0.9211    1.8082   C.3       1 RES1   0.0000
   285 N3        0.8992   -3.5927    0.2541   N.ar      1 RES1   0.0000
   286 O9        0.3977   -2.4349    0.0172   O.co2     1 RES1   0.0000
   287 H151     -2.9090   -8.0451    5.9286   H         1 RES1   0.0000
   288 H152     -1.1745   -8.3214    5.8150   H         1 RES1   0.0000
   289 H153     -1.9758   -7.2604    4.6563   H         1 RES1   0.0000
   290 H154     -1.7700   -6.7148    7.6501   H         1 RES1   0.0000
   291 H155     -2.4940   -5.6469    6.4570   H         1 RES1   0.0000
   292 H156     -0.2050   -5.5344    5.3157   H         1 RES1   0.0000
   293 H157      0.4171   -6.5237    6.6203   H         1 RES1   0.0000
   294 H158      1.0101   -4.5278    7.5079   H         1 RES1   0.0000
   295 H159     -0.6221   -4.5484    8.1368   H         1 RES1   0.0000
   296 H160      0.1946   -3.1909    5.5359   H         1 RES1   0.0000
   297 H161      0.1968   -2.4015    7.1021   H         1 RES1   0.0000
   298 H162     -1.9321   -1.7612    6.6269   H         1 RES1   0.0000
   299 H163     -2.3696   -3.4033    7.0482   H         1 RES1   0.0000
   300 H164     -3.4271   -3.0546    4.9875   H         1 RES1   0.0000
   301 H165     -2.0069   -4.0121    4.6053   H         1 RES1   0.0000
   302 H166     -0.9284   -1.5413    4.2244   H         1 RES1   0.0000
   303 H167     -2.6127   -1.1163    4.0004   H         1 RES1   0.0000
   304 H168     -3.3174   -4.2533    2.6108   H         1 RES1   0.0000
   305 H169     -2.9817   -4.1127    0.8938   H         1 RES1   0.0000
   306 H170     -4.5411   -2.2948    0.6290   H         1 RES1   0.0000
   307 H171     -4.4493   -1.8939    2.3397   H         1 RES1   0.0000
   308 H172     -6.5442   -2.8050    2.2289   H         1 RES1   0.0000
   309 H173     -5.6218   -4.2057    2.7316   H         1 RES1   0.0000
   310 H174     -5.5057   -4.6262    0.0715   H         1 RES1   0.0000
   311 H175     -6.9614   -3.6208    0.0992   H         1 RES1   0.0000
   312 H176     -8.0136   -5.2100    1.6915   H         1 RES1   0.0000
   313 H177     -6.5517   -6.2093    1.6499   H         1 RES1   0.0000
   314 H178     -6.9126   -6.2380   -0.9458   H         1 RES1   0.0000
   315 H179     -8.5332   -5.6779   -0.5756   H         1 RES1   0.0000
   316 H180     -8.3409   -7.8156    1.1563   H         1 RES1   0.0000
   317 H181     -9.0315   -7.9095   -0.4470   H         1 RES1   0.0000
   318 H182     -6.8132   -8.6152   -1.3657   H         1 RES1   0.0000
   319 H183     -7.4561   -9.7231   -0.1517   H         1 RES1   0.0000
   320 H184     -6.1610   -8.6086    0.2797   H         1 RES1   0.0000
   321 H185     -0.5493   -4.3350    3.1363   H         1 RES1   0.0000
   322 H186      0.4848   -2.9231    2.7838   H         1 RES1   0.0000
   323 H187      0.2222   -6.3094    2.0797   H         1 RES1   0.0000
   324 H188      1.7416   -7.3189    0.3721   H         1 RES1   0.0000
   325 H189      3.0937   -5.7619   -1.0232   H         1 RES1   0.0000
   326 H190      3.7850   -3.4395   -1.3656   H         1 RES1   0.0000
   327 H191      3.0296   -2.2539   -0.2698   H         1 RES1   0.0000
   328 H192      1.8032   -3.9317   -3.4538   H         1 RES1   0.0000
   329 H193      3.0136   -3.0960   -4.4182   H         1 RES1   0.0000
   330 H194      1.3022   -1.7205   -5.4778   H         1 RES1   0.0000
   331 H195      0.0979   -2.2033   -4.2953   H         1 RES1   0.0000
   332 H196      0.7579   -4.6760   -5.2118   H         1 RES1   0.0000
   333 H197      1.2516   -3.7639   -6.6221   H         1 RES1   0.0000
   334 H198     -1.0372   -2.8854   -6.8884   H         1 RES1   0.0000
   335 H199     -1.5490   -3.7295   -5.4240   H         1 RES1   0.0000
   336 H200     -0.5315   -5.0805   -7.9322   H         1 RES1   0.0000
   337 H201     -2.2173   -4.8431   -7.5276   H         1 RES1   0.0000
   338 H202     -2.2620   -6.5628   -6.0172   H         1 RES1   0.0000
   339 H203     -0.6611   -6.2245   -5.3922   H         1 RES1   0.0000
   340 H204     -1.2319   -7.6493   -8.0084   H         1 RES1   0.0000
   341 H205     -0.8198   -8.4214   -6.4887   H         1 RES1   0.0000
   342 H206      1.0032   -6.5160   -8.0346   H         1 RES1   0.0000
   343 H207      1.1751   -8.2557   -7.9291   H         1 RES1   0.0000
   344 H208      1.3916   -7.2656   -6.4895   H         1 RES1   0.0000
   345 H209      4.5213   -1.1742   -3.3840   H         1 RES1   0.0000
   346 H210      4.4723   -1.0600   -1.6452   H         1 RES1   0.0000
   347 H211      2.6005    0.8274   -2.2703   H         1 RES1   0.0000
   348 H212      3.6998    0.9968   -3.6565   H         1 RES1   0.0000
   349 H213      4.5661    1.2082   -0.7491   H         1 RES1   0.0000
   350 H214      4.0024    2.5465   -1.7369   H         1 RES1   0.0000
   351 H215      6.2343    2.8451   -1.8191   H         1 RES1   0.0000
   352 H216      5.8912    2.0902   -3.3596   H         1 RES1   0.0000
   353 H217      7.9796    1.3208   -2.3045   H         1 RES1   0.0000
   354 H218      6.8794   -0.0040   -2.6508   H         1 RES1   0.0000
   355 H219      7.9166   -0.3458   -0.5175   H         1 RES1   0.0000
   356 H220      6.1998   -0.0523   -0.2531   H         1 RES1   0.0000
   357 H221      6.6699    2.2240    0.5351   H         1 RES1   0.0000
   358 H222      8.3555    2.0613    0.0583   H         1 RES1   0.0000
   359 H223      6.9144    0.6472    2.3451   H         1 RES1   0.0000
   360 H224      8.3834    1.6266    2.4163   H         1 RES1   0.0000
   361 H225      8.4322    0.0277    1.6965   H         1 RES1   0.0000
@<TRIPOS>BOND
     1     1    11    1
     2     1    28    1
     3     1    46    1
     4     1   131    1
     5     1   148    1
     6     1   166    1
     7     1   251    1
     8     1   268    1
     9     1   286    1
    10     2     3    1
    11     2    47    1
    12     2    48    1
    13     2    49    1
    14     3     4    1
    15     3    50    1
    16     3    51    1
    17     4     5    1
    18     4    52    1
    19     4    53    1
    20     5     6    1
    21     5    54    1
    22     5    55    1
    23     6     7    1
    24     6    56    1
    25     6    57    1
    26     7     8    1
    27     7    58    1
    28     7    59    1
    29     8     9    1
    30     8    60    1
    31     8    61    1
    32     9    10    1
    33     9    62    1
    34     9    63    1
    35    10    11    2
    36    10    12    1
    37    10    20    1
    38    12    13    1
    39    12    64    1
    40    12    65    1
    41    13    14    1
    42    13    66    1
    43    13    67    1
    44    14    15    1
    45    14    68    1
    46    14    69    1
    47    15    16    1
    48    15    70    1
    49    15    71    1
    50    16    17    1
    51    16    72    1
    52    16    73    1
    53    17    18    1
    54    17    74    1
    55    17    75    1
    56    18    19    1
    57    18    76    1
    58    18    77    1
    59    19    78    1
    60    19    79    1
    61    19    80    1
    62    20    21    1
    63    20    81    1
    64    20    82    1
    65    21    22    1
    66    21    45    2
    67    22    23    2
    68    22    83    1
    69    23    24    1
    70    23    84    1
    71    24    25    2
    72    24    85    1
    73    25    26    1
    74    25    45    1
    75    26    27    1
    76    26    86    1
    77    26    87    1
    78    27    28    2
    79    27    29    1
    80    27    37    1
    81    29    30    1
    82    29    88    1
    83    29    89    1
    84    30    31    1
    85    30    90    1
    86    30    91    1
    87    31    32    1
    88    31    92    1
    89    31    93    1
    90    32    33    1
    91    32    94    1
    92    32    95    1
    93    33    34    1
    94    33    96    1
    95    33    97    1
    96    34    35    1
    97    34    98    1
    98    34    99    1
    99    35    36    1
   100    35   100    1
   101    35   101    1
   102    36   102    1
   103    36   103    1
   104    36   104    1
   105    37    38    1
   106    37   105    1
   107    37   106    1
   108    38    39    1
   109    38   107    1
   110    38   108    1
   111    39    40    1
   112    39   109    1
   113    39   110    1
   114    40    41    1
   115    40   111    1
   116    40   112    1
   117    41    42    1
   118    41   113    1
   119    41   114    1
   120    42    43    1
   121    42   115    1
   122    42   116    1
   123    43    44    1
   124    43   117    1
   125    43   118    1
   126    44   119    1
   127    44   120    1
   128    44   121    1
   129    45    46    1
   130   122   123    1
   131   122   167    1
   132   122   168    1
   133   122   169    1
   134   123   124    1
   135   123   170    1
   136   123   171    1
   137   124   125    1
   138   124   172    1
   139   124   173    1
   140   125   126    1
   141   125   174    1
   142   125   175    1
   143   126   127    1
   144   126   176    1
   145   126   177    1
   146   127   128    1
   147   127   178    1
   148   127   179    1
   149   128   129    1
   150   128   180    1
   151   128   181    1
   152   129   130    1
   153   129   182    1
   154   129   183    1
   155   130   131    2
   156   130   132    1
   157   130   140    1
   158   132   133    1
   159   132   184    1
   160   132   185    1
   161   133   134    1
   162   133   186    1
   163   133   187    1
   164   134   135    1
   165   134   188    1
   166   134   189    1
   167   135   136    1
   168   135   190    1
   169   135   191    1
   170   136   137    1
   171   136   192    1
   172   136   193    1
   173   137   138    1
   174   137   194    1
   175   137   195    1
   176   138   139    1
   177   138   196    1
   178   138   197    1
   179   139   198    1
   180   139   199    1
   181   139   200    1
   182   140   141    1
   183   140   201    1
   184   140   202    1
   185   141   142    1
   186   141   165    2
   187   142   143    2
   188   142   203    1
   189   143   144    1
   190   143   204    1
   191   144   145    2
   192   144   205    1
   193   145   146    1
   194   145   165    1
   195   146   147    1
   196   146   206    1
   197   146   207    1
   198   147   148    2
   199   147   149    1
   200   147   157    1
   201   149   150    1
   202   149   208    1
   203   149   209    1
   204   150   151    1
   205   150   210    1
   206   150   211    1
   207   151   152    1
   208   151   212    1
   209   151   213    1
   210   152   153    1
   211   152   214    1
   212   152   215    1
   213   153   154    1
   214   153   216    1
   215   153   217    1
   216   154   155    1
   217   154   218    1
   218   154   219    1
   219   155   156    1
   220   155   220    1
   221   155   221    1
   222   156   222    1
   223   156   223    1
   224   156   224    1
   225   157   158    1
   226   157   225    1
   227   157   226    1
   228   158   159    1
   229   158   227    1
   230   158   228    1
   231   159   160    1
   232   159   229    1
   233   159   230    1
   234   160   161    1
   235   160   231    1
   236   160   232    1
   237   161   162    1
   238   161   233    1
   239   161   234    1
   240   162   163    1
   241   162   235    1
   242   162   236    1
   243   163   164    1
   244   163   237    1
   245   163   238    1
   246   164   239    1
   247   164   240    1
   248   164   241    1
   249   165   166    1
   250   242   243    1
   251   242   287    1
   252   242   288    1
   253   242   289    1
   254   243   244    1
   255   243   290    1
   256   243   291    1
   257   244   245    1
   258   244   292    1
   259   244   293    1
   260   245   246    1
   261   245   294    1
   262   245   295    1
   263   246   247    1
   264   246   296    1
   265   246   297    1
   266   247   248    1
   267   247   298    1
   268   247   299    1
   269   248   249    1
   270   248   300    1
   271   248   301    1
   272   249   250    1
   273   249   302    1
   274   249   303    1
   275   250   251    2
   276   250   252    1
   277   250   260    1
   278   252   253    1
   279   252   304    1
   280   252   305    1
   281   253   254    1
   282   253   306    1
   283   253   307    1
   284   254   255    1
   285   254   308    1
   286   254   309    1
   287   255   256    1
   288   255   310    1
   289   255   311    1
   290   256   257    1
   291   256   312    1
   292   256   313    1
   293   257   258    1
   294   257   314    1
   295   257   315    1
   296   258   259    1
   297   258   316    1
   298   258   317    1
   299   259   318    1
   300   259   319    1
   301   259   320    1
   302   260   261    1
   303   260   321    1
   304   260   322    1
   305   261   262    1
   306   261   285    2
   307   262   263    2
   308   262   323    1
   309   263   264    1
   310   263   324    1
   311   264   265    2
   312   264   325    1
   313   265   266    1
   314   265   285    1
   315   266   267    1
   316   266   326    1
   317   266   327    1
   318   267   268    2
   319   267   269    1
   320   267   277    1
   321   269   270    1
   322   269   328    1
   323   269   329    1
   324   270   271    1
   325   270   330    1
   326   270   331    1
   327   271   272    1
   328   271   332    1
   329   271   333    1
   330   272   273    1
   331   272   334    1
   332   272   335    1
   333   273   274    1
   334   273   336    1
   335   273   337    1
   336   274   275    1
   337   274   338    1
   338   274   339    1
   339   275   276    1
   340   275   340    1
   341   275   341    1
   342   276   342    1
   343   276   343    1
   344   276   344    1
   345   277   278    1
   346   277   345    1
   347   277   346    1
   348   278   279    1
   349   278   347    1
   350   278   348    1
   351   279   280    1
   352   279   349    1
   353   279   350    1
   354   280   281    1
   355   280   351    1
   356   280   352    1
   357   281   282    1
   358   281   353    1
   359   281   354    1
   360   282   283    1
   361   282   355    1
   362   282   356    1
   363   283   284    1
   364   283   357    1
   365   283   358    1
   366   284   359    1
   367   284   360    1
   368   284   361    1
   369   285   286    1
@<TRIPOS>SUBSTRUCTURE
     1 RES1      361 GROUP             0 ****  ****    0  
