@<TRIPOS>MOLECULE
am_c3_9H2O_c0_0_nunpairedes_0_charge_3 Charge: 3 Unpaired_Electrons: 6 XTB_Unpaired_Electrons: 0 XTB_Charge: 3
   115   123     1     0     0
SMALL
NoCharges
****
Generated from Architector

@<TRIPOS>ATOM
     1 Eu1      -0.0584   -0.1353   -0.0947   Eu        1 RES1   0.0000
     2 C1       -4.0874    5.4811    3.6938   C.3       1 RES1   0.0000
     3 C2       -4.6537    6.0653    2.4090   C.3       1 RES1   0.0000
     4 C3       -3.5924    6.2647    1.3311   C.3       1 RES1   0.0000
     5 C4       -4.1640    6.5255   -0.0703   C.3       1 RES1   0.0000
     6 C5       -4.2562    5.2714   -0.9522   C.3       1 RES1   0.0000
     7 C6       -5.5042    4.3962   -0.7185   C.3       1 RES1   0.0000
     8 C7       -5.1551    2.9359   -0.3974   C.3       1 RES1   0.0000
     9 C8       -4.5863    2.8597    1.0280   C.3       1 RES1   0.0000
    10 N1       -3.8823    1.6265    1.3568   N.am      1 RES1   0.0000
    11 C9       -2.7506    1.3166    0.8013   C.2       1 RES1   0.0000
    12 O1       -2.0532    0.2816    1.0275   O.2       1 RES1   0.0000
    13 C10      -2.1524    2.0837   -0.3427   C.ar      1 RES1   0.0000
    14 C11      -1.9910    1.2709   -1.4930   C.ar      1 RES1   0.0000
    15 N2       -0.9121    1.4360   -2.2586   N.ar      1 RES1   0.0000
    16 C12      -0.1839    2.5472   -2.0866   C.ar      1 RES1   0.0000
    17 C13      -0.5389    3.4924   -1.1222   C.ar      1 RES1   0.0000
    18 N3       -1.4358    3.1834   -0.1933   N.ar      1 RES1   0.0000
    19 H1       -4.8849    5.3033    4.4085   H         1 RES1   0.0000
    20 H2       -3.3775    6.1663    4.1504   H         1 RES1   0.0000
    21 H3       -3.5729    4.5376    3.5101   H         1 RES1   0.0000
    22 H4       -5.1148    7.0295    2.6257   H         1 RES1   0.0000
    23 H5       -5.4506    5.4194    2.0342   H         1 RES1   0.0000
    24 H6       -2.9142    5.4038    1.2899   H         1 RES1   0.0000
    25 H7       -2.9734    7.1144    1.6273   H         1 RES1   0.0000
    26 H8       -3.5255    7.2447   -0.5850   H         1 RES1   0.0000
    27 H9       -5.1502    6.9804    0.0104   H         1 RES1   0.0000
    28 H10      -3.3468    4.6811   -0.7978   H         1 RES1   0.0000
    29 H11      -4.2426    5.5816   -1.9980   H         1 RES1   0.0000
    30 H12      -6.1351    4.4184   -1.6090   H         1 RES1   0.0000
    31 H13      -6.1047    4.8039    0.0945   H         1 RES1   0.0000
    32 H14      -4.4183    2.5880   -1.1278   H         1 RES1   0.0000
    33 H15      -6.0420    2.3050   -0.4931   H         1 RES1   0.0000
    34 H16      -5.4093    2.9695    1.7277   H         1 RES1   0.0000
    35 H17      -3.8870    3.6914    1.1564   H         1 RES1   0.0000
    36 H18      -4.2317    1.0235    2.1006   H         1 RES1   0.0000
    37 H19      -2.7710    0.5793   -1.8020   H         1 RES1   0.0000
    38 H20       0.6362    2.6661   -2.7821   H         1 RES1   0.0000
    39 H21      -0.0457    4.4478   -1.0134   H         1 RES1   0.0000
    40 C14       6.1422    1.3827    3.9992   C.3       1 RES1   0.0000
    41 C15       6.9385    1.8072    2.7738   C.3       1 RES1   0.0000
    42 C16       6.7061    0.9111    1.5577   C.3       1 RES1   0.0000
    43 C17       7.1175    1.5508    0.2234   C.3       1 RES1   0.0000
    44 C18       5.9974    2.3266   -0.4872   C.3       1 RES1   0.0000
    45 C19       5.7810    3.7724   -0.0027   C.3       1 RES1   0.0000
    46 C20       4.3397    4.0691    0.4405   C.3       1 RES1   0.0000
    47 C21       3.9404    3.1806    1.6369   C.3       1 RES1   0.0000
    48 N4        2.5099    2.9095    1.7174   N.am      1 RES1   0.0000
    49 C22       1.9340    1.9571    1.0458   C.2       1 RES1   0.0000
    50 O2        0.6849    1.7254    0.9711   O.2       1 RES1   0.0000
    51 C23       2.6714    1.0324    0.1198   C.ar      1 RES1   0.0000
    52 C24       2.5279    1.2716   -1.2648   C.ar      1 RES1   0.0000
    53 N5        2.5736    0.2605   -2.1149   N.ar      1 RES1   0.0000
    54 C25       2.9596   -0.9327   -1.6724   C.ar      1 RES1   0.0000
    55 C26       3.3128   -1.1114   -0.3311   C.ar      1 RES1   0.0000
    56 N6        3.0414   -0.1645    0.5600   N.ar      1 RES1   0.0000
    57 H22       6.3256    2.0734    4.8174   H         1 RES1   0.0000
    58 H23       6.4356    0.3893    4.3289   H         1 RES1   0.0000
    59 H24       5.0706    1.3655    3.7960   H         1 RES1   0.0000
    60 H25       8.0021    1.7934    3.0162   H         1 RES1   0.0000
    61 H26       6.6908    2.8410    2.5276   H         1 RES1   0.0000
    62 H27       5.6572    0.5935    1.5051   H         1 RES1   0.0000
    63 H28       7.2796   -0.0066    1.7046   H         1 RES1   0.0000
    64 H29       7.4506    0.7618   -0.4513   H         1 RES1   0.0000
    65 H30       7.9686    2.2111    0.3805   H         1 RES1   0.0000
    66 H31       5.0663    1.7596   -0.3861   H         1 RES1   0.0000
    67 H32       6.2186    2.3470   -1.5541   H         1 RES1   0.0000
    68 H33       6.0314    4.4676   -0.8055   H         1 RES1   0.0000
    69 H34       6.4633    4.0046    0.8126   H         1 RES1   0.0000
    70 H35       3.6669    3.9013   -0.4062   H         1 RES1   0.0000
    71 H36       4.2604    5.1223    0.7152   H         1 RES1   0.0000
    72 H37       4.2569    3.6588    2.5639   H         1 RES1   0.0000
    73 H38       4.4531    2.2220    1.5353   H         1 RES1   0.0000
    74 H39       1.9276    3.4941    2.3153   H         1 RES1   0.0000
    75 H40       2.4335    2.2756   -1.6608   H         1 RES1   0.0000
    76 H41       3.0167   -1.7090   -2.4237   H         1 RES1   0.0000
    77 H42       3.7306   -2.0248    0.0682   H         1 RES1   0.0000
    78 C27      -2.9325   -5.0433    3.9048   C.3       1 RES1   0.0000
    79 C28      -3.2579   -5.9288    2.7078   C.3       1 RES1   0.0000
    80 C29      -3.5559   -5.1344    1.4353   C.3       1 RES1   0.0000
    81 C30      -3.4947   -5.9942    0.1632   C.3       1 RES1   0.0000
    82 C31      -2.1794   -5.8644   -0.6187   C.3       1 RES1   0.0000
    83 C32      -0.9902   -6.7183   -0.1329   C.3       1 RES1   0.0000
    84 C33       0.2272   -5.8836    0.2987   C.3       1 RES1   0.0000
    85 C34      -0.0123   -5.2303    1.6698   C.3       1 RES1   0.0000
    86 N7        0.5661   -3.9022    1.8641   N.am      1 RES1   0.0000
    87 C35       0.3549   -2.8522    1.1320   C.2       1 RES1   0.0000
    88 O3        0.7988   -1.6814    1.3535   O.2       1 RES1   0.0000
    89 C36      -0.4287   -2.8115   -0.1491   C.ar      1 RES1   0.0000
    90 C37       0.2711   -2.6098   -1.3528   C.ar      1 RES1   0.0000
    91 N8       -0.3043   -1.9551   -2.3662   N.ar      1 RES1   0.0000
    92 C38      -1.6280   -1.7311   -2.2938   C.ar      1 RES1   0.0000
    93 C39      -2.3387   -2.0242   -1.1324   C.ar      1 RES1   0.0000
    94 N9       -1.7026   -2.4157   -0.0208   N.ar      1 RES1   0.0000
    95 H43      -2.6565   -5.6589    4.7557   H         1 RES1   0.0000
    96 H44      -3.7935   -4.4430    4.1865   H         1 RES1   0.0000
    97 H45      -2.1051   -4.3636    3.6937   H         1 RES1   0.0000
    98 H46      -4.1340   -6.5334    2.9441   H         1 RES1   0.0000
    99 H47      -2.4378   -6.6283    2.5329   H         1 RES1   0.0000
   100 H48      -2.8664   -4.2864    1.3260   H         1 RES1   0.0000
   101 H49      -4.5474   -4.6895    1.5386   H         1 RES1   0.0000
   102 H50      -4.3038   -5.6956   -0.5040   H         1 RES1   0.0000
   103 H51      -3.6676   -7.0390    0.4143   H         1 RES1   0.0000
   104 H52      -1.8893   -4.8130   -0.6099   H         1 RES1   0.0000
   105 H53      -2.3785   -6.1167   -1.6599   H         1 RES1   0.0000
   106 H54      -0.6716   -7.3769   -0.9409   H         1 RES1   0.0000
   107 H55      -1.2962   -7.3688    0.6849   H         1 RES1   0.0000
   108 H56       0.4248   -5.1293   -0.4679   H         1 RES1   0.0000
   109 H57       1.1067   -6.5276    0.3532   H         1 RES1   0.0000
   110 H58       0.3917   -5.8784    2.4475   H         1 RES1   0.0000
   111 H59      -1.0889   -5.1407    1.8158   H         1 RES1   0.0000
   112 H60       1.0794   -3.7460    2.7284   H         1 RES1   0.0000
   113 H61       1.2666   -3.0181   -1.5098   H         1 RES1   0.0000
   114 H62      -2.0818   -1.3302   -3.1950   H         1 RES1   0.0000
   115 H63      -3.4073   -1.8909   -1.0238   H         1 RES1   0.0000
@<TRIPOS>BOND
     1     1    12    1
     2     1    15    1
     3     1    18    1
     4     1    50    1
     5     1    53    1
     6     1    56    1
     7     1    88    1
     8     1    91    1
     9     1    94    1
    10     2     3    1
    11     2    19    1
    12     2    20    1
    13     2    21    1
    14     3     4    1
    15     3    22    1
    16     3    23    1
    17     4     5    1
    18     4    24    1
    19     4    25    1
    20     5     6    1
    21     5    26    1
    22     5    27    1
    23     6     7    1
    24     6    28    1
    25     6    29    1
    26     7     8    1
    27     7    30    1
    28     7    31    1
    29     8     9    1
    30     8    32    1
    31     8    33    1
    32     9    10    1
    33     9    34    1
    34     9    35    1
    35    10    11    1
    36    10    36    1
    37    11    12    2
    38    11    13    1
    39    13    14    1
    40    13    18    2
    41    14    15    2
    42    14    37    1
    43    15    16    1
    44    16    17    2
    45    16    38    1
    46    17    18    1
    47    17    39    1
    48    40    41    1
    49    40    57    1
    50    40    58    1
    51    40    59    1
    52    41    42    1
    53    41    60    1
    54    41    61    1
    55    42    43    1
    56    42    62    1
    57    42    63    1
    58    43    44    1
    59    43    64    1
    60    43    65    1
    61    44    45    1
    62    44    66    1
    63    44    67    1
    64    45    46    1
    65    45    68    1
    66    45    69    1
    67    46    47    1
    68    46    70    1
    69    46    71    1
    70    47    48    1
    71    47    72    1
    72    47    73    1
    73    48    49    1
    74    48    74    1
    75    49    50    2
    76    49    51    1
    77    51    52    1
    78    51    56    2
    79    52    53    2
    80    52    75    1
    81    53    54    1
    82    54    55    2
    83    54    76    1
    84    55    56    1
    85    55    77    1
    86    78    79    1
    87    78    95    1
    88    78    96    1
    89    78    97    1
    90    79    80    1
    91    79    98    1
    92    79    99    1
    93    80    81    1
    94    80   100    1
    95    80   101    1
    96    81    82    1
    97    81   102    1
    98    81   103    1
    99    82    83    1
   100    82   104    1
   101    82   105    1
   102    83    84    1
   103    83   106    1
   104    83   107    1
   105    84    85    1
   106    84   108    1
   107    84   109    1
   108    85    86    1
   109    85   110    1
   110    85   111    1
   111    86    87    1
   112    86   112    1
   113    87    88    2
   114    87    89    1
   115    89    90    1
   116    89    94    2
   117    90    91    2
   118    90   113    1
   119    91    92    1
   120    92    93    2
   121    92   114    1
   122    93    94    1
   123    93   115    1
@<TRIPOS>SUBSTRUCTURE
     1 RES1      115 GROUP             0 ****  ****    0  
