@<TRIPOS>MOLECULE
ICIGOT_geomtry_0_nunpairedes_0_charge_3 Charge: 3 Unpaired_Electrons: 4 XTB_Unpaired_Electrons: 0 XTB_Charge: 3
   177   180     1     0     0
SMALL
NoCharges
****
Generated from Architector

@<TRIPOS>ATOM
     1 Ho1       0.0524   -0.2551    0.0787   Ho        1 RES1   0.0000
     2 C1       -2.9475   -4.1630    5.4841   C.3       1 RES1   0.0000
     3 C2       -2.7402   -4.4146    3.9950   C.3       1 RES1   0.0000
     4 C3       -3.5789   -5.5958    3.5039   C.3       1 RES1   0.0000
     5 C4       -3.3280   -5.9669    2.0393   C.3       1 RES1   0.0000
     6 C5       -3.8580   -4.9265    1.0322   C.3       1 RES1   0.0000
     7 C6       -2.7709   -4.2441    0.2084   C.3       1 RES1   0.0000
     8 O1       -2.0672   -3.1996    0.9523   O.3       1 RES1   0.0000
     9 P1       -2.3251   -1.6741    0.8846   P.3       1 RES1   0.0000
    10 O2       -1.2362   -0.9445    1.5927   O.2       1 RES1   0.0000
    11 O3       -2.1653   -1.2483   -0.7026   O.3       1 RES1   0.0000
    12 O4       -3.7571   -1.1545    1.1877   O.3       1 RES1   0.0000
    13 C7       -4.2521   -0.6760    2.4720   C.3       1 RES1   0.0000
    14 C8       -5.4480   -1.4934    2.9358   C.3       1 RES1   0.0000
    15 C9       -6.7479   -1.2156    2.1621   C.3       1 RES1   0.0000
    16 C10      -7.0871   -2.2247    1.0601   C.3       1 RES1   0.0000
    17 C11      -6.2865   -2.0789   -0.2346   C.3       1 RES1   0.0000
    18 C12      -6.8280   -2.9908   -1.3284   C.3       1 RES1   0.0000
    19 H1       -2.3656   -3.3054    5.8107   H         1 RES1   0.0000
    20 H2       -2.6313   -5.0278    6.0609   H         1 RES1   0.0000
    21 H3       -3.9953   -3.9745    5.7021   H         1 RES1   0.0000
    22 H4       -1.6837   -4.6309    3.8131   H         1 RES1   0.0000
    23 H5       -2.9892   -3.5066    3.4291   H         1 RES1   0.0000
    24 H6       -4.6414   -5.3834    3.6465   H         1 RES1   0.0000
    25 H7       -3.3436   -6.4659    4.1202   H         1 RES1   0.0000
    26 H8       -3.8063   -6.9291    1.8516   H         1 RES1   0.0000
    27 H9       -2.2577   -6.1145    1.8866   H         1 RES1   0.0000
    28 H10      -4.4304   -4.1612    1.5589   H         1 RES1   0.0000
    29 H11      -4.5344   -5.4183    0.3289   H         1 RES1   0.0000
    30 H12      -3.1951   -3.8047   -0.6959   H         1 RES1   0.0000
    31 H13      -1.9898   -4.9582   -0.0695   H         1 RES1   0.0000
    32 H14      -2.9213   -1.4545   -1.2806   H         1 RES1   0.0000
    33 H15      -4.5527    0.3604    2.3005   H         1 RES1   0.0000
    34 H16      -3.4291   -0.7125    3.1866   H         1 RES1   0.0000
    35 H17      -5.5969   -1.2449    3.9871   H         1 RES1   0.0000
    36 H18      -5.2036   -2.5540    2.8893   H         1 RES1   0.0000
    37 H19      -6.7048   -0.2098    1.7429   H         1 RES1   0.0000
    38 H20      -7.5709   -1.2255    2.8772   H         1 RES1   0.0000
    39 H21      -8.1427   -2.0973    0.8175   H         1 RES1   0.0000
    40 H22      -6.9667   -3.2354    1.4557   H         1 RES1   0.0000
    41 H23      -5.2354   -2.3224   -0.0550   H         1 RES1   0.0000
    42 H24      -6.3413   -1.0407   -0.5719   H         1 RES1   0.0000
    43 H25      -6.8076   -4.0290   -1.0101   H         1 RES1   0.0000
    44 H26      -6.2390   -2.8982   -2.2373   H         1 RES1   0.0000
    45 H27      -7.8544   -2.7289   -1.5636   H         1 RES1   0.0000
    46 C13      -0.4062   -3.1109   -7.0026   C.3       1 RES1   0.0000
    47 C14      -0.2889   -1.8882   -7.9097   C.3       1 RES1   0.0000
    48 C15      -0.5965   -0.5458   -7.2413   C.3       1 RES1   0.0000
    49 C16      -2.0661   -0.3538   -6.8623   C.3       1 RES1   0.0000
    50 C17      -2.4825   -1.0066   -5.5384   C.3       1 RES1   0.0000
    51 C18      -1.9760   -0.2245   -4.3295   C.3       1 RES1   0.0000
    52 O5       -0.5847   -0.5315   -4.0842   O.3       1 RES1   0.0000
    53 P2        0.3517    0.0560   -2.9945   P.3       1 RES1   0.0000
    54 O6        0.6691   -0.8969   -1.8948   O.2       1 RES1   0.0000
    55 O7       -0.4700    1.2476   -2.2207   O.3       1 RES1   0.0000
    56 O8        1.5451    0.7882   -3.6432   O.3       1 RES1   0.0000
    57 C19       2.9269    0.3250   -3.5540   C.3       1 RES1   0.0000
    58 C20       3.4434   -0.0729   -4.9298   C.3       1 RES1   0.0000
    59 C21       2.7501   -1.2963   -5.5390   C.3       1 RES1   0.0000
    60 C22       3.4445   -2.6355   -5.2880   C.3       1 RES1   0.0000
    61 C23       3.4228   -3.1168   -3.8308   C.3       1 RES1   0.0000
    62 C24       4.7092   -2.7994   -3.0744   C.3       1 RES1   0.0000
    63 H28       0.1032   -3.9579   -7.4555   H         1 RES1   0.0000
    64 H29      -1.4447   -3.4014   -6.8623   H         1 RES1   0.0000
    65 H30       0.0501   -2.9203   -6.0323   H         1 RES1   0.0000
    66 H31      -0.9542   -2.0199   -8.7627   H         1 RES1   0.0000
    67 H32       0.7283   -1.8433   -8.3017   H         1 RES1   0.0000
    68 H33      -0.3279    0.2393   -7.9498   H         1 RES1   0.0000
    69 H34       0.0326   -0.4212   -6.3604   H         1 RES1   0.0000
    70 H35      -2.6858   -0.7492   -7.6665   H         1 RES1   0.0000
    71 H36      -2.2816    0.7155   -6.7893   H         1 RES1   0.0000
    72 H37      -2.1314   -2.0343   -5.4779   H         1 RES1   0.0000
    73 H38      -3.5741   -1.0180   -5.4832   H         1 RES1   0.0000
    74 H39      -2.5380   -0.4691   -3.4241   H         1 RES1   0.0000
    75 H40      -2.0863    0.8423   -4.5344   H         1 RES1   0.0000
    76 H41      -0.6971    1.9920   -2.7936   H         1 RES1   0.0000
    77 H42       2.9716   -0.4899   -2.8295   H         1 RES1   0.0000
    78 H43       3.4751    1.1884   -3.1730   H         1 RES1   0.0000
    79 H44       4.5159   -0.2538   -4.8532   H         1 RES1   0.0000
    80 H45       3.3181    0.7869   -5.5873   H         1 RES1   0.0000
    81 H46       2.6978   -1.1502   -6.6190   H         1 RES1   0.0000
    82 H47       1.7228   -1.3419   -5.1617   H         1 RES1   0.0000
    83 H48       4.4768   -2.5742   -5.6358   H         1 RES1   0.0000
    84 H49       2.9433   -3.3720   -5.9177   H         1 RES1   0.0000
    85 H50       3.2904   -4.1992   -3.8296   H         1 RES1   0.0000
    86 H51       2.5573   -2.6887   -3.3118   H         1 RES1   0.0000
    87 H52       5.5526   -3.2781   -3.5644   H         1 RES1   0.0000
    88 H53       4.6524   -3.1749   -2.0563   H         1 RES1   0.0000
    89 H54       4.9036   -1.7313   -3.0364   H         1 RES1   0.0000
    90 C25       1.5253    6.7499    1.7747   C.3       1 RES1   0.0000
    91 C26       0.2559    7.5610    2.0216   C.3       1 RES1   0.0000
    92 C27      -1.0368    6.9308    1.4961   C.3       1 RES1   0.0000
    93 C28      -1.1804    6.9554   -0.0273   C.3       1 RES1   0.0000
    94 C29      -0.3994    5.8667   -0.7732   C.3       1 RES1   0.0000
    95 C30      -1.0268    4.4792   -0.6575   C.3       1 RES1   0.0000
    96 O9       -0.8620    3.8940    0.6651   O.3       1 RES1   0.0000
    97 P3       -0.8152    2.4022    1.0551   P.3       1 RES1   0.0000
    98 O10       0.4910    1.6889    0.8398   O.2       1 RES1   0.0000
    99 O11      -1.8572    1.5455    0.0986   O.3       1 RES1   0.0000
   100 O12      -1.5500    2.3350    2.4080   O.3       1 RES1   0.0000
   101 C31      -1.1768    1.9031    3.7398   C.3       1 RES1   0.0000
   102 C32      -1.1139    3.0888    4.7017   C.3       1 RES1   0.0000
   103 C33      -0.0002    4.1039    4.4236   C.3       1 RES1   0.0000
   104 C34       1.3622    3.7818    5.0419   C.3       1 RES1   0.0000
   105 C35       2.0470    2.5170    4.5016   C.3       1 RES1   0.0000
   106 C36       1.8453    1.3145    5.4226   C.3       1 RES1   0.0000
   107 H55       2.3201    7.1003    2.4278   H         1 RES1   0.0000
   108 H56       1.8788    6.8636    0.7533   H         1 RES1   0.0000
   109 H57       1.3568    5.6931    1.9782   H         1 RES1   0.0000
   110 H58       0.3775    8.5488    1.5778   H         1 RES1   0.0000
   111 H59       0.1441    7.7068    3.0967   H         1 RES1   0.0000
   112 H60      -1.8682    7.5012    1.9134   H         1 RES1   0.0000
   113 H61      -1.1245    5.9055    1.8586   H         1 RES1   0.0000
   114 H62      -0.8473    7.9273   -0.3921   H         1 RES1   0.0000
   115 H63      -2.2366    6.8603   -0.2947   H         1 RES1   0.0000
   116 H64       0.6396    5.8378   -0.4537   H         1 RES1   0.0000
   117 H65      -0.4097    6.1080   -1.8403   H         1 RES1   0.0000
   118 H66      -0.5901    3.7978   -1.3898   H         1 RES1   0.0000
   119 H67      -2.1017    4.5677   -0.8382   H         1 RES1   0.0000
   120 H68      -2.7696    1.8612    0.1707   H         1 RES1   0.0000
   121 H69      -0.2494    1.3348    3.6777   H         1 RES1   0.0000
   122 H70      -1.9896    1.2347    4.0375   H         1 RES1   0.0000
   123 H71      -1.0139    2.6970    5.7153   H         1 RES1   0.0000
   124 H72      -2.0784    3.5978    4.6559   H         1 RES1   0.0000
   125 H73      -0.3226    5.0627    4.8352   H         1 RES1   0.0000
   126 H74       0.0997    4.2311    3.3405   H         1 RES1   0.0000
   127 H75       1.2545    3.7024    6.1246   H         1 RES1   0.0000
   128 H76       2.0003    4.6463    4.8585   H         1 RES1   0.0000
   129 H77       3.1177    2.7071    4.4251   H         1 RES1   0.0000
   130 H78       1.6864    2.3146    3.4852   H         1 RES1   0.0000
   131 H79       2.2395    1.5472    6.4089   H         1 RES1   0.0000
   132 H80       2.3849    0.4383    5.0603   H         1 RES1   0.0000
   133 H81       0.7965    1.0581    5.5432   H         1 RES1   0.0000
   134 C37       7.0284   -3.3161    1.1539   C.3       1 RES1   0.0000
   135 C38       6.9984   -3.5979    2.6543   C.3       1 RES1   0.0000
   136 C39       5.9500   -2.8065    3.4439   C.3       1 RES1   0.0000
   137 C40       6.2231   -1.3015    3.5346   C.3       1 RES1   0.0000
   138 C41       5.7684   -0.4971    2.3144   C.3       1 RES1   0.0000
   139 C42       4.2615   -0.2851    2.2671   C.3       1 RES1   0.0000
   140 O13       3.5824   -1.5107    1.8775   O.3       1 RES1   0.0000
   141 P4        2.0450   -1.7375    1.8234   P.3       1 RES1   0.0000
   142 O14       1.4884   -1.7878    0.4349   O.2       1 RES1   0.0000
   143 O15       1.3289   -0.4347    2.4760   O.3       1 RES1   0.0000
   144 O16       1.6286   -2.9352    2.7189   O.3       1 RES1   0.0000
   145 C43       1.1658   -4.2066    2.1788   C.3       1 RES1   0.0000
   146 C44       2.1883   -5.3215    2.3558   C.3       1 RES1   0.0000
   147 C45       3.5123   -5.0988    1.6145   C.3       1 RES1   0.0000
   148 C46       3.6492   -5.8332    0.2788   C.3       1 RES1   0.0000
   149 C47       2.7586   -5.3012   -0.8527   C.3       1 RES1   0.0000
   150 C48       1.4581   -6.0771   -1.0368   C.3       1 RES1   0.0000
   151 H82       7.5719   -4.1045    0.6394   H         1 RES1   0.0000
   152 H83       7.5397   -2.3813    0.9385   H         1 RES1   0.0000
   153 H84       6.0181   -3.2779    0.7497   H         1 RES1   0.0000
   154 H85       7.9858   -3.3983    3.0706   H         1 RES1   0.0000
   155 H86       6.7990   -4.6614    2.8032   H         1 RES1   0.0000
   156 H87       5.9317   -3.2156    4.4568   H         1 RES1   0.0000
   157 H88       4.9661   -2.9769    3.0071   H         1 RES1   0.0000
   158 H89       7.2929   -1.1509    3.6776   H         1 RES1   0.0000
   159 H90       5.7227   -0.9024    4.4201   H         1 RES1   0.0000
   160 H91       6.1007   -0.9768    1.3996   H         1 RES1   0.0000
   161 H92       6.2363    0.4881    2.3481   H         1 RES1   0.0000
   162 H93       4.0001    0.4935    1.5491   H         1 RES1   0.0000
   163 H94       3.9008    0.0021    3.2553   H         1 RES1   0.0000
   164 H95       1.5647   -0.2173    3.3972   H         1 RES1   0.0000
   165 H96       0.9136   -4.0455    1.1299   H         1 RES1   0.0000
   166 H97       0.2560   -4.4320    2.7396   H         1 RES1   0.0000
   167 H98       1.7222   -6.2439    2.0072   H         1 RES1   0.0000
   168 H99       2.3786   -5.4582    3.4190   H         1 RES1   0.0000
   169 H100      4.3220   -5.4437    2.2586   H         1 RES1   0.0000
   170 H101      3.6543   -4.0254    1.4484   H         1 RES1   0.0000
   171 H102      3.4606   -6.8975    0.4297   H         1 RES1   0.0000
   172 H103      4.6938   -5.7389   -0.0233   H         1 RES1   0.0000
   173 H104      3.3148   -5.3731   -1.7878   H         1 RES1   0.0000
   174 H105      2.5458   -4.2399   -0.6808   H         1 RES1   0.0000
   175 H106      1.6744   -7.1242   -1.2315   H         1 RES1   0.0000
   176 H107      0.9122   -5.6824   -1.8906   H         1 RES1   0.0000
   177 H108      0.8208   -6.0183   -0.1579   H         1 RES1   0.0000
@<TRIPOS>BOND
     1     1    10    1
     2     1    11    1
     3     1    54    1
     4     1    55    1
     5     1    98    1
     6     1    99    1
     7     1   142    1
     8     1   143    1
     9     2     3    1
    10     2    19    1
    11     2    20    1
    12     2    21    1
    13     3     4    1
    14     3    22    1
    15     3    23    1
    16     4     5    1
    17     4    24    1
    18     4    25    1
    19     5     6    1
    20     5    26    1
    21     5    27    1
    22     6     7    1
    23     6    28    1
    24     6    29    1
    25     7     8    1
    26     7    30    1
    27     7    31    1
    28     8     9    1
    29     9    10    2
    30     9    11    1
    31     9    12    1
    32    11    32    1
    33    12    13    1
    34    13    14    1
    35    13    33    1
    36    13    34    1
    37    14    15    1
    38    14    35    1
    39    14    36    1
    40    15    16    1
    41    15    37    1
    42    15    38    1
    43    16    17    1
    44    16    39    1
    45    16    40    1
    46    17    18    1
    47    17    41    1
    48    17    42    1
    49    18    43    1
    50    18    44    1
    51    18    45    1
    52    46    47    1
    53    46    63    1
    54    46    64    1
    55    46    65    1
    56    47    48    1
    57    47    66    1
    58    47    67    1
    59    48    49    1
    60    48    68    1
    61    48    69    1
    62    49    50    1
    63    49    70    1
    64    49    71    1
    65    50    51    1
    66    50    72    1
    67    50    73    1
    68    51    52    1
    69    51    74    1
    70    51    75    1
    71    52    53    1
    72    53    54    2
    73    53    55    1
    74    53    56    1
    75    55    76    1
    76    56    57    1
    77    57    58    1
    78    57    77    1
    79    57    78    1
    80    58    59    1
    81    58    79    1
    82    58    80    1
    83    59    60    1
    84    59    81    1
    85    59    82    1
    86    60    61    1
    87    60    83    1
    88    60    84    1
    89    61    62    1
    90    61    85    1
    91    61    86    1
    92    62    87    1
    93    62    88    1
    94    62    89    1
    95    90    91    1
    96    90   107    1
    97    90   108    1
    98    90   109    1
    99    91    92    1
   100    91   110    1
   101    91   111    1
   102    92    93    1
   103    92   112    1
   104    92   113    1
   105    93    94    1
   106    93   114    1
   107    93   115    1
   108    94    95    1
   109    94   116    1
   110    94   117    1
   111    95    96    1
   112    95   118    1
   113    95   119    1
   114    96    97    1
   115    97    98    2
   116    97    99    1
   117    97   100    1
   118    99   120    1
   119   100   101    1
   120   101   102    1
   121   101   121    1
   122   101   122    1
   123   102   103    1
   124   102   123    1
   125   102   124    1
   126   103   104    1
   127   103   125    1
   128   103   126    1
   129   104   105    1
   130   104   127    1
   131   104   128    1
   132   105   106    1
   133   105   129    1
   134   105   130    1
   135   106   131    1
   136   106   132    1
   137   106   133    1
   138   134   135    1
   139   134   151    1
   140   134   152    1
   141   134   153    1
   142   135   136    1
   143   135   154    1
   144   135   155    1
   145   136   137    1
   146   136   156    1
   147   136   157    1
   148   137   138    1
   149   137   158    1
   150   137   159    1
   151   138   139    1
   152   138   160    1
   153   138   161    1
   154   139   140    1
   155   139   162    1
   156   139   163    1
   157   140   141    1
   158   141   142    2
   159   141   143    1
   160   141   144    1
   161   143   164    1
   162   144   145    1
   163   145   146    1
   164   145   165    1
   165   145   166    1
   166   146   147    1
   167   146   167    1
   168   146   168    1
   169   147   148    1
   170   147   169    1
   171   147   170    1
   172   148   149    1
   173   148   171    1
   174   148   172    1
   175   149   150    1
   176   149   173    1
   177   149   174    1
   178   150   175    1
   179   150   176    1
   180   150   177    1
@<TRIPOS>SUBSTRUCTURE
     1 RES1      177 GROUP             0 ****  ****    0  
