@<TRIPOS>MOLECULE
am_c3_9H2O_c0_0_nunpairedes_0_charge_1 Charge: 1 Unpaired_Electrons: 6 XTB_Unpaired_Electrons: 0 XTB_Charge: 1
    76    85     1     0     0
SMALL
NoCharges
****
Generated from Architector

@<TRIPOS>ATOM
     1 Eu1       0.0571   -0.0638   -0.1148   Eu        1 RES1   0.0000
     2 N1        0.3504    0.8635    2.1839   N.3       1 RES1   0.0000
     3 O1        0.3397    1.0950    3.3567   O.2       1 RES1   0.0000
     4 O2        1.3210    0.3238    1.6429   O.co2     1 RES1   0.0000
     5 O3       -0.6211    1.1764    1.4688   O.co2     1 RES1   0.0000
     6 O4        1.3231   -1.8448    0.1344   O.2       1 RES1   0.0000
     7 C1        1.0844   -2.7975    0.8959   C.ar      1 RES1   0.0000
     8 C2       -0.0608   -2.7507    1.7948   C.ar      1 RES1   0.0000
     9 O5       -0.7469   -1.5544    1.7269   O.3       1 RES1   0.0000
    10 C3       -0.3898   -3.8057    2.6002   C.ar      1 RES1   0.0000
    11 C4       -1.5261   -3.8705    3.5196   C.ar      1 RES1   0.0000
    12 C5       -2.6982   -3.1275    3.3547   C.ar      1 RES1   0.0000
    13 C6       -3.7209   -3.2179    4.2844   C.ar      1 RES1   0.0000
    14 C7       -3.6164   -4.0817    5.3588   C.ar      1 RES1   0.0000
    15 O6       -4.5994   -4.2462    6.2807   O.3       1 RES1   0.0000
    16 C8       -2.4556   -4.8662    5.5190   C.ar      1 RES1   0.0000
    17 O7       -2.3401   -5.7385    6.5330   O.3       1 RES1   0.0000
    18 C9       -1.4218   -4.7354    4.6106   C.ar      1 RES1   0.0000
    19 O8        0.3917   -4.9021    2.6399   O.2       1 RES1   0.0000
    20 C10       1.5112   -4.9902    1.8975   C.ar      1 RES1   0.0000
    21 C11       2.2994   -6.1150    2.0718   C.ar      1 RES1   0.0000
    22 C12       3.4479   -6.2745    1.3067   C.ar      1 RES1   0.0000
    23 O9        4.2378   -7.3435    1.4316   O.3       1 RES1   0.0000
    24 C13       3.8202   -5.3052    0.3663   C.ar      1 RES1   0.0000
    25 C14       3.0506   -4.1722    0.1983   C.ar      1 RES1   0.0000
    26 O10       3.3316   -3.1997   -0.6672   O.3       1 RES1   0.0000
    27 C15       1.8785   -3.9913    0.9822   C.ar      1 RES1   0.0000
    28 H1       -1.3540   -1.4729    2.4828   H         1 RES1   0.0000
    29 H2       -2.8793   -2.5396    2.4701   H         1 RES1   0.0000
    30 H3       -4.6157   -2.6211    4.1675   H         1 RES1   0.0000
    31 H4       -5.3673   -3.6928    6.0882   H         1 RES1   0.0000
    32 H5       -3.1535   -5.7110    7.0571   H         1 RES1   0.0000
    33 H6       -0.5342   -5.3243    4.7565   H         1 RES1   0.0000
    34 H7        2.0141   -6.8429    2.8130   H         1 RES1   0.0000
    35 H8        3.8879   -7.9565    2.0917   H         1 RES1   0.0000
    36 H9        4.7236   -5.4745   -0.2017   H         1 RES1   0.0000
    37 H10       4.1290   -3.3851   -1.1770   H         1 RES1   0.0000
    38 N2        0.5269   -0.9983   -2.3547   N.3       1 RES1   0.0000
    39 O11       0.7745   -1.4848   -3.4139   O.2       1 RES1   0.0000
    40 O12      -0.4700   -1.3627   -1.7004   O.co2     1 RES1   0.0000
    41 O13       1.2306   -0.0885   -1.8893   O.co2     1 RES1   0.0000
    42 O14      -0.9667    1.4386   -1.4676   O.2       1 RES1   0.0000
    43 C16      -0.4292    2.5262   -1.7686   C.ar      1 RES1   0.0000
    44 C17       0.7362    3.0068   -1.0475   C.ar      1 RES1   0.0000
    45 O15       1.2828    2.1217   -0.1515   O.3       1 RES1   0.0000
    46 C18       1.1800    4.2883   -1.1860   C.ar      1 RES1   0.0000
    47 C19       2.2747    4.8016   -0.3573   C.ar      1 RES1   0.0000
    48 C20       3.4590    4.0737   -0.2514   C.ar      1 RES1   0.0000
    49 C21       4.4803    4.5308    0.5636   C.ar      1 RES1   0.0000
    50 C22       4.3131    5.6997    1.2831   C.ar      1 RES1   0.0000
    51 O16       5.2802    6.2283    2.0787   O.3       1 RES1   0.0000
    52 C23       3.0989    6.4147    1.2178   C.ar      1 RES1   0.0000
    53 O17       2.9163    7.5319    1.9395   O.3       1 RES1   0.0000
    54 C24       2.0897    5.9612    0.3878   C.ar      1 RES1   0.0000
    55 O18       0.6125    5.1504   -2.0382   O.2       1 RES1   0.0000
    56 C25      -0.3575    4.7229   -2.8691   C.ar      1 RES1   0.0000
    57 C26      -0.8067    5.6399   -3.8069   C.ar      1 RES1   0.0000
    58 C27      -1.7921    5.2766   -4.7110   C.ar      1 RES1   0.0000
    59 O19      -2.2578    6.1163   -5.6382   O.3       1 RES1   0.0000
    60 C28      -2.3389    3.9882   -4.6697   C.ar      1 RES1   0.0000
    61 C29      -1.9150    3.0756   -3.7240   C.ar      1 RES1   0.0000
    62 O20      -2.4123    1.8390   -3.6316   O.3       1 RES1   0.0000
    63 C30      -0.9007    3.4279   -2.7920   C.ar      1 RES1   0.0000
    64 H11       2.0331    2.5469    0.3087   H         1 RES1   0.0000
    65 H12       3.6212    3.1974   -0.8593   H         1 RES1   0.0000
    66 H13       5.4111    3.9841    0.6260   H         1 RES1   0.0000
    67 H14       6.1020    5.7250    2.0258   H         1 RES1   0.0000
    68 H15       3.7218    7.7016    2.4486   H         1 RES1   0.0000
    69 H16       1.1632    6.5069    0.3422   H         1 RES1   0.0000
    70 H17      -0.3677    6.6221   -3.8090   H         1 RES1   0.0000
    71 H18      -1.8087    6.9712   -5.5927   H         1 RES1   0.0000
    72 H19      -3.1058    3.7511   -5.3904   H         1 RES1   0.0000
    73 H20      -3.0433    1.6700   -4.3421   H         1 RES1   0.0000
    74 O21      -2.5772   -0.3633    0.2083   O.3       1 RES1   0.0000
    75 H21      -2.9769    0.5181    0.2368   H         1 RES1   0.0000
    76 H22      -3.1074   -0.8738   -0.4220   H         1 RES1   0.0000
@<TRIPOS>BOND
     1     1     4    1
     2     1     5    1
     3     1     6    1
     4     1     9    1
     5     1    40    1
     6     1    41    1
     7     1    42    1
     8     1    45    1
     9     1    74    1
    10     2     3    2
    11     2     4    1
    12     2     5    1
    13     6     7    2
    14     7     8    1
    15     7    27    1
    16     8     9    1
    17     8    10    2
    18     9    28    1
    19    10    11    1
    20    10    19    1
    21    11    12    1
    22    11    18    2
    23    12    13    2
    24    12    29    1
    25    13    14    1
    26    13    30    1
    27    14    15    1
    28    14    16    2
    29    15    31    1
    30    16    17    1
    31    16    18    1
    32    17    32    1
    33    18    33    1
    34    19    20    1
    35    20    21    1
    36    20    27    2
    37    21    22    2
    38    21    34    1
    39    22    23    1
    40    22    24    1
    41    23    35    1
    42    24    25    2
    43    24    36    1
    44    25    26    1
    45    25    27    1
    46    26    37    1
    47    38    39    2
    48    38    40    1
    49    38    41    1
    50    42    43    2
    51    43    44    1
    52    43    63    1
    53    44    45    1
    54    44    46    2
    55    45    64    1
    56    46    47    1
    57    46    55    1
    58    47    48    1
    59    47    54    2
    60    48    49    2
    61    48    65    1
    62    49    50    1
    63    49    66    1
    64    50    51    1
    65    50    52    2
    66    51    67    1
    67    52    53    1
    68    52    54    1
    69    53    68    1
    70    54    69    1
    71    55    56    1
    72    56    57    1
    73    56    63    2
    74    57    58    2
    75    57    70    1
    76    58    59    1
    77    58    60    1
    78    59    71    1
    79    60    61    2
    80    60    72    1
    81    61    62    1
    82    61    63    1
    83    62    73    1
    84    74    75    1
    85    74    76    1
@<TRIPOS>SUBSTRUCTURE
     1 RES1       76 GROUP             0 ****  ****    0  
