@<TRIPOS>MOLECULE
capped_square_antiprismatic_0_nunpairedes_0_charge_3 Charge: 3 Unpaired_Electrons: 6 XTB_Unpaired_Electrons: 0 XTB_Charge: 3
   256   259     1     0     0
SMALL
NoCharges
****
Generated from Architector

@<TRIPOS>ATOM
     1 Eu1      -0.1188   -0.0283   -0.1264   Eu        1 RES1   0.0000
     2 C1        1.1394    1.9765    8.3901   C.3       1 RES1   0.0000
     3 C2        2.2877    2.9187    8.0349   C.3       1 RES1   0.0000
     4 C3        2.4429    3.1613    6.5296   C.3       1 RES1   0.0000
     5 C4        3.0286    1.9560    5.7994   C.3       1 RES1   0.0000
     6 O1        2.8405    2.0545    4.3669   O.3       1 RES1   0.0000
     7 P1        1.7651    1.1728    3.6090   P.3       1 RES1   0.0000
     8 S1        1.8160    1.5607    1.6869   S.3       1 RES1   0.0000
     9 C5        0.1982    1.5408    4.5140   C.3       1 RES1   0.0000
    10 P2       -1.4008    0.9722    3.7919   P.3       1 RES1   0.0000
    11 S2       -1.7624    1.4238    1.9213   S.3       1 RES1   0.0000
    12 O2       -1.4814   -0.6023    3.9805   O.3       1 RES1   0.0000
    13 C6       -1.2010   -1.3685    5.1635   C.3       1 RES1   0.0000
    14 C7       -2.4876   -1.8979    5.7871   C.3       1 RES1   0.0000
    15 C8       -2.2533   -2.4322    7.2010   C.3       1 RES1   0.0000
    16 C9       -1.2599   -3.5911    7.2444   C.3       1 RES1   0.0000
    17 O3       -2.5080    1.6503    4.6949   O.3       1 RES1   0.0000
    18 C10      -2.4221    2.1897    6.0394   C.3       1 RES1   0.0000
    19 C11      -3.6615    1.8469    6.8568   C.3       1 RES1   0.0000
    20 C12      -4.9053    2.6366    6.4422   C.3       1 RES1   0.0000
    21 C13      -5.6682    1.9496    5.3163   C.3       1 RES1   0.0000
    22 O4        2.0280   -0.3387    4.1067   O.3       1 RES1   0.0000
    23 C14       3.3354   -0.9382    3.8834   C.3       1 RES1   0.0000
    24 C15       3.6456   -1.8886    5.0298   C.3       1 RES1   0.0000
    25 C16       2.7906   -3.1539    5.0086   C.3       1 RES1   0.0000
    26 C17       3.2147   -4.1018    6.1259   C.3       1 RES1   0.0000
    27 H1        1.0281    1.9304    9.4711   H         1 RES1   0.0000
    28 H2        1.3209    0.9624    8.0336   H         1 RES1   0.0000
    29 H3        0.1976    2.3423    7.9781   H         1 RES1   0.0000
    30 H4        3.2182    2.5229    8.4407   H         1 RES1   0.0000
    31 H5        2.1060    3.8790    8.5157   H         1 RES1   0.0000
    32 H6        3.0933    4.0190    6.3648   H         1 RES1   0.0000
    33 H7        1.4700    3.4093    6.1015   H         1 RES1   0.0000
    34 H8        2.5776    1.0270    6.1582   H         1 RES1   0.0000
    35 H9        4.1067    1.9032    5.9573   H         1 RES1   0.0000
    36 H10       0.1384    2.6321    4.5178   H         1 RES1   0.0000
    37 H11       0.2996    1.1808    5.5362   H         1 RES1   0.0000
    38 H12      -0.6459   -0.7637    5.8881   H         1 RES1   0.0000
    39 H13      -0.5595   -2.1923    4.8385   H         1 RES1   0.0000
    40 H14      -2.8952   -2.6785    5.1505   H         1 RES1   0.0000
    41 H15      -3.2157   -1.0873    5.8114   H         1 RES1   0.0000
    42 H16      -3.2027   -2.7768    7.6067   H         1 RES1   0.0000
    43 H17      -1.8916   -1.6182    7.8345   H         1 RES1   0.0000
    44 H18      -1.5957   -4.4130    6.6132   H         1 RES1   0.0000
    45 H19      -1.1750   -3.9774    8.2560   H         1 RES1   0.0000
    46 H20      -0.2687   -3.2779    6.9209   H         1 RES1   0.0000
    47 H21      -2.3288    3.2780    5.9512   H         1 RES1   0.0000
    48 H22      -1.5374    1.7835    6.5362   H         1 RES1   0.0000
    49 H23      -3.4216    2.0667    7.8965   H         1 RES1   0.0000
    50 H24      -3.8675    0.7773    6.7888   H         1 RES1   0.0000
    51 H25      -4.6050    3.6387    6.1295   H         1 RES1   0.0000
    52 H26      -5.5654    2.7492    7.3035   H         1 RES1   0.0000
    53 H27      -5.0339    1.8315    4.4392   H         1 RES1   0.0000
    54 H28      -6.5492    2.5319    5.0517   H         1 RES1   0.0000
    55 H29      -6.0046    0.9653    5.6349   H         1 RES1   0.0000
    56 H30       4.0882   -0.1523    3.8175   H         1 RES1   0.0000
    57 H31       3.3094   -1.4659    2.9229   H         1 RES1   0.0000
    58 H32       3.5039   -1.3608    5.9733   H         1 RES1   0.0000
    59 H33       4.6956   -2.1711    4.9660   H         1 RES1   0.0000
    60 H34       2.9118   -3.6456    4.0399   H         1 RES1   0.0000
    61 H35       1.7399   -2.8793    5.1359   H         1 RES1   0.0000
    62 H36       4.2572   -4.3889    6.0064   H         1 RES1   0.0000
    63 H37       2.6176   -5.0107    6.1133   H         1 RES1   0.0000
    64 H38       3.1042   -3.6264    7.0988   H         1 RES1   0.0000
    65 C18       2.4597    0.0118   -8.2695   C.3       1 RES1   0.0000
    66 C19       3.9161    0.3294   -7.9435   C.3       1 RES1   0.0000
    67 C20       4.2287    0.3373   -6.4436   C.3       1 RES1   0.0000
    68 C21       3.6777    1.5631   -5.7176   C.3       1 RES1   0.0000
    69 O5        3.5542    1.3215   -4.2956   O.3       1 RES1   0.0000
    70 P3        2.1447    1.0044   -3.6480   P.3       1 RES1   0.0000
    71 S3        2.3622    0.6531   -1.7312   S.3       1 RES1   0.0000
    72 C22       1.4579   -0.3878   -4.6342   C.3       1 RES1   0.0000
    73 P4       -0.1615   -0.9632   -3.9770   P.3       1 RES1   0.0000
    74 S4       -0.0151   -1.9703   -2.2874   S.3       1 RES1   0.0000
    75 O6       -1.0889    0.2904   -3.8334   O.3       1 RES1   0.0000
    76 C23      -1.7552    0.9141   -4.9620   C.3       1 RES1   0.0000
    77 C24      -3.1736    0.3846   -5.1372   C.3       1 RES1   0.0000
    78 C25      -3.7471    0.7121   -6.5170   C.3       1 RES1   0.0000
    79 C26      -3.8921    2.2094   -6.7766   C.3       1 RES1   0.0000
    80 O7       -0.8013   -1.7814   -5.1668   O.3       1 RES1   0.0000
    81 C27      -0.1257   -2.7214   -6.0304   C.3       1 RES1   0.0000
    82 C28      -1.1660   -3.5092   -6.8251   C.3       1 RES1   0.0000
    83 C29      -1.5955   -4.8021   -6.1330   C.3       1 RES1   0.0000
    84 C30      -2.5950   -4.5442   -5.0143   C.3       1 RES1   0.0000
    85 O8        1.1755    2.1883   -4.0980   O.3       1 RES1   0.0000
    86 C31       1.5911    3.5482   -3.8043   C.3       1 RES1   0.0000
    87 C32       1.0127    4.4879   -4.8493   C.3       1 RES1   0.0000
    88 C33      -0.4522    4.8301   -4.5885   C.3       1 RES1   0.0000
    89 C34      -1.0045    5.7731   -5.6530   C.3       1 RES1   0.0000
    90 H39       2.3361   -0.0492   -9.3482   H         1 RES1   0.0000
    91 H40       1.7811    0.7825   -7.9019   H         1 RES1   0.0000
    92 H41       2.1736   -0.9516   -7.8455   H         1 RES1   0.0000
    93 H42       4.1784    1.2933   -8.3758   H         1 RES1   0.0000
    94 H43       4.5474   -0.4229   -8.4178   H         1 RES1   0.0000
    95 H44       5.3065    0.3028   -6.3004   H         1 RES1   0.0000
    96 H45       3.8236   -0.5655   -5.9835   H         1 RES1   0.0000
    97 H46       2.7033    1.8515   -6.1249   H         1 RES1   0.0000
    98 H47       4.3618    2.4052   -5.8191   H         1 RES1   0.0000
    99 H48       2.1836   -1.1969   -4.5465   H         1 RES1   0.0000
   100 H49       1.3490   -0.0841   -5.6744   H         1 RES1   0.0000
   101 H50      -1.1801    0.7372   -5.8761   H         1 RES1   0.0000
   102 H51      -1.7486    1.9789   -4.7378   H         1 RES1   0.0000
   103 H52      -3.8123    0.7882   -4.3559   H         1 RES1   0.0000
   104 H53      -3.1488   -0.6973   -5.0078   H         1 RES1   0.0000
   105 H54      -4.7301    0.2466   -6.6039   H         1 RES1   0.0000
   106 H55      -3.1024    0.2765   -7.2831   H         1 RES1   0.0000
   107 H56      -4.4995    2.6827   -6.0062   H         1 RES1   0.0000
   108 H57      -4.3874    2.3781   -7.7304   H         1 RES1   0.0000
   109 H58      -2.9233    2.7040   -6.8117   H         1 RES1   0.0000
   110 H59       0.5007   -3.3916   -5.4288   H         1 RES1   0.0000
   111 H60       0.5115   -2.1477   -6.7063   H         1 RES1   0.0000
   112 H61      -0.7584   -3.7439   -7.8072   H         1 RES1   0.0000
   113 H62      -2.0339   -2.8673   -6.9814   H         1 RES1   0.0000
   114 H63      -0.7149   -5.3126   -5.7363   H         1 RES1   0.0000
   115 H64      -2.0464   -5.4721   -6.8671   H         1 RES1   0.0000
   116 H65      -2.1729   -3.9033   -4.2415   H         1 RES1   0.0000
   117 H66      -2.8985   -5.4896   -4.5682   H         1 RES1   0.0000
   118 H67      -3.4857   -4.0611   -5.4080   H         1 RES1   0.0000
   119 H68       2.6823    3.5815   -3.8006   H         1 RES1   0.0000
   120 H69       1.2363    3.8045   -2.8019   H         1 RES1   0.0000
   121 H70       1.1226    4.0262   -5.8318   H         1 RES1   0.0000
   122 H71       1.6008    5.4053   -4.8471   H         1 RES1   0.0000
   123 H72      -0.5311    5.3018   -3.6069   H         1 RES1   0.0000
   124 H73      -1.0365    3.9049   -4.5709   H         1 RES1   0.0000
   125 H74      -0.4446    6.7061   -5.6729   H         1 RES1   0.0000
   126 H75      -2.0446    6.0142   -5.4448   H         1 RES1   0.0000
   127 H76      -0.9481    5.3229   -6.6431   H         1 RES1   0.0000
   128 C35      -5.1123    7.0312   -1.2739   C.3       1 RES1   0.0000
   129 C36      -3.9842    7.7884   -1.9719   C.3       1 RES1   0.0000
   130 C37      -2.7600    6.9217   -2.2852   C.3       1 RES1   0.0000
   131 C38      -1.9640    6.5661   -1.0337   C.3       1 RES1   0.0000
   132 O9       -1.1040    5.4224   -1.2571   O.3       1 RES1   0.0000
   133 P5       -1.4863    4.0177   -0.6190   P.3       1 RES1   0.0000
   134 S5       -0.0516    2.7361   -1.0062   S.3       1 RES1   0.0000
   135 C39      -3.0890    3.5977   -1.3948   C.3       1 RES1   0.0000
   136 P6       -3.8327    1.9250   -1.0823   P.3       1 RES1   0.0000
   137 S6       -2.7415    0.3237   -1.3558   S.3       1 RES1   0.0000
   138 O10      -4.5698    1.9742    0.3033   O.3       1 RES1   0.0000
   139 C40      -4.7599    3.0426    1.2488   C.3       1 RES1   0.0000
   140 C41      -6.2240    3.0815    1.6802   C.3       1 RES1   0.0000
   141 C42      -6.6699    4.4953    2.0635   C.3       1 RES1   0.0000
   142 C43      -5.7972    5.1486    3.1316   C.3       1 RES1   0.0000
   143 O11      -4.9217    1.8372   -2.2235   O.3       1 RES1   0.0000
   144 C44      -6.1074    2.6524   -2.3253   C.3       1 RES1   0.0000
   145 C45      -7.3641    1.8731   -1.9648   C.3       1 RES1   0.0000
   146 C46      -7.7408    0.8034   -2.9948   C.3       1 RES1   0.0000
   147 C47      -6.9926   -0.5073   -2.7793   C.3       1 RES1   0.0000
   148 O12      -1.7863    4.3361    0.9136   O.3       1 RES1   0.0000
   149 C48      -0.6205    4.7773    1.6602   C.3       1 RES1   0.0000
   150 C49      -1.0008    5.8353    2.6866   C.3       1 RES1   0.0000
   151 C50      -1.5947    5.2599    3.9705   C.3       1 RES1   0.0000
   152 C51      -1.9428    6.3647    4.9639   C.3       1 RES1   0.0000
   153 H77      -5.9799    7.6806   -1.1832   H         1 RES1   0.0000
   154 H78      -4.8305    6.7170   -0.2685   H         1 RES1   0.0000
   155 H79      -5.4109    6.1578   -1.8561   H         1 RES1   0.0000
   156 H80      -3.6826    8.6356   -1.3563   H         1 RES1   0.0000
   157 H81      -4.3634    8.1870   -2.9125   H         1 RES1   0.0000
   158 H82      -2.1074    7.4522   -2.9771   H         1 RES1   0.0000
   159 H83      -3.0828    6.0048   -2.7827   H         1 RES1   0.0000
   160 H84      -2.6336    6.3515   -0.1977   H         1 RES1   0.0000
   161 H85      -1.3030    7.3851   -0.7484   H         1 RES1   0.0000
   162 H86      -2.8309    3.5840   -2.4586   H         1 RES1   0.0000
   163 H87      -3.8272    4.3806   -1.2174   H         1 RES1   0.0000
   164 H88      -4.4781    3.9972    0.7960   H         1 RES1   0.0000
   165 H89      -4.0827    2.8435    2.0831   H         1 RES1   0.0000
   166 H90      -6.3730    2.3951    2.5112   H         1 RES1   0.0000
   167 H91      -6.8446    2.7329    0.8528   H         1 RES1   0.0000
   168 H92      -7.6944    4.4524    2.4329   H         1 RES1   0.0000
   169 H93      -6.6627    5.1152    1.1626   H         1 RES1   0.0000
   170 H94      -5.7569    4.5392    4.0307   H         1 RES1   0.0000
   171 H95      -6.2123    6.1154    3.4117   H         1 RES1   0.0000
   172 H96      -4.7813    5.3055    2.7733   H         1 RES1   0.0000
   173 H97      -6.1584    2.9793   -3.3686   H         1 RES1   0.0000
   174 H98      -6.0056    3.5288   -1.6764   H         1 RES1   0.0000
   175 H99      -8.1735    2.5987   -1.8766   H         1 RES1   0.0000
   176 H100     -7.2253    1.3997   -0.9895   H         1 RES1   0.0000
   177 H101     -7.5417    1.1800   -3.9987   H         1 RES1   0.0000
   178 H102     -8.8136    0.6163   -2.9269   H         1 RES1   0.0000
   179 H103     -5.9186   -0.3708   -2.8868   H         1 RES1   0.0000
   180 H104     -7.3234   -1.2509   -3.5009   H         1 RES1   0.0000
   181 H105     -7.1885   -0.8933   -1.7811   H         1 RES1   0.0000
   182 H106      0.1133    5.1843    0.9597   H         1 RES1   0.0000
   183 H107     -0.1847    3.8859    2.1257   H         1 RES1   0.0000
   184 H108     -1.7096    6.5239    2.2246   H         1 RES1   0.0000
   185 H109     -0.1064    6.4098    2.9344   H         1 RES1   0.0000
   186 H110     -0.8536    4.5920    4.4251   H         1 RES1   0.0000
   187 H111     -2.4839    4.6765    3.7218   H         1 RES1   0.0000
   188 H112     -1.0545    6.9244    5.2498   H         1 RES1   0.0000
   189 H113     -2.3718    5.9441    5.8693   H         1 RES1   0.0000
   190 H114     -2.6612    7.0612    4.5379   H         1 RES1   0.0000
   191 C52       0.9777   -8.3109    2.1637   C.3       1 RES1   0.0000
   192 C53       2.2731   -7.9013    2.8586   C.3       1 RES1   0.0000
   193 C54       2.5471   -6.3959    2.8072   C.3       1 RES1   0.0000
   194 C55       2.9721   -5.9250    1.4202   C.3       1 RES1   0.0000
   195 O13       2.8987   -4.4858    1.3258   O.3       1 RES1   0.0000
   196 P7        1.8102   -3.7583    0.4161   P.3       1 RES1   0.0000
   197 S7        2.3509   -1.8650    0.3604   S.3       1 RES1   0.0000
   198 C56       0.2317   -4.3914    1.1665   C.3       1 RES1   0.0000
   199 P8       -1.4893   -3.9269    0.5738   P.3       1 RES1   0.0000
   200 S8       -2.1554   -2.1475    1.0802   S.3       1 RES1   0.0000
   201 O14      -1.5977   -4.1286   -0.9676   O.3       1 RES1   0.0000
   202 C57      -1.2663   -5.3679   -1.6276   C.3       1 RES1   0.0000
   203 C58      -2.4018   -6.3890   -1.6227   C.3       1 RES1   0.0000
   204 C59      -1.8618   -7.8118   -1.7808   C.3       1 RES1   0.0000
   205 C60      -1.0138   -7.9920   -3.0363   C.3       1 RES1   0.0000
   206 O15      -2.3685   -5.1181    1.1416   O.3       1 RES1   0.0000
   207 C61      -2.3500   -5.7600    2.4253   C.3       1 RES1   0.0000
   208 C62      -3.7418   -6.2810    2.7761   C.3       1 RES1   0.0000
   209 C63      -4.5300   -5.3594    3.7087   C.3       1 RES1   0.0000
   210 C64      -5.0907   -4.1374    2.9902   C.3       1 RES1   0.0000
   211 O16       1.8688   -4.4722   -1.0021   O.3       1 RES1   0.0000
   212 C65       3.0448   -4.1128   -1.7781   C.3       1 RES1   0.0000
   213 C66       3.2934   -5.1558   -2.8517   C.3       1 RES1   0.0000
   214 C67       2.4189   -4.9814   -4.0906   C.3       1 RES1   0.0000
   215 C68       2.9049   -5.8790   -5.2231   C.3       1 RES1   0.0000
   216 H115      0.8008   -9.3720    2.3215   H         1 RES1   0.0000
   217 H116      1.0189   -8.1386    1.0889   H         1 RES1   0.0000
   218 H117      0.1293   -7.7663    2.5809   H         1 RES1   0.0000
   219 H118      3.1096   -8.4341    2.4085   H         1 RES1   0.0000
   220 H119      2.2168   -8.2012    3.9047   H         1 RES1   0.0000
   221 H120      3.3369   -6.1457    3.5127   H         1 RES1   0.0000
   222 H121      1.6495   -5.8552    3.1180   H         1 RES1   0.0000
   223 H122      2.3526   -6.3750    0.6387   H         1 RES1   0.0000
   224 H123      4.0124   -6.1899    1.2297   H         1 RES1   0.0000
   225 H124      0.3129   -4.1057    2.2209   H         1 RES1   0.0000
   226 H125      0.2923   -5.4837    1.1234   H         1 RES1   0.0000
   227 H126     -0.3760   -5.7843   -1.1492   H         1 RES1   0.0000
   228 H127     -1.0136   -5.0699   -2.6438   H         1 RES1   0.0000
   229 H128     -3.1030   -6.1651   -2.4237   H         1 RES1   0.0000
   230 H129     -2.9519   -6.3206   -0.6858   H         1 RES1   0.0000
   231 H130     -2.7034   -8.5037   -1.8239   H         1 RES1   0.0000
   232 H131     -1.2671   -8.0627   -0.8981   H         1 RES1   0.0000
   233 H132     -1.5630   -7.6848   -3.9244   H         1 RES1   0.0000
   234 H133     -0.7487   -9.0382   -3.1627   H         1 RES1   0.0000
   235 H134     -0.0930   -7.4154   -2.9769   H         1 RES1   0.0000
   236 H135     -1.9841   -5.0564    3.1838   H         1 RES1   0.0000
   237 H136     -1.6516   -6.5966    2.3408   H         1 RES1   0.0000
   238 H137     -3.6391   -7.2587    3.2487   H         1 RES1   0.0000
   239 H138     -4.3001   -6.4264    1.8480   H         1 RES1   0.0000
   240 H139     -3.8861   -5.0469    4.5356   H         1 RES1   0.0000
   241 H140     -5.3564   -5.9280    4.1415   H         1 RES1   0.0000
   242 H141     -4.2971   -3.5021    2.5951   H         1 RES1   0.0000
   243 H142     -5.6979   -3.5493    3.6752   H         1 RES1   0.0000
   244 H143     -5.7239   -4.4497    2.1624   H         1 RES1   0.0000
   245 H144      3.9052   -4.0532   -1.1048   H         1 RES1   0.0000
   246 H145      2.8736   -3.1156   -2.1973   H         1 RES1   0.0000
   247 H146      3.1270   -6.1404   -2.4113   H         1 RES1   0.0000
   248 H147      4.3425   -5.1019   -3.1443   H         1 RES1   0.0000
   249 H148      2.4706   -3.9343   -4.4085   H         1 RES1   0.0000
   250 H149      1.3827   -5.2130   -3.8349   H         1 RES1   0.0000
   251 H150      3.9202   -5.6133   -5.5107   H         1 RES1   0.0000
   252 H151      2.2715   -5.7684   -6.0984   H         1 RES1   0.0000
   253 H152      2.9008   -6.9225   -4.9161   H         1 RES1   0.0000
   254 O17       0.3006   -1.1093    2.1803   O.3       1 RES1   0.0000
   255 H153      1.1165   -1.4684    2.5674   H         1 RES1   0.0000
   256 H154     -0.4787   -1.5796    2.5389   H         1 RES1   0.0000
@<TRIPOS>BOND
     1     1     8    1
     2     1    11    1
     3     1    71    1
     4     1    74    1
     5     1   134    1
     6     1   137    1
     7     1   197    1
     8     1   200    1
     9     1   254    1
    10     2     3    1
    11     2    27    1
    12     2    28    1
    13     2    29    1
    14     3     4    1
    15     3    30    1
    16     3    31    1
    17     4     5    1
    18     4    32    1
    19     4    33    1
    20     5     6    1
    21     5    34    1
    22     5    35    1
    23     6     7    1
    24     7     8    2
    25     7     9    1
    26     7    22    1
    27     9    10    1
    28     9    36    1
    29     9    37    1
    30    10    11    2
    31    10    12    1
    32    10    17    1
    33    12    13    1
    34    13    14    1
    35    13    38    1
    36    13    39    1
    37    14    15    1
    38    14    40    1
    39    14    41    1
    40    15    16    1
    41    15    42    1
    42    15    43    1
    43    16    44    1
    44    16    45    1
    45    16    46    1
    46    17    18    1
    47    18    19    1
    48    18    47    1
    49    18    48    1
    50    19    20    1
    51    19    49    1
    52    19    50    1
    53    20    21    1
    54    20    51    1
    55    20    52    1
    56    21    53    1
    57    21    54    1
    58    21    55    1
    59    22    23    1
    60    23    24    1
    61    23    56    1
    62    23    57    1
    63    24    25    1
    64    24    58    1
    65    24    59    1
    66    25    26    1
    67    25    60    1
    68    25    61    1
    69    26    62    1
    70    26    63    1
    71    26    64    1
    72    65    66    1
    73    65    90    1
    74    65    91    1
    75    65    92    1
    76    66    67    1
    77    66    93    1
    78    66    94    1
    79    67    68    1
    80    67    95    1
    81    67    96    1
    82    68    69    1
    83    68    97    1
    84    68    98    1
    85    69    70    1
    86    70    71    2
    87    70    72    1
    88    70    85    1
    89    72    73    1
    90    72    99    1
    91    72   100    1
    92    73    74    2
    93    73    75    1
    94    73    80    1
    95    75    76    1
    96    76    77    1
    97    76   101    1
    98    76   102    1
    99    77    78    1
   100    77   103    1
   101    77   104    1
   102    78    79    1
   103    78   105    1
   104    78   106    1
   105    79   107    1
   106    79   108    1
   107    79   109    1
   108    80    81    1
   109    81    82    1
   110    81   110    1
   111    81   111    1
   112    82    83    1
   113    82   112    1
   114    82   113    1
   115    83    84    1
   116    83   114    1
   117    83   115    1
   118    84   116    1
   119    84   117    1
   120    84   118    1
   121    85    86    1
   122    86    87    1
   123    86   119    1
   124    86   120    1
   125    87    88    1
   126    87   121    1
   127    87   122    1
   128    88    89    1
   129    88   123    1
   130    88   124    1
   131    89   125    1
   132    89   126    1
   133    89   127    1
   134   128   129    1
   135   128   153    1
   136   128   154    1
   137   128   155    1
   138   129   130    1
   139   129   156    1
   140   129   157    1
   141   130   131    1
   142   130   158    1
   143   130   159    1
   144   131   132    1
   145   131   160    1
   146   131   161    1
   147   132   133    1
   148   133   134    2
   149   133   135    1
   150   133   148    1
   151   135   136    1
   152   135   162    1
   153   135   163    1
   154   136   137    2
   155   136   138    1
   156   136   143    1
   157   138   139    1
   158   139   140    1
   159   139   164    1
   160   139   165    1
   161   140   141    1
   162   140   166    1
   163   140   167    1
   164   141   142    1
   165   141   168    1
   166   141   169    1
   167   142   170    1
   168   142   171    1
   169   142   172    1
   170   143   144    1
   171   144   145    1
   172   144   173    1
   173   144   174    1
   174   145   146    1
   175   145   175    1
   176   145   176    1
   177   146   147    1
   178   146   177    1
   179   146   178    1
   180   147   179    1
   181   147   180    1
   182   147   181    1
   183   148   149    1
   184   149   150    1
   185   149   182    1
   186   149   183    1
   187   150   151    1
   188   150   184    1
   189   150   185    1
   190   151   152    1
   191   151   186    1
   192   151   187    1
   193   152   188    1
   194   152   189    1
   195   152   190    1
   196   191   192    1
   197   191   216    1
   198   191   217    1
   199   191   218    1
   200   192   193    1
   201   192   219    1
   202   192   220    1
   203   193   194    1
   204   193   221    1
   205   193   222    1
   206   194   195    1
   207   194   223    1
   208   194   224    1
   209   195   196    1
   210   196   197    2
   211   196   198    1
   212   196   211    1
   213   198   199    1
   214   198   225    1
   215   198   226    1
   216   199   200    2
   217   199   201    1
   218   199   206    1
   219   201   202    1
   220   202   203    1
   221   202   227    1
   222   202   228    1
   223   203   204    1
   224   203   229    1
   225   203   230    1
   226   204   205    1
   227   204   231    1
   228   204   232    1
   229   205   233    1
   230   205   234    1
   231   205   235    1
   232   206   207    1
   233   207   208    1
   234   207   236    1
   235   207   237    1
   236   208   209    1
   237   208   238    1
   238   208   239    1
   239   209   210    1
   240   209   240    1
   241   209   241    1
   242   210   242    1
   243   210   243    1
   244   210   244    1
   245   211   212    1
   246   212   213    1
   247   212   245    1
   248   212   246    1
   249   213   214    1
   250   213   247    1
   251   213   248    1
   252   214   215    1
   253   214   249    1
   254   214   250    1
   255   215   251    1
   256   215   252    1
   257   215   253    1
   258   254   255    1
   259   254   256    1
@<TRIPOS>SUBSTRUCTURE
     1 RES1      256 GROUP             0 ****  ****    0  
