@<TRIPOS>MOLECULE
cn9_YICLED_0_nunpairedes_0_charge_3 Charge: 3 Unpaired_Electrons: 1 XTB_Unpaired_Electrons: 0 XTB_Charge: 3
   394   399     1     0     0
SMALL
NoCharges
****
Generated from Architector

@<TRIPOS>ATOM
     1 Ce1      -0.0985    0.1754   -0.1712   Ce        1 RES1   0.0000
     2 C1       -3.6009    4.4765   -9.2197   C.3       1 RES1   0.0000
     3 C2       -3.8231    4.1055   -7.7593   C.3       1 RES1   0.0000
     4 C3       -5.2092    4.5521   -7.2899   C.3       1 RES1   0.0000
     5 C4       -5.4402    4.4327   -5.7744   C.3       1 RES1   0.0000
     6 C5       -6.2244    3.1908   -5.3395   C.3       1 RES1   0.0000
     7 C6       -5.5494    1.8384   -5.5741   C.3       1 RES1   0.0000
     8 C7       -4.3190    1.6706   -4.6836   C.3       1 RES1   0.0000
     9 C8       -3.6608    0.2837   -4.7945   C.3       1 RES1   0.0000
    10 N1       -2.4488    0.2653   -3.9883   N.am      1 RES1   0.0000
    11 C9       -1.3055    0.9542   -4.6204   C.3       1 RES1   0.0000
    12 C10      -0.5227   -0.1827   -5.2820   C.3       1 RES1   0.0000
    13 C11       0.8487    0.0987   -5.8852   C.3       1 RES1   0.0000
    14 C12       0.8547    0.7684   -7.2587   C.3       1 RES1   0.0000
    15 C13       2.0129    0.2196   -8.0950   C.3       1 RES1   0.0000
    16 C14       3.3905    0.5299   -7.5056   C.3       1 RES1   0.0000
    17 C15       4.4904   -0.2599   -8.2106   C.3       1 RES1   0.0000
    18 C16       5.8516   -0.0859   -7.5537   C.3       1 RES1   0.0000
    19 C17      -2.2141   -0.2470   -2.7733   C.2       1 RES1   0.0000
    20 O1       -1.4105    0.3387   -2.0141   O.2       1 RES1   0.0000
    21 C18      -2.5591   -1.6959   -2.3121   C.3       1 RES1   0.0000
    22 C19      -3.8847   -2.4100   -2.5927   C.3       1 RES1   0.0000
    23 C20      -5.1529   -1.8791   -1.9184   C.3       1 RES1   0.0000
    24 C21      -6.1068   -3.0277   -1.5636   C.3       1 RES1   0.0000
    25 O2       -2.1150   -1.6744   -0.9324   O.3       1 RES1   0.0000
    26 C22      -2.1672   -2.8196   -0.0666   C.3       1 RES1   0.0000
    27 C23      -0.7740   -3.4536    0.1697   C.3       1 RES1   0.0000
    28 C24      -0.4740   -4.7878   -0.5104   C.3       1 RES1   0.0000
    29 C25      -1.2719   -5.9594    0.0460   C.3       1 RES1   0.0000
    30 C26      -2.4758   -2.1955    1.3068   C.2       1 RES1   0.0000
    31 O3       -1.9724   -1.0733    1.5067   O.2       1 RES1   0.0000
    32 N2       -3.1902   -2.8603    2.2183   N.am      1 RES1   0.0000
    33 C27      -3.7189   -2.1543    3.3807   C.3       1 RES1   0.0000
    34 C28      -2.9984   -2.3120    4.7244   C.3       1 RES1   0.0000
    35 C29      -3.8517   -1.6342    5.8021   C.3       1 RES1   0.0000
    36 C30      -3.2947   -1.7740    7.2189   C.3       1 RES1   0.0000
    37 C31      -3.9399   -0.8039    8.2226   C.3       1 RES1   0.0000
    38 C32      -3.1833    0.5312    8.3583   C.3       1 RES1   0.0000
    39 C33      -3.8934    1.7541    7.7728   C.3       1 RES1   0.0000
    40 C34      -2.9911    2.9847    7.8214   C.3       1 RES1   0.0000
    41 C35      -3.3238   -4.3212    2.1313   C.3       1 RES1   0.0000
    42 C36      -4.3052   -5.0872    3.0276   C.3       1 RES1   0.0000
    43 C37      -5.6408   -5.4269    2.3607   C.3       1 RES1   0.0000
    44 C38      -6.6185   -4.2604    2.2559   C.3       1 RES1   0.0000
    45 C39      -7.2579   -3.9407    3.6065   C.3       1 RES1   0.0000
    46 C40      -8.0547   -2.6392    3.5599   C.3       1 RES1   0.0000
    47 C41      -8.7157   -2.2896    4.8943   C.3       1 RES1   0.0000
    48 C42      -7.7210   -1.8285    5.9526   C.3       1 RES1   0.0000
    49 H1       -2.6423    4.1070   -9.5728   H         1 RES1   0.0000
    50 H2       -3.6196    5.5555   -9.3431   H         1 RES1   0.0000
    51 H3       -4.3842    4.0496   -9.8399   H         1 RES1   0.0000
    52 H4       -3.0566    4.5848   -7.1411   H         1 RES1   0.0000
    53 H5       -3.7160    3.0241   -7.6435   H         1 RES1   0.0000
    54 H6       -5.9714    3.9763   -7.8179   H         1 RES1   0.0000
    55 H7       -5.3349    5.5959   -7.5858   H         1 RES1   0.0000
    56 H8       -6.0215    5.2976   -5.4471   H         1 RES1   0.0000
    57 H9       -4.4826    4.4876   -5.2499   H         1 RES1   0.0000
    58 H10      -7.1798    3.1987   -5.8620   H         1 RES1   0.0000
    59 H11      -6.4372    3.2830   -4.2721   H         1 RES1   0.0000
    60 H12      -5.2657    1.7361   -6.6205   H         1 RES1   0.0000
    61 H13      -6.2764    1.0541   -5.3599   H         1 RES1   0.0000
    62 H14      -4.5949    1.8462   -3.6412   H         1 RES1   0.0000
    63 H15      -3.5936    2.4328   -4.9663   H         1 RES1   0.0000
    64 H16      -3.3762    0.0975   -5.8331   H         1 RES1   0.0000
    65 H17      -4.3548   -0.4849   -4.4686   H         1 RES1   0.0000
    66 H18      -0.7004    1.4429   -3.8563   H         1 RES1   0.0000
    67 H19      -1.6526    1.6889   -5.3413   H         1 RES1   0.0000
    68 H20      -1.1510   -0.6478   -6.0459   H         1 RES1   0.0000
    69 H21      -0.3589   -0.9041   -4.4812   H         1 RES1   0.0000
    70 H22       1.3057   -0.8838   -6.0233   H         1 RES1   0.0000
    71 H23       1.4576    0.6584   -5.1783   H         1 RES1   0.0000
    72 H24       0.9344    1.8502   -7.1706   H         1 RES1   0.0000
    73 H25      -0.0795    0.5474   -7.7778   H         1 RES1   0.0000
    74 H26       1.9585    0.6114   -9.1112   H         1 RES1   0.0000
    75 H27       1.8933   -0.8659   -8.1597   H         1 RES1   0.0000
    76 H28       3.4098    0.2771   -6.4429   H         1 RES1   0.0000
    77 H29       3.5935    1.5989   -7.5945   H         1 RES1   0.0000
    78 H30       4.5453    0.0589   -9.2498   H         1 RES1   0.0000
    79 H31       4.2231   -1.3183   -8.2116   H         1 RES1   0.0000
    80 H32       6.1505    0.9577   -7.5651   H         1 RES1   0.0000
    81 H33       6.6001   -0.6607   -8.0891   H         1 RES1   0.0000
    82 H34       5.8292   -0.4287   -6.5211   H         1 RES1   0.0000
    83 H35      -1.8060   -2.2577   -2.8966   H         1 RES1   0.0000
    84 H36      -4.0061   -2.4604   -3.6757   H         1 RES1   0.0000
    85 H37      -3.7563   -3.4469   -2.2799   H         1 RES1   0.0000
    86 H38      -5.6788   -1.1951   -2.5843   H         1 RES1   0.0000
    87 H39      -4.8737   -1.3259   -1.0219   H         1 RES1   0.0000
    88 H40      -6.3120   -3.6316   -2.4460   H         1 RES1   0.0000
    89 H41      -7.0667   -2.6556   -1.2089   H         1 RES1   0.0000
    90 H42      -5.6773   -3.6693   -0.7933   H         1 RES1   0.0000
    91 H43      -2.9182   -3.5225   -0.4234   H         1 RES1   0.0000
    92 H44      -0.0390   -2.6850   -0.1241   H         1 RES1   0.0000
    93 H45      -0.6602   -3.6068    1.2465   H         1 RES1   0.0000
    94 H46       0.5892   -4.9769   -0.3628   H         1 RES1   0.0000
    95 H47      -0.6536   -4.7197   -1.5753   H         1 RES1   0.0000
    96 H48      -1.1571   -6.0250    1.1266   H         1 RES1   0.0000
    97 H49      -0.9178   -6.8917   -0.3868   H         1 RES1   0.0000
    98 H50      -2.3284   -5.8636   -0.1893   H         1 RES1   0.0000
    99 H51      -4.7447   -2.5019    3.5103   H         1 RES1   0.0000
   100 H52      -3.7440   -1.0976    3.1117   H         1 RES1   0.0000
   101 H53      -2.0103   -1.8526    4.6985   H         1 RES1   0.0000
   102 H54      -2.8566   -3.3635    4.9745   H         1 RES1   0.0000
   103 H55      -4.8504   -2.0663    5.7838   H         1 RES1   0.0000
   104 H56      -3.9516   -0.5786    5.5498   H         1 RES1   0.0000
   105 H57      -2.2170   -1.6038    7.2083   H         1 RES1   0.0000
   106 H58      -3.4472   -2.8001    7.5560   H         1 RES1   0.0000
   107 H59      -3.9713   -1.2929    9.1973   H         1 RES1   0.0000
   108 H60      -4.9767   -0.6186    7.9331   H         1 RES1   0.0000
   109 H61      -2.2067    0.4390    7.8771   H         1 RES1   0.0000
   110 H62      -3.0026    0.7311    9.4144   H         1 RES1   0.0000
   111 H63      -4.8024    1.9543    8.3431   H         1 RES1   0.0000
   112 H64      -4.1938    1.5583    6.7369   H         1 RES1   0.0000
   113 H65      -2.6841    3.1885    8.8432   H         1 RES1   0.0000
   114 H66      -3.5115    3.8641    7.4516   H         1 RES1   0.0000
   115 H67      -2.0925    2.8308    7.2245   H         1 RES1   0.0000
   116 H68      -2.3275   -4.7211    2.3362   H         1 RES1   0.0000
   117 H69      -3.5765   -4.5848    1.1059   H         1 RES1   0.0000
   118 H70      -4.4639   -4.5960    3.9831   H         1 RES1   0.0000
   119 H71      -3.8137   -6.0390    3.2402   H         1 RES1   0.0000
   120 H72      -6.1205   -6.2193    2.9381   H         1 RES1   0.0000
   121 H73      -5.4369   -5.8328    1.3675   H         1 RES1   0.0000
   122 H74      -7.4105   -4.5198    1.5508   H         1 RES1   0.0000
   123 H75      -6.1104   -3.3760    1.8612   H         1 RES1   0.0000
   124 H76      -6.4872   -3.8730    4.3764   H         1 RES1   0.0000
   125 H77      -7.9186   -4.7643    3.8823   H         1 RES1   0.0000
   126 H78      -8.8270   -2.7310    2.7930   H         1 RES1   0.0000
   127 H79      -7.3882   -1.8218    3.2636   H         1 RES1   0.0000
   128 H80      -9.2620   -3.1586    5.2628   H         1 RES1   0.0000
   129 H81      -9.4400   -1.4917    4.7229   H         1 RES1   0.0000
   130 H82      -7.0244   -2.6234    6.2076   H         1 RES1   0.0000
   131 H83      -8.2437   -1.5445    6.8612   H         1 RES1   0.0000
   132 H84      -7.1604   -0.9661    5.5937   H         1 RES1   0.0000
   133 C43       2.2808   -3.9904    7.5257   C.3       1 RES1   0.0000
   134 C44       1.9489   -2.8986    8.5362   C.3       1 RES1   0.0000
   135 C45       1.2077   -1.6991    7.9377   C.3       1 RES1   0.0000
   136 C46       2.0881   -0.8249    7.0439   C.3       1 RES1   0.0000
   137 C47       1.4154    0.4765    6.5999   C.3       1 RES1   0.0000
   138 C48       0.1377    0.2363    5.7965   C.3       1 RES1   0.0000
   139 C49      -0.2886    1.4317    4.9435   C.3       1 RES1   0.0000
   140 C50      -1.6219    1.0997    4.2743   C.3       1 RES1   0.0000
   141 N3       -2.1086    2.1015    3.3221   N.am      1 RES1   0.0000
   142 C51      -3.3530    2.7902    3.6513   C.3       1 RES1   0.0000
   143 C52      -3.2975    4.3101    3.8037   C.3       1 RES1   0.0000
   144 C53      -4.7038    4.8591    4.0867   C.3       1 RES1   0.0000
   145 C54      -5.7276    4.6903    2.9586   C.3       1 RES1   0.0000
   146 C55      -5.4557    5.5434    1.7182   C.3       1 RES1   0.0000
   147 C56      -6.5001    5.2812    0.6285   C.3       1 RES1   0.0000
   148 C57      -6.2330    6.0877   -0.6427   C.3       1 RES1   0.0000
   149 C58      -7.3451    5.9236   -1.6730   C.3       1 RES1   0.0000
   150 C59      -1.5524    2.0344    2.1140   C.2       1 RES1   0.0000
   151 O4       -0.5940    1.2612    1.8978   O.2       1 RES1   0.0000
   152 C60      -2.0323    2.8880    0.9221   C.3       1 RES1   0.0000
   153 C61      -3.4567    2.5511    0.4453   C.3       1 RES1   0.0000
   154 C62      -3.8564    1.0926    0.6358   C.3       1 RES1   0.0000
   155 C63      -5.3449    0.9087    0.3611   C.3       1 RES1   0.0000
   156 O5       -1.1107    2.6122   -0.1380   O.3       1 RES1   0.0000
   157 C64      -0.3961    3.7380   -0.6711   C.3       1 RES1   0.0000
   158 C65      -1.1529    4.3673   -1.8581   C.3       1 RES1   0.0000
   159 C66      -2.3405    5.2740   -1.5138   C.3       1 RES1   0.0000
   160 C67      -1.9836    6.4753   -0.6473   C.3       1 RES1   0.0000
   161 C68       0.9429    3.1615   -1.1684   C.2       1 RES1   0.0000
   162 O6        0.9690    1.9441   -1.4430   O.2       1 RES1   0.0000
   163 N4        2.0108    3.9492   -1.2914   N.am      1 RES1   0.0000
   164 C69       3.2817    3.3260   -1.6428   C.3       1 RES1   0.0000
   165 C70       3.7034    3.4343   -3.1106   C.3       1 RES1   0.0000
   166 C71       2.7578    2.7146   -4.0712   C.3       1 RES1   0.0000
   167 C72       1.6411    3.5993   -4.6304   C.3       1 RES1   0.0000
   168 C73       2.0960    4.4988   -5.7804   C.3       1 RES1   0.0000
   169 C74       0.8960    5.0305   -6.5631   C.3       1 RES1   0.0000
   170 C75       1.2876    5.9890   -7.6847   C.3       1 RES1   0.0000
   171 C76       0.0707    6.4409   -8.4851   C.3       1 RES1   0.0000
   172 C77       2.0129    5.4081   -1.2226   C.3       1 RES1   0.0000
   173 C78       3.0966    6.0289   -0.3185   C.3       1 RES1   0.0000
   174 C79       4.3192    6.5930   -1.0572   C.3       1 RES1   0.0000
   175 C80       4.1364    7.9594   -1.7318   C.3       1 RES1   0.0000
   176 C81       3.2705    7.9693   -3.0010   C.3       1 RES1   0.0000
   177 C82       1.8313    8.4325   -2.7545   C.3       1 RES1   0.0000
   178 C83       0.9018    8.0675   -3.9124   C.3       1 RES1   0.0000
   179 C84      -0.5112    8.6075   -3.7211   C.3       1 RES1   0.0000
   180 H85       2.7758   -4.8168    8.0265   H         1 RES1   0.0000
   181 H86       2.9466   -3.6261    6.7481   H         1 RES1   0.0000
   182 H87       1.3755   -4.3746    7.0614   H         1 RES1   0.0000
   183 H88       2.8687   -2.5517    9.0100   H         1 RES1   0.0000
   184 H89       1.3191   -3.3319    9.3152   H         1 RES1   0.0000
   185 H90       0.8290   -1.0871    8.7592   H         1 RES1   0.0000
   186 H91       0.3461   -2.0657    7.3741   H         1 RES1   0.0000
   187 H92       2.3905   -1.3917    6.1592   H         1 RES1   0.0000
   188 H93       2.9947   -0.5701    7.5934   H         1 RES1   0.0000
   189 H94       2.1252    1.0414    5.9895   H         1 RES1   0.0000
   190 H95       1.1795    1.0870    7.4721   H         1 RES1   0.0000
   191 H96      -0.6699   -0.0064    6.4878   H         1 RES1   0.0000
   192 H97       0.2682   -0.6234    5.1390   H         1 RES1   0.0000
   193 H98       0.4665    1.6208    4.1777   H         1 RES1   0.0000
   194 H99      -0.3934    2.3267    5.5600   H         1 RES1   0.0000
   195 H100     -2.3684    0.9657    5.0537   H         1 RES1   0.0000
   196 H101     -1.5121    0.1628    3.7188   H         1 RES1   0.0000
   197 H102     -3.7011    2.3948    4.6074   H         1 RES1   0.0000
   198 H103     -4.1065    2.5224    2.9129   H         1 RES1   0.0000
   199 H104     -2.8852    4.7902    2.9183   H         1 RES1   0.0000
   200 H105     -2.6547    4.5643    4.6484   H         1 RES1   0.0000
   201 H106     -4.6213    5.9219    4.3175   H         1 RES1   0.0000
   202 H107     -5.0968    4.3620    4.9745   H         1 RES1   0.0000
   203 H108     -6.7051    4.9769    3.3499   H         1 RES1   0.0000
   204 H109     -5.8108    3.6395    2.6668   H         1 RES1   0.0000
   205 H110     -4.4558    5.3430    1.3190   H         1 RES1   0.0000
   206 H111     -5.4867    6.5991    1.9969   H         1 RES1   0.0000
   207 H112     -7.4865    5.5411    1.0175   H         1 RES1   0.0000
   208 H113     -6.5139    4.2136    0.3833   H         1 RES1   0.0000
   209 H114     -5.2830    5.7695   -1.0832   H         1 RES1   0.0000
   210 H115     -6.1449    7.1446   -0.3826   H         1 RES1   0.0000
   211 H116     -7.4697    4.8788   -1.9529   H         1 RES1   0.0000
   212 H117     -7.1144    6.4942   -2.5692   H         1 RES1   0.0000
   213 H118     -8.2903    6.2852   -1.2761   H         1 RES1   0.0000
   214 H119     -1.9752    3.9513    1.1817   H         1 RES1   0.0000
   215 H120     -4.1734    3.1994    0.9450   H         1 RES1   0.0000
   216 H121     -3.5012    2.7823   -0.6201   H         1 RES1   0.0000
   217 H122     -3.6472    0.7766    1.6593   H         1 RES1   0.0000
   218 H123     -3.2523    0.4677   -0.0343   H         1 RES1   0.0000
   219 H124     -5.9290    1.6234    0.9372   H         1 RES1   0.0000
   220 H125     -5.6744   -0.0864    0.6460   H         1 RES1   0.0000
   221 H126     -5.5755    1.0602   -0.6894   H         1 RES1   0.0000
   222 H127     -0.2199    4.4603    0.1365   H         1 RES1   0.0000
   223 H128     -0.4494    4.9552   -2.4471   H         1 RES1   0.0000
   224 H129     -1.4927    3.5366   -2.4827   H         1 RES1   0.0000
   225 H130     -3.1392    4.7123   -1.0343   H         1 RES1   0.0000
   226 H131     -2.7361    5.6438   -2.4626   H         1 RES1   0.0000
   227 H132     -1.7227    6.1971    0.3723   H         1 RES1   0.0000
   228 H133     -2.8287    7.1564   -0.5966   H         1 RES1   0.0000
   229 H134     -1.1463    7.0131   -1.0804   H         1 RES1   0.0000
   230 H135      3.1916    2.2684   -1.3769   H         1 RES1   0.0000
   231 H136      4.0583    3.7800   -1.0264   H         1 RES1   0.0000
   232 H137      4.6924    2.9763   -3.1755   H         1 RES1   0.0000
   233 H138      3.8119    4.4737   -3.4206   H         1 RES1   0.0000
   234 H139      2.3187    1.8597   -3.5462   H         1 RES1   0.0000
   235 H140      3.3368    2.3341   -4.9151   H         1 RES1   0.0000
   236 H141      1.2101    4.2113   -3.8370   H         1 RES1   0.0000
   237 H142      0.8426    2.9564   -5.0021   H         1 RES1   0.0000
   238 H143      2.7392    3.9288   -6.4539   H         1 RES1   0.0000
   239 H144      2.6843    5.3367   -5.4016   H         1 RES1   0.0000
   240 H145      0.2191    5.5434   -5.8754   H         1 RES1   0.0000
   241 H146      0.3494    4.1876   -6.9944   H         1 RES1   0.0000
   242 H147      1.9974    5.4990   -8.3543   H         1 RES1   0.0000
   243 H148      1.7848    6.8613   -7.2562   H         1 RES1   0.0000
   244 H149     -0.4177    5.5876   -8.9531   H         1 RES1   0.0000
   245 H150      0.3683    7.1356   -9.2665   H         1 RES1   0.0000
   246 H151     -0.6501    6.9398   -7.8389   H         1 RES1   0.0000
   247 H152      1.0335    5.7467   -0.8934   H         1 RES1   0.0000
   248 H153      2.1651    5.7775   -2.2371   H         1 RES1   0.0000
   249 H154      3.4260    5.2856    0.4117   H         1 RES1   0.0000
   250 H155      2.6514    6.8447    0.2509   H         1 RES1   0.0000
   251 H156      4.6787    5.8844   -1.8021   H         1 RES1   0.0000
   252 H157      5.1158    6.7112   -0.3211   H         1 RES1   0.0000
   253 H158      5.1341    8.3108   -1.9986   H         1 RES1   0.0000
   254 H159      3.7320    8.6788   -1.0178   H         1 RES1   0.0000
   255 H160      3.2771    6.9758   -3.4583   H         1 RES1   0.0000
   256 H161      3.7196    8.6423   -3.7329   H         1 RES1   0.0000
   257 H162      1.8302    9.5160   -2.6254   H         1 RES1   0.0000
   258 H163      1.4431    8.0012   -1.8285   H         1 RES1   0.0000
   259 H164      0.8652    6.9779   -4.0193   H         1 RES1   0.0000
   260 H165      1.3074    8.4719   -4.8412   H         1 RES1   0.0000
   261 H166     -0.9667    8.2101   -2.8157   H         1 RES1   0.0000
   262 H167     -1.1411    8.3384   -4.5671   H         1 RES1   0.0000
   263 H168     -0.4900    9.6915   -3.6415   H         1 RES1   0.0000
   264 C85       1.3722    9.5743    1.3045   C.3       1 RES1   0.0000
   265 C86       0.5822    8.2844    1.4845   C.3       1 RES1   0.0000
   266 C87       1.0956    7.4467    2.6569   C.3       1 RES1   0.0000
   267 C88       0.5506    6.0204    2.6198   C.3       1 RES1   0.0000
   268 C89       0.9305    5.1884    3.8427   C.3       1 RES1   0.0000
   269 C90       2.4434    4.9771    4.0030   C.3       1 RES1   0.0000
   270 C91       2.8701    3.5046    4.0403   C.3       1 RES1   0.0000
   271 C92       2.8551    2.8427    2.6559   C.3       1 RES1   0.0000
   272 N5        3.1901    1.4065    2.6493   N.am      1 RES1   0.0000
   273 C93       4.1910    0.9434    3.6006   C.3       1 RES1   0.0000
   274 C94       5.5390    1.6659    3.4660   C.3       1 RES1   0.0000
   275 C95       6.2128    1.4784    2.1088   C.3       1 RES1   0.0000
   276 C96       6.7773    0.0727    1.9180   C.3       1 RES1   0.0000
   277 C97       7.7281   -0.0698    0.7269   C.3       1 RES1   0.0000
   278 C98       7.0595   -0.2980   -0.6310   C.3       1 RES1   0.0000
   279 C99       6.3471    0.8968   -1.2698   C.3       1 RES1   0.0000
   280 C100      7.2646    2.0943   -1.4822   C.3       1 RES1   0.0000
   281 C101      2.6157    0.6457    1.7189   C.2       1 RES1   0.0000
   282 O7        1.8719    1.1263    0.8429   O.2       1 RES1   0.0000
   283 C102      2.6939   -0.8967    1.7592   C.3       1 RES1   0.0000
   284 C103      1.7532   -1.3425    2.8890   C.3       1 RES1   0.0000
   285 C104      1.7581   -2.8548    3.0995   C.3       1 RES1   0.0000
   286 C105      0.6516   -3.2959    4.0428   C.3       1 RES1   0.0000
   287 O8        2.1604   -1.4462    0.5453   O.3       1 RES1   0.0000
   288 C106      3.0744   -1.9848   -0.4460   C.3       1 RES1   0.0000
   289 C107      3.9591   -3.1069    0.1125   C.3       1 RES1   0.0000
   290 C108      3.3447   -4.4963    0.2739   C.3       1 RES1   0.0000
   291 C109      4.4354   -5.4845    0.6747   C.3       1 RES1   0.0000
   292 C110      2.1635   -2.2398   -1.6831   C.2       1 RES1   0.0000
   293 O9        1.1267   -1.5315   -1.7162   O.2       1 RES1   0.0000
   294 N6        2.4583   -3.0551   -2.7030   N.am      1 RES1   0.0000
   295 C111      3.5646   -3.9882   -2.9025   C.3       1 RES1   0.0000
   296 C112      3.0262   -5.3960   -3.2117   C.3       1 RES1   0.0000
   297 C113      4.0639   -6.5063   -3.0372   C.3       1 RES1   0.0000
   298 C114      3.7796   -7.7141   -3.9369   C.3       1 RES1   0.0000
   299 C115      2.3531   -8.2686   -3.8578   C.3       1 RES1   0.0000
   300 C116      1.9356   -8.7475   -2.4680   C.3       1 RES1   0.0000
   301 C117      0.5430   -9.3750   -2.4891   C.3       1 RES1   0.0000
   302 C118      0.1314   -9.9041   -1.1216   C.3       1 RES1   0.0000
   303 C119      1.6349   -2.9280   -3.9148   C.3       1 RES1   0.0000
   304 C120      0.1814   -3.4089   -3.8166   C.3       1 RES1   0.0000
   305 C121     -0.1870   -4.8753   -4.0523   C.3       1 RES1   0.0000
   306 C122     -1.7121   -5.0541   -4.0066   C.3       1 RES1   0.0000
   307 C123     -2.1434   -6.5130   -4.1604   C.3       1 RES1   0.0000
   308 C124     -3.6489   -6.7278   -3.9844   C.3       1 RES1   0.0000
   309 C125     -4.1084   -6.6648   -2.5289   C.3       1 RES1   0.0000
   310 C126     -5.5924   -6.9869   -2.4078   C.3       1 RES1   0.0000
   311 H169      0.9720   10.1521    0.4746   H         1 RES1   0.0000
   312 H170      2.4192    9.3577    1.0976   H         1 RES1   0.0000
   313 H171      1.3231   10.1818    2.2038   H         1 RES1   0.0000
   314 H172      0.6452    7.6994    0.5626   H         1 RES1   0.0000
   315 H173     -0.4714    8.5228    1.6407   H         1 RES1   0.0000
   316 H174      0.7996    7.9231    3.5908   H         1 RES1   0.0000
   317 H175      2.1862    7.4290    2.6360   H         1 RES1   0.0000
   318 H176      0.9191    5.5201    1.7194   H         1 RES1   0.0000
   319 H177     -0.5406    6.0667    2.5605   H         1 RES1   0.0000
   320 H178      0.4335    4.2183    3.7708   H         1 RES1   0.0000
   321 H179      0.5395    5.6867    4.7288   H         1 RES1   0.0000
   322 H180      2.7687    5.4299    4.9391   H         1 RES1   0.0000
   323 H181      2.9798    5.4796    3.1994   H         1 RES1   0.0000
   324 H182      2.2162    2.9663    4.7254   H         1 RES1   0.0000
   325 H183      3.8738    3.4817    4.4583   H         1 RES1   0.0000
   326 H184      3.5539    3.3681    1.9952   H         1 RES1   0.0000
   327 H185      1.8540    2.9246    2.2178   H         1 RES1   0.0000
   328 H186      4.3542   -0.1233    3.4597   H         1 RES1   0.0000
   329 H187      3.8054    1.0903    4.6139   H         1 RES1   0.0000
   330 H188      6.1883    1.2794    4.2531   H         1 RES1   0.0000
   331 H189      5.4203    2.7336    3.6424   H         1 RES1   0.0000
   332 H190      7.0336    2.1939    2.0449   H         1 RES1   0.0000
   333 H191      5.5043    1.7192    1.3149   H         1 RES1   0.0000
   334 H192      5.9658   -0.6515    1.8078   H         1 RES1   0.0000
   335 H193      7.3313   -0.1894    2.8215   H         1 RES1   0.0000
   336 H194      8.3631   -0.9381    0.9137   H         1 RES1   0.0000
   337 H195      8.3834    0.7979    0.6798   H         1 RES1   0.0000
   338 H196      6.3477   -1.1260   -0.5331   H         1 RES1   0.0000
   339 H197      7.8360   -0.6234   -1.3267   H         1 RES1   0.0000
   340 H198      5.4800    1.1913   -0.6736   H         1 RES1   0.0000
   341 H199      5.9676    0.5691   -2.2423   H         1 RES1   0.0000
   342 H200      7.5210    2.5718   -0.5419   H         1 RES1   0.0000
   343 H201      6.7845    2.8359   -2.1147   H         1 RES1   0.0000
   344 H202      8.1843    1.7839   -1.9687   H         1 RES1   0.0000
   345 H203      3.7099   -1.2578    1.9213   H         1 RES1   0.0000
   346 H204      2.0506   -0.8398    3.8067   H         1 RES1   0.0000
   347 H205      0.7399   -1.0033    2.6160   H         1 RES1   0.0000
   348 H206      2.7252   -3.1694    3.4948   H         1 RES1   0.0000
   349 H207      1.6015   -3.3363    2.1375   H         1 RES1   0.0000
   350 H208      0.8154   -2.8997    5.0383   H         1 RES1   0.0000
   351 H209      0.6272   -4.3788    4.1162   H         1 RES1   0.0000
   352 H210     -0.3106   -2.9431    3.6781   H         1 RES1   0.0000
   353 H211      3.7347   -1.1643   -0.7819   H         1 RES1   0.0000
   354 H212      4.8617   -3.1691   -0.4959   H         1 RES1   0.0000
   355 H213      4.3074   -2.8011    1.0987   H         1 RES1   0.0000
   356 H214      2.8652   -4.8341   -0.6413   H         1 RES1   0.0000
   357 H215      2.5818   -4.4832    1.0498   H         1 RES1   0.0000
   358 H216      5.1677   -5.5911   -0.1227   H         1 RES1   0.0000
   359 H217      4.0173   -6.4651    0.8870   H         1 RES1   0.0000
   360 H218      4.9530   -5.1348    1.5656   H         1 RES1   0.0000
   361 H219      4.2223   -4.0208   -2.0447   H         1 RES1   0.0000
   362 H220      4.1591   -3.6384   -3.7538   H         1 RES1   0.0000
   363 H221      2.6544   -5.4296   -4.2343   H         1 RES1   0.0000
   364 H222      2.1858   -5.6004   -2.5500   H         1 RES1   0.0000
   365 H223      4.0844   -6.8248   -1.9956   H         1 RES1   0.0000
   366 H224      5.0547   -6.1291   -3.2907   H         1 RES1   0.0000
   367 H225      4.4899   -8.5046   -3.6826   H         1 RES1   0.0000
   368 H226      3.9700   -7.4227   -4.9730   H         1 RES1   0.0000
   369 H227      2.2932   -9.1115   -4.5493   H         1 RES1   0.0000
   370 H228      1.6385   -7.5210   -4.2145   H         1 RES1   0.0000
   371 H229      1.9431   -7.9128   -1.7597   H         1 RES1   0.0000
   372 H230      2.6545   -9.4878   -2.1157   H         1 RES1   0.0000
   373 H231      0.5289  -10.1951   -3.2083   H         1 RES1   0.0000
   374 H232     -0.1835   -8.6318   -2.8286   H         1 RES1   0.0000
   375 H233      0.8174  -10.6813   -0.7978   H         1 RES1   0.0000
   376 H234     -0.8673  -10.3311   -1.1603   H         1 RES1   0.0000
   377 H235      0.1411   -9.1132   -0.3719   H         1 RES1   0.0000
   378 H236      2.1561   -3.4206   -4.7317   H         1 RES1   0.0000
   379 H237      1.6005   -1.8570   -4.1250   H         1 RES1   0.0000
   380 H238     -0.3711   -2.8465   -4.5709   H         1 RES1   0.0000
   381 H239     -0.1629   -3.0991   -2.8312   H         1 RES1   0.0000
   382 H240      0.2616   -5.5278   -3.3064   H         1 RES1   0.0000
   383 H241      0.1638   -5.1899   -5.0327   H         1 RES1   0.0000
   384 H242     -2.1737   -4.4646   -4.8019   H         1 RES1   0.0000
   385 H243     -2.1005   -4.6666   -3.0631   H         1 RES1   0.0000
   386 H244     -1.6215   -7.1259   -3.4222   H         1 RES1   0.0000
   387 H245     -1.8488   -6.8562   -5.1522   H         1 RES1   0.0000
   388 H246     -3.8973   -7.7174   -4.3688   H         1 RES1   0.0000
   389 H247     -4.2062   -5.9982   -4.5760   H         1 RES1   0.0000
   390 H248     -3.9240   -5.6674   -2.1179   H         1 RES1   0.0000
   391 H249     -3.5321   -7.3819   -1.9389   H         1 RES1   0.0000
   392 H250     -6.1770   -6.3219   -3.0405   H         1 RES1   0.0000
   393 H251     -5.9383   -6.8845   -1.3807   H         1 RES1   0.0000
   394 H252     -5.7801   -8.0077   -2.7295   H         1 RES1   0.0000
@<TRIPOS>BOND
     1     1    20    1
     2     1    25    1
     3     1    31    1
     4     1   151    1
     5     1   156    1
     6     1   162    1
     7     1   282    1
     8     1   287    1
     9     1   293    1
    10     2     3    1
    11     2    49    1
    12     2    50    1
    13     2    51    1
    14     3     4    1
    15     3    52    1
    16     3    53    1
    17     4     5    1
    18     4    54    1
    19     4    55    1
    20     5     6    1
    21     5    56    1
    22     5    57    1
    23     6     7    1
    24     6    58    1
    25     6    59    1
    26     7     8    1
    27     7    60    1
    28     7    61    1
    29     8     9    1
    30     8    62    1
    31     8    63    1
    32     9    10    1
    33     9    64    1
    34     9    65    1
    35    10    11    1
    36    10    19    1
    37    11    12    1
    38    11    66    1
    39    11    67    1
    40    12    13    1
    41    12    68    1
    42    12    69    1
    43    13    14    1
    44    13    70    1
    45    13    71    1
    46    14    15    1
    47    14    72    1
    48    14    73    1
    49    15    16    1
    50    15    74    1
    51    15    75    1
    52    16    17    1
    53    16    76    1
    54    16    77    1
    55    17    18    1
    56    17    78    1
    57    17    79    1
    58    18    80    1
    59    18    81    1
    60    18    82    1
    61    19    20    2
    62    19    21    1
    63    21    22    1
    64    21    25    1
    65    21    83    1
    66    22    23    1
    67    22    84    1
    68    22    85    1
    69    23    24    1
    70    23    86    1
    71    23    87    1
    72    24    88    1
    73    24    89    1
    74    24    90    1
    75    25    26    1
    76    26    27    1
    77    26    30    1
    78    26    91    1
    79    27    28    1
    80    27    92    1
    81    27    93    1
    82    28    29    1
    83    28    94    1
    84    28    95    1
    85    29    96    1
    86    29    97    1
    87    29    98    1
    88    30    31    2
    89    30    32    1
    90    32    33    1
    91    32    41    1
    92    33    34    1
    93    33    99    1
    94    33   100    1
    95    34    35    1
    96    34   101    1
    97    34   102    1
    98    35    36    1
    99    35   103    1
   100    35   104    1
   101    36    37    1
   102    36   105    1
   103    36   106    1
   104    37    38    1
   105    37   107    1
   106    37   108    1
   107    38    39    1
   108    38   109    1
   109    38   110    1
   110    39    40    1
   111    39   111    1
   112    39   112    1
   113    40   113    1
   114    40   114    1
   115    40   115    1
   116    41    42    1
   117    41   116    1
   118    41   117    1
   119    42    43    1
   120    42   118    1
   121    42   119    1
   122    43    44    1
   123    43   120    1
   124    43   121    1
   125    44    45    1
   126    44   122    1
   127    44   123    1
   128    45    46    1
   129    45   124    1
   130    45   125    1
   131    46    47    1
   132    46   126    1
   133    46   127    1
   134    47    48    1
   135    47   128    1
   136    47   129    1
   137    48   130    1
   138    48   131    1
   139    48   132    1
   140   133   134    1
   141   133   180    1
   142   133   181    1
   143   133   182    1
   144   134   135    1
   145   134   183    1
   146   134   184    1
   147   135   136    1
   148   135   185    1
   149   135   186    1
   150   136   137    1
   151   136   187    1
   152   136   188    1
   153   137   138    1
   154   137   189    1
   155   137   190    1
   156   138   139    1
   157   138   191    1
   158   138   192    1
   159   139   140    1
   160   139   193    1
   161   139   194    1
   162   140   141    1
   163   140   195    1
   164   140   196    1
   165   141   142    1
   166   141   150    1
   167   142   143    1
   168   142   197    1
   169   142   198    1
   170   143   144    1
   171   143   199    1
   172   143   200    1
   173   144   145    1
   174   144   201    1
   175   144   202    1
   176   145   146    1
   177   145   203    1
   178   145   204    1
   179   146   147    1
   180   146   205    1
   181   146   206    1
   182   147   148    1
   183   147   207    1
   184   147   208    1
   185   148   149    1
   186   148   209    1
   187   148   210    1
   188   149   211    1
   189   149   212    1
   190   149   213    1
   191   150   151    2
   192   150   152    1
   193   152   153    1
   194   152   156    1
   195   152   214    1
   196   153   154    1
   197   153   215    1
   198   153   216    1
   199   154   155    1
   200   154   217    1
   201   154   218    1
   202   155   219    1
   203   155   220    1
   204   155   221    1
   205   156   157    1
   206   157   158    1
   207   157   161    1
   208   157   222    1
   209   158   159    1
   210   158   223    1
   211   158   224    1
   212   159   160    1
   213   159   225    1
   214   159   226    1
   215   160   227    1
   216   160   228    1
   217   160   229    1
   218   161   162    2
   219   161   163    1
   220   163   164    1
   221   163   172    1
   222   164   165    1
   223   164   230    1
   224   164   231    1
   225   165   166    1
   226   165   232    1
   227   165   233    1
   228   166   167    1
   229   166   234    1
   230   166   235    1
   231   167   168    1
   232   167   236    1
   233   167   237    1
   234   168   169    1
   235   168   238    1
   236   168   239    1
   237   169   170    1
   238   169   240    1
   239   169   241    1
   240   170   171    1
   241   170   242    1
   242   170   243    1
   243   171   244    1
   244   171   245    1
   245   171   246    1
   246   172   173    1
   247   172   247    1
   248   172   248    1
   249   173   174    1
   250   173   249    1
   251   173   250    1
   252   174   175    1
   253   174   251    1
   254   174   252    1
   255   175   176    1
   256   175   253    1
   257   175   254    1
   258   176   177    1
   259   176   255    1
   260   176   256    1
   261   177   178    1
   262   177   257    1
   263   177   258    1
   264   178   179    1
   265   178   259    1
   266   178   260    1
   267   179   261    1
   268   179   262    1
   269   179   263    1
   270   264   265    1
   271   264   311    1
   272   264   312    1
   273   264   313    1
   274   265   266    1
   275   265   314    1
   276   265   315    1
   277   266   267    1
   278   266   316    1
   279   266   317    1
   280   267   268    1
   281   267   318    1
   282   267   319    1
   283   268   269    1
   284   268   320    1
   285   268   321    1
   286   269   270    1
   287   269   322    1
   288   269   323    1
   289   270   271    1
   290   270   324    1
   291   270   325    1
   292   271   272    1
   293   271   326    1
   294   271   327    1
   295   272   273    1
   296   272   281    1
   297   273   274    1
   298   273   328    1
   299   273   329    1
   300   274   275    1
   301   274   330    1
   302   274   331    1
   303   275   276    1
   304   275   332    1
   305   275   333    1
   306   276   277    1
   307   276   334    1
   308   276   335    1
   309   277   278    1
   310   277   336    1
   311   277   337    1
   312   278   279    1
   313   278   338    1
   314   278   339    1
   315   279   280    1
   316   279   340    1
   317   279   341    1
   318   280   342    1
   319   280   343    1
   320   280   344    1
   321   281   282    2
   322   281   283    1
   323   283   284    1
   324   283   287    1
   325   283   345    1
   326   284   285    1
   327   284   346    1
   328   284   347    1
   329   285   286    1
   330   285   348    1
   331   285   349    1
   332   286   350    1
   333   286   351    1
   334   286   352    1
   335   287   288    1
   336   288   289    1
   337   288   292    1
   338   288   353    1
   339   289   290    1
   340   289   354    1
   341   289   355    1
   342   290   291    1
   343   290   356    1
   344   290   357    1
   345   291   358    1
   346   291   359    1
   347   291   360    1
   348   292   293    2
   349   292   294    1
   350   294   295    1
   351   294   303    1
   352   295   296    1
   353   295   361    1
   354   295   362    1
   355   296   297    1
   356   296   363    1
   357   296   364    1
   358   297   298    1
   359   297   365    1
   360   297   366    1
   361   298   299    1
   362   298   367    1
   363   298   368    1
   364   299   300    1
   365   299   369    1
   366   299   370    1
   367   300   301    1
   368   300   371    1
   369   300   372    1
   370   301   302    1
   371   301   373    1
   372   301   374    1
   373   302   375    1
   374   302   376    1
   375   302   377    1
   376   303   304    1
   377   303   378    1
   378   303   379    1
   379   304   305    1
   380   304   380    1
   381   304   381    1
   382   305   306    1
   383   305   382    1
   384   305   383    1
   385   306   307    1
   386   306   384    1
   387   306   385    1
   388   307   308    1
   389   307   386    1
   390   307   387    1
   391   308   309    1
   392   308   388    1
   393   308   389    1
   394   309   310    1
   395   309   390    1
   396   309   391    1
   397   310   392    1
   398   310   393    1
   399   310   394    1
@<TRIPOS>SUBSTRUCTURE
     1 RES1      394 GROUP             0 ****  ****    0  
