@<TRIPOS>MOLECULE
am_c3_9H2O_c0_0_nunpairedes_0_charge_3 Charge: 3 Unpaired_Electrons: 1 XTB_Unpaired_Electrons: 0 XTB_Charge: 3
   412   417     1     0     0
SMALL
NoCharges
****
Generated from Architector

@<TRIPOS>ATOM
     1 Ce1      -0.1028   -0.0593    0.3070   Ce        1 RES1   0.0000
     2 C1        5.7085   -0.8539    4.7704   C.3       1 RES1   0.0000
     3 C2        5.0618    0.4144    4.2263   C.3       1 RES1   0.0000
     4 C3        4.0376    1.0194    5.1894   C.3       1 RES1   0.0000
     5 C4        2.6975    0.2831    5.1683   C.3       1 RES1   0.0000
     6 C5        1.7474    0.8175    6.2385   C.3       1 RES1   0.0000
     7 C6        0.3826    0.1256    6.2736   C.3       1 RES1   0.0000
     8 C7       -0.5125    0.3209    5.0448   C.3       1 RES1   0.0000
     9 C8       -0.7251    1.7966    4.6868   C.3       1 RES1   0.0000
    10 N1       -1.8476    1.9521    3.7642   N.am      1 RES1   0.0000
    11 C9       -3.1691    2.2320    4.3062   C.3       1 RES1   0.0000
    12 C10      -3.8150    3.5619    3.8825   C.3       1 RES1   0.0000
    13 C11      -3.6013    4.7301    4.8489   C.3       1 RES1   0.0000
    14 C12      -2.2132    5.3676    4.8128   C.3       1 RES1   0.0000
    15 C13      -1.7384    5.9426    3.4706   C.3       1 RES1   0.0000
    16 C14      -0.3028    6.4234    3.6772   C.3       1 RES1   0.0000
    17 C15      -2.6067    7.0929    2.9384   C.3       1 RES1   0.0000
    18 C16      -2.3031    7.4060    1.4644   C.3       1 RES1   0.0000
    19 C17      -2.6299    8.8458    1.0597   C.3       1 RES1   0.0000
    20 C18      -2.3075    9.1571   -0.4090   C.3       1 RES1   0.0000
    21 C19      -0.8051    9.1979   -0.6833   C.3       1 RES1   0.0000
    22 C20      -2.9093   10.5001   -0.8196   C.3       1 RES1   0.0000
    23 C21      -1.6153    1.6223    2.5019   C.2       1 RES1   0.0000
    24 O1       -0.5017    1.2157    2.1224   O.2       1 RES1   0.0000
    25 C22      -2.7278    1.8027    1.4625   C.3       1 RES1   0.0000
    26 O2       -2.4403    0.9366    0.3776   O.3       1 RES1   0.0000
    27 C23      -3.1426    1.2310   -0.8194   C.3       1 RES1   0.0000
    28 C24      -2.2395    0.7784   -1.9816   C.2       1 RES1   0.0000
    29 O3       -1.1365    0.2845   -1.6919   O.2       1 RES1   0.0000
    30 N2       -2.6426    0.9801   -3.2348   N.am      1 RES1   0.0000
    31 C25      -1.6768    1.1555   -4.3352   C.3       1 RES1   0.0000
    32 C26      -0.5522    0.1326   -4.5498   C.3       1 RES1   0.0000
    33 C27      -0.9150   -1.0002   -5.5184   C.3       1 RES1   0.0000
    34 C28       0.3285   -1.7275   -6.0710   C.3       1 RES1   0.0000
    35 C29       0.4557   -3.1929   -5.6515   C.3       1 RES1   0.0000
    36 C30       1.8224   -3.7699   -6.0150   C.3       1 RES1   0.0000
    37 C31       1.9212   -5.2623   -5.7044   C.3       1 RES1   0.0000
    38 C32       3.3404   -5.7901   -5.9001   C.3       1 RES1   0.0000
    39 C33      -4.0483    1.2352   -3.5377   C.3       1 RES1   0.0000
    40 C34      -4.8438   -0.0721   -3.5753   C.3       1 RES1   0.0000
    41 C35      -6.3273    0.1205   -3.9401   C.3       1 RES1   0.0000
    42 C36      -7.3198   -0.2605   -2.8292   C.3       1 RES1   0.0000
    43 C37      -8.6329   -0.8061   -3.4081   C.3       1 RES1   0.0000
    44 C38      -9.4268    0.3061   -4.0866   C.3       1 RES1   0.0000
    45 C39      -9.4837   -1.4850   -2.3279   C.3       1 RES1   0.0000
    46 C40      -8.8928   -2.8066   -1.8147   C.3       1 RES1   0.0000
    47 C41      -9.9947   -3.8293   -1.5408   C.3       1 RES1   0.0000
    48 C42      -9.5186   -5.1300   -0.8846   C.3       1 RES1   0.0000
    49 C43      -8.4664   -5.8543   -1.7257   C.3       1 RES1   0.0000
    50 C44     -10.7113   -6.0625   -0.6736   C.3       1 RES1   0.0000
    51 H1        6.4478   -1.2448    4.0752   H         1 RES1   0.0000
    52 H2        4.9721   -1.6283    4.9667   H         1 RES1   0.0000
    53 H3        6.2247   -0.6383    5.7003   H         1 RES1   0.0000
    54 H4        4.5654    0.2048    3.2730   H         1 RES1   0.0000
    55 H5        5.8523    1.1451    4.0475   H         1 RES1   0.0000
    56 H6        3.8698    2.0684    4.9311   H         1 RES1   0.0000
    57 H7        4.4396    0.9873    6.2019   H         1 RES1   0.0000
    58 H8        2.8639   -0.7818    5.3474   H         1 RES1   0.0000
    59 H9        2.2485    0.3926    4.1766   H         1 RES1   0.0000
    60 H10       1.6186    1.8940    6.1119   H         1 RES1   0.0000
    61 H11       2.2232    0.6632    7.2106   H         1 RES1   0.0000
    62 H12      -0.1503    0.4948    7.1510   H         1 RES1   0.0000
    63 H13       0.5338   -0.9455    6.4170   H         1 RES1   0.0000
    64 H14      -1.4898   -0.1152    5.2689   H         1 RES1   0.0000
    65 H15      -0.1041   -0.2163    4.1796   H         1 RES1   0.0000
    66 H16       0.1624    2.1859    4.1856   H         1 RES1   0.0000
    67 H17      -0.9262    2.3879    5.5812   H         1 RES1   0.0000
    68 H18      -3.0665    2.2162    5.3891   H         1 RES1   0.0000
    69 H19      -3.8246    1.4001    4.0302   H         1 RES1   0.0000
    70 H20      -4.8891    3.3893    3.8216   H         1 RES1   0.0000
    71 H21      -3.4717    3.8602    2.8960   H         1 RES1   0.0000
    72 H22      -3.7965    4.3942    5.8702   H         1 RES1   0.0000
    73 H23      -4.3483    5.4926    4.6303   H         1 RES1   0.0000
    74 H24      -1.4739    4.6340    5.1393   H         1 RES1   0.0000
    75 H25      -2.2032    6.1753    5.5462   H         1 RES1   0.0000
    76 H26      -1.7307    5.1420    2.7193   H         1 RES1   0.0000
    77 H27      -0.2648    7.1130    4.5166   H         1 RES1   0.0000
    78 H28       0.0808    6.9453    2.8060   H         1 RES1   0.0000
    79 H29       0.3547    5.5871    3.8999   H         1 RES1   0.0000
    80 H30      -2.4157    7.9807    3.5399   H         1 RES1   0.0000
    81 H31      -3.6666    6.8550    3.0385   H         1 RES1   0.0000
    82 H32      -2.8634    6.7170    0.8217   H         1 RES1   0.0000
    83 H33      -1.2420    7.2350    1.2767   H         1 RES1   0.0000
    84 H34      -2.0744    9.5329    1.6992   H         1 RES1   0.0000
    85 H35      -3.6911    9.0281    1.2236   H         1 RES1   0.0000
    86 H36      -2.7564    8.3726   -1.0287   H         1 RES1   0.0000
    87 H37      -0.3490   10.0209   -0.1364   H         1 RES1   0.0000
    88 H38      -0.6304    9.3647   -1.7456   H         1 RES1   0.0000
    89 H39      -0.3071    8.2725   -0.3942   H         1 RES1   0.0000
    90 H40      -2.5393   11.2938   -0.1743   H         1 RES1   0.0000
    91 H41      -3.9944   10.4819   -0.7584   H         1 RES1   0.0000
    92 H42      -2.6344   10.7405   -1.8448   H         1 RES1   0.0000
    93 H43      -2.6974    2.8524    1.1289   H         1 RES1   0.0000
    94 H44      -3.7187    1.5805    1.8817   H         1 RES1   0.0000
    95 H45      -3.2932    2.3168   -0.9209   H         1 RES1   0.0000
    96 H46      -4.1265    0.7415   -0.8153   H         1 RES1   0.0000
    97 H47      -1.2234    2.1360   -4.1718   H         1 RES1   0.0000
    98 H48      -2.2574    1.2101   -5.2531   H         1 RES1   0.0000
    99 H49      -0.1968   -0.2465   -3.5922   H         1 RES1   0.0000
   100 H50       0.2745    0.6867   -4.9967   H         1 RES1   0.0000
   101 H51      -1.4531   -0.5683   -6.3620   H         1 RES1   0.0000
   102 H52      -1.5829   -1.7154   -5.0333   H         1 RES1   0.0000
   103 H53       1.2288   -1.1928   -5.7583   H         1 RES1   0.0000
   104 H54       0.3040   -1.6997   -7.1608   H         1 RES1   0.0000
   105 H55      -0.3209   -3.7762   -6.1447   H         1 RES1   0.0000
   106 H56       0.3082   -3.2912   -4.5742   H         1 RES1   0.0000
   107 H57       2.5978   -3.2237   -5.4693   H         1 RES1   0.0000
   108 H58       2.0036   -3.6172   -7.0785   H         1 RES1   0.0000
   109 H59       1.2422   -5.8123   -6.3558   H         1 RES1   0.0000
   110 H60       1.6018   -5.4508   -4.6733   H         1 RES1   0.0000
   111 H61       3.6943   -5.5535   -6.9029   H         1 RES1   0.0000
   112 H62       4.0272   -5.3425   -5.1807   H         1 RES1   0.0000
   113 H63       3.3700   -6.8690   -5.7748   H         1 RES1   0.0000
   114 H64      -4.1049    1.7151   -4.5128   H         1 RES1   0.0000
   115 H65      -4.4718    1.9129   -2.8008   H         1 RES1   0.0000
   116 H66      -4.7588   -0.5742   -2.6064   H         1 RES1   0.0000
   117 H67      -4.3666   -0.7196   -4.3116   H         1 RES1   0.0000
   118 H68      -6.5479   -0.4962   -4.8071   H         1 RES1   0.0000
   119 H69      -6.5076    1.1544   -4.2365   H         1 RES1   0.0000
   120 H70      -7.5462    0.6038   -2.2000   H         1 RES1   0.0000
   121 H71      -6.8816   -1.0333   -2.1935   H         1 RES1   0.0000
   122 H72      -8.3840   -1.5676   -4.1577   H         1 RES1   0.0000
   123 H73      -9.7052    1.0667   -3.3614   H         1 RES1   0.0000
   124 H74     -10.3336   -0.0967   -4.5259   H         1 RES1   0.0000
   125 H75      -8.8417    0.7712   -4.8763   H         1 RES1   0.0000
   126 H76     -10.4611   -1.6959   -2.7657   H         1 RES1   0.0000
   127 H77      -9.6454   -0.7946   -1.4971   H         1 RES1   0.0000
   128 H78      -8.3249   -2.6418   -0.8950   H         1 RES1   0.0000
   129 H79      -8.2087   -3.2101   -2.5637   H         1 RES1   0.0000
   130 H80     -10.4886   -4.0769   -2.4815   H         1 RES1   0.0000
   131 H81     -10.7421   -3.3770   -0.8873   H         1 RES1   0.0000
   132 H82      -9.0812   -4.8872    0.0930   H         1 RES1   0.0000
   133 H83      -8.8545   -6.0545   -2.7227   H         1 RES1   0.0000
   134 H84      -8.2238   -6.8074   -1.2598   H         1 RES1   0.0000
   135 H85      -7.5485   -5.2736   -1.8158   H         1 RES1   0.0000
   136 H86     -11.1603   -6.3186   -1.6292   H         1 RES1   0.0000
   137 H87     -11.4747   -5.5992   -0.0560   H         1 RES1   0.0000
   138 H88     -10.3983   -6.9836   -0.1888   H         1 RES1   0.0000
   139 C45      -7.6902    4.1570   -2.6141   C.3       1 RES1   0.0000
   140 C46      -6.9890    5.5128   -2.6120   C.3       1 RES1   0.0000
   141 C47      -5.9086    5.6191   -3.6933   C.3       1 RES1   0.0000
   142 C48      -4.5860    4.9413   -3.3167   C.3       1 RES1   0.0000
   143 C49      -3.6992    5.7902   -2.3856   C.3       1 RES1   0.0000
   144 C50      -2.2677    5.9527   -2.9175   C.3       1 RES1   0.0000
   145 C51      -1.3228    4.7927   -2.5706   C.3       1 RES1   0.0000
   146 C52      -0.7009    4.9398   -1.1714   C.3       1 RES1   0.0000
   147 N3        0.6513    4.3965   -1.0920   N.am      1 RES1   0.0000
   148 C53       1.7292    5.2370   -1.6162   C.3       1 RES1   0.0000
   149 C54       2.9510    5.4197   -0.7063   C.3       1 RES1   0.0000
   150 C55       3.6098    6.7990   -0.8327   C.3       1 RES1   0.0000
   151 C56       2.9891    7.8784    0.0572   C.3       1 RES1   0.0000
   152 C57       2.7864    7.5392    1.5469   C.3       1 RES1   0.0000
   153 C58       2.3200    8.8153    2.2467   C.3       1 RES1   0.0000
   154 C59       4.0379    6.9604    2.2285   C.3       1 RES1   0.0000
   155 C60       3.7524    5.9986    3.3946   C.3       1 RES1   0.0000
   156 C61       3.4263    6.6832    4.7226   C.3       1 RES1   0.0000
   157 C62       3.4703    5.7462    5.9359   C.3       1 RES1   0.0000
   158 C63       2.2818    4.7884    5.9777   C.3       1 RES1   0.0000
   159 C64       3.4958    6.5579    7.2277   C.3       1 RES1   0.0000
   160 C65       0.7894    3.1431   -0.6632   C.2       1 RES1   0.0000
   161 O4       -0.1762    2.4126   -0.3885   O.2       1 RES1   0.0000
   162 C66       2.2004    2.6034   -0.4593   C.3       1 RES1   0.0000
   163 O5        2.0777    1.2861    0.0296   O.3       1 RES1   0.0000
   164 C67       3.3159    0.6725    0.3668   C.3       1 RES1   0.0000
   165 C68       2.9035   -0.5900    1.1395   C.2       1 RES1   0.0000
   166 O6        1.7268   -0.6011    1.5420   O.2       1 RES1   0.0000
   167 N4        3.7652   -1.5685    1.3782   N.am      1 RES1   0.0000
   168 C69       3.4246   -2.7079    2.2520   C.3       1 RES1   0.0000
   169 C70       2.0859   -2.7414    2.9993   C.3       1 RES1   0.0000
   170 C71       0.8287   -3.0696    2.1613   C.3       1 RES1   0.0000
   171 C72       0.4784   -4.5569    2.2423   C.3       1 RES1   0.0000
   172 C73      -0.7146   -5.0105    1.4074   C.3       1 RES1   0.0000
   173 C74      -0.8432   -6.5340    1.4559   C.3       1 RES1   0.0000
   174 C75      -1.8924   -7.1237    0.5114   C.3       1 RES1   0.0000
   175 C76      -1.5055   -7.0259   -0.9618   C.3       1 RES1   0.0000
   176 C77       5.1752   -1.5226    0.9666   C.3       1 RES1   0.0000
   177 C78       5.7196   -2.8704    0.4601   C.3       1 RES1   0.0000
   178 C79       7.0672   -2.8108   -0.2917   C.3       1 RES1   0.0000
   179 C80       6.9486   -2.7351   -1.8189   C.3       1 RES1   0.0000
   180 C81       8.2379   -3.0496   -2.6202   C.3       1 RES1   0.0000
   181 C82       9.5161   -2.6766   -1.8719   C.3       1 RES1   0.0000
   182 C83       8.2393   -2.2842   -3.9556   C.3       1 RES1   0.0000
   183 C84       7.0503   -2.5255   -4.8938   C.3       1 RES1   0.0000
   184 C85       7.1750   -3.7528   -5.8100   C.3       1 RES1   0.0000
   185 C86       6.9855   -3.3940   -7.2917   C.3       1 RES1   0.0000
   186 C87       5.6061   -2.7819   -7.5487   C.3       1 RES1   0.0000
   187 C88       7.1624   -4.6339   -8.1659   C.3       1 RES1   0.0000
   188 H89      -8.4451    4.1199   -1.8330   H         1 RES1   0.0000
   189 H90      -6.9869    3.3393   -2.4596   H         1 RES1   0.0000
   190 H91      -8.1857    3.9921   -3.5681   H         1 RES1   0.0000
   191 H92      -6.5493    5.7117   -1.6321   H         1 RES1   0.0000
   192 H93      -7.7431    6.2791   -2.7903   H         1 RES1   0.0000
   193 H94      -5.7157    6.6702   -3.9146   H         1 RES1   0.0000
   194 H95      -6.2934    5.1575   -4.6042   H         1 RES1   0.0000
   195 H96      -4.0365    4.7379   -4.2368   H         1 RES1   0.0000
   196 H97      -4.8085    3.9792   -2.8530   H         1 RES1   0.0000
   197 H98      -3.6692    5.3621   -1.3789   H         1 RES1   0.0000
   198 H99      -4.1374    6.7849   -2.2873   H         1 RES1   0.0000
   199 H100     -1.8299    6.8725   -2.5248   H         1 RES1   0.0000
   200 H101     -2.3159    6.0603   -4.0032   H         1 RES1   0.0000
   201 H102     -0.5096    4.7733   -3.2988   H         1 RES1   0.0000
   202 H103     -1.8554    3.8418   -2.6435   H         1 RES1   0.0000
   203 H104     -1.3001    4.4239   -0.4196   H         1 RES1   0.0000
   204 H105     -0.6573    5.9968   -0.9020   H         1 RES1   0.0000
   205 H106      1.2861    6.2151   -1.8039   H         1 RES1   0.0000
   206 H107      2.0537    4.8387   -2.5841   H         1 RES1   0.0000
   207 H108      3.7055    4.6767   -0.9593   H         1 RES1   0.0000
   208 H109      2.6587    5.2872    0.3339   H         1 RES1   0.0000
   209 H110      3.5795    7.1332   -1.8716   H         1 RES1   0.0000
   210 H111      4.6632    6.6925   -0.5757   H         1 RES1   0.0000
   211 H112      2.0167    8.1600   -0.3517   H         1 RES1   0.0000
   212 H113      3.6250    8.7618   -0.0107   H         1 RES1   0.0000
   213 H114      1.9819    6.7963    1.6219   H         1 RES1   0.0000
   214 H115      3.1096    9.5621    2.2290   H         1 RES1   0.0000
   215 H116      2.0626    8.6226    3.2815   H         1 RES1   0.0000
   216 H117      1.4483    9.2317    1.7473   H         1 RES1   0.0000
   217 H118      4.6582    7.7822    2.5870   H         1 RES1   0.0000
   218 H119      4.6304    6.4072    1.4976   H         1 RES1   0.0000
   219 H120      4.6464    5.3885    3.5524   H         1 RES1   0.0000
   220 H121      2.9425    5.3182    3.1097   H         1 RES1   0.0000
   221 H122      2.4427    7.1484    4.6819   H         1 RES1   0.0000
   222 H123      4.1636    7.4699    4.8794   H         1 RES1   0.0000
   223 H124      4.3891    5.1539    5.8826   H         1 RES1   0.0000
   224 H125      1.3551    5.3429    6.1076   H         1 RES1   0.0000
   225 H126      2.3859    4.1042    6.8170   H         1 RES1   0.0000
   226 H127      2.2108    4.1991    5.0655   H         1 RES1   0.0000
   227 H128      2.6164    7.1925    7.3005   H         1 RES1   0.0000
   228 H129      4.3755    7.1921    7.2718   H         1 RES1   0.0000
   229 H130      3.5094    5.9010    8.0932   H         1 RES1   0.0000
   230 H131      2.7255    3.2233    0.2803   H         1 RES1   0.0000
   231 H132      2.7502    2.6221   -1.4105   H         1 RES1   0.0000
   232 H133      3.9148    1.3127    1.0351   H         1 RES1   0.0000
   233 H134      3.8837    0.4716   -0.5479   H         1 RES1   0.0000
   234 H135      4.2229   -2.7559    2.9954   H         1 RES1   0.0000
   235 H136      3.4834   -3.6110    1.6445   H         1 RES1   0.0000
   236 H137      1.9431   -1.8103    3.5472   H         1 RES1   0.0000
   237 H138      2.2065   -3.5285    3.7490   H         1 RES1   0.0000
   238 H139      0.9856   -2.7918    1.1111   H         1 RES1   0.0000
   239 H140     -0.0130   -2.4726    2.5389   H         1 RES1   0.0000
   240 H141      0.2913   -4.8100    3.2820   H         1 RES1   0.0000
   241 H142      1.3407   -5.1256    1.9020   H         1 RES1   0.0000
   242 H143     -0.5667   -4.6950    0.3758   H         1 RES1   0.0000
   243 H144     -1.6322   -4.5497    1.7743   H         1 RES1   0.0000
   244 H145     -1.0891   -6.8344    2.4753   H         1 RES1   0.0000
   245 H146      0.1206   -6.9805    1.2070   H         1 RES1   0.0000
   246 H147     -2.8581   -6.6394    0.6830   H         1 RES1   0.0000
   247 H148     -2.0129   -8.1806    0.7603   H         1 RES1   0.0000
   248 H149     -2.2272   -7.5588   -1.5747   H         1 RES1   0.0000
   249 H150     -1.4675   -5.9926   -1.3066   H         1 RES1   0.0000
   250 H151     -0.5283   -7.4747   -1.1194   H         1 RES1   0.0000
   251 H152      5.7776   -1.2095    1.8254   H         1 RES1   0.0000
   252 H153      5.2900   -0.7653    0.1929   H         1 RES1   0.0000
   253 H154      5.8636   -3.5132    1.3257   H         1 RES1   0.0000
   254 H155      4.9812   -3.3438   -0.1884   H         1 RES1   0.0000
   255 H156      7.6145   -3.7199   -0.0529   H         1 RES1   0.0000
   256 H157      7.6592   -1.9744    0.0684   H         1 RES1   0.0000
   257 H158      6.6100   -1.7412   -2.1104   H         1 RES1   0.0000
   258 H159      6.1932   -3.4577   -2.1351   H         1 RES1   0.0000
   259 H160      8.2612   -4.1244   -2.8338   H         1 RES1   0.0000
   260 H161      9.5230   -1.6192   -1.6266   H         1 RES1   0.0000
   261 H162     10.3788   -2.8851   -2.4958   H         1 RES1   0.0000
   262 H163      9.6287   -3.2494   -0.9575   H         1 RES1   0.0000
   263 H164      9.1554   -2.5249   -4.4960   H         1 RES1   0.0000
   264 H165      8.2844   -1.2155   -3.7257   H         1 RES1   0.0000
   265 H166      6.9558   -1.6419   -5.5279   H         1 RES1   0.0000
   266 H167      6.1328   -2.5914   -4.3078   H         1 RES1   0.0000
   267 H168      6.4346   -4.5106   -5.5441   H         1 RES1   0.0000
   268 H169      8.1571   -4.2046   -5.6803   H         1 RES1   0.0000
   269 H170      7.7541   -2.6623   -7.5720   H         1 RES1   0.0000
   270 H171      5.4158   -2.7450   -8.6174   H         1 RES1   0.0000
   271 H172      4.8345   -3.3878   -7.0806   H         1 RES1   0.0000
   272 H173      5.5313   -1.7677   -7.1646   H         1 RES1   0.0000
   273 H174      6.3674   -5.3514   -7.9783   H         1 RES1   0.0000
   274 H175      8.1151   -5.1191   -7.9715   H         1 RES1   0.0000
   275 H176      7.1310   -4.3600   -9.2171   H         1 RES1   0.0000
   276 C89       6.1806    3.0843    0.4836   C.3       1 RES1   0.0000
   277 C90       6.8830    2.0854   -0.4310   C.3       1 RES1   0.0000
   278 C91       6.8665    2.5274   -1.8997   C.3       1 RES1   0.0000
   279 C92       5.6031    2.1129   -2.6634   C.3       1 RES1   0.0000
   280 C93       5.5931    0.6152   -2.9676   C.3       1 RES1   0.0000
   281 C94       4.4651    0.1265   -3.8895   C.3       1 RES1   0.0000
   282 C95       3.2947   -0.5911   -3.2069   C.3       1 RES1   0.0000
   283 C96       3.7205   -1.8973   -2.5275   C.3       1 RES1   0.0000
   284 N5        2.5943   -2.7781   -2.2064   N.am      1 RES1   0.0000
   285 C97       2.7971   -4.2378   -2.1367   C.3       1 RES1   0.0000
   286 C98       2.4561   -4.7937   -0.7415   C.3       1 RES1   0.0000
   287 C99       2.7984   -6.2833   -0.5047   C.3       1 RES1   0.0000
   288 C100      3.9817   -6.5341    0.4536   C.3       1 RES1   0.0000
   289 C101      3.7495   -6.4288    1.9835   C.3       1 RES1   0.0000
   290 C102      5.1034   -6.1781    2.6473   C.3       1 RES1   0.0000
   291 C103      3.0998   -7.6607    2.6489   C.3       1 RES1   0.0000
   292 C104      2.0752   -7.3675    3.7626   C.3       1 RES1   0.0000
   293 C105      2.5800   -6.5024    4.9187   C.3       1 RES1   0.0000
   294 C106      1.6148   -6.3747    6.1125   C.3       1 RES1   0.0000
   295 C107      0.3884   -5.5106    5.8167   C.3       1 RES1   0.0000
   296 C108      2.3603   -5.7930    7.3184   C.3       1 RES1   0.0000
   297 C109      1.4816   -2.2084   -1.7587   C.2       1 RES1   0.0000
   298 O7        1.4433   -1.0688   -1.2591   O.2       1 RES1   0.0000
   299 C110      0.1421   -2.8880   -1.9709   C.3       1 RES1   0.0000
   300 O8       -0.6231   -2.5390   -0.8427   O.3       1 RES1   0.0000
   301 C111     -1.9849   -2.8809   -0.9839   C.3       1 RES1   0.0000
   302 C112     -2.6072   -2.4732    0.3426   C.2       1 RES1   0.0000
   303 O9       -2.0269   -1.6031    1.0215   O.2       1 RES1   0.0000
   304 N6       -3.7149   -3.0932    0.7329   N.am      1 RES1   0.0000
   305 C113     -4.2095   -2.7705    2.0664   C.3       1 RES1   0.0000
   306 C114     -4.9833   -1.4562    2.1161   C.3       1 RES1   0.0000
   307 C115     -6.3145   -1.5217    1.3653   C.3       1 RES1   0.0000
   308 C116     -7.2914   -0.4260    1.7923   C.3       1 RES1   0.0000
   309 C117     -6.6735    0.9751    1.7795   C.3       1 RES1   0.0000
   310 C118     -7.7285    2.0372    1.4687   C.3       1 RES1   0.0000
   311 C119     -7.2649    3.4733    1.7120   C.3       1 RES1   0.0000
   312 C120     -6.0805    3.8909    0.8474   C.3       1 RES1   0.0000
   313 C121     -4.4325   -4.0471   -0.1045   C.3       1 RES1   0.0000
   314 C122     -4.9776   -3.4319   -1.4093   C.3       1 RES1   0.0000
   315 C123     -4.7205   -4.2690   -2.6736   C.3       1 RES1   0.0000
   316 C124     -4.9649   -3.4328   -3.9367   C.3       1 RES1   0.0000
   317 C125     -5.2737   -4.1786   -5.2498   C.3       1 RES1   0.0000
   318 C126     -6.4021   -5.1933   -5.0894   C.3       1 RES1   0.0000
   319 C127     -4.0404   -4.8132   -5.9112   C.3       1 RES1   0.0000
   320 C128     -3.2770   -3.8148   -6.7858   C.3       1 RES1   0.0000
   321 C129     -3.9940   -3.4979   -8.0988   C.3       1 RES1   0.0000
   322 C130     -3.4972   -2.1998   -8.7474   C.3       1 RES1   0.0000
   323 C131     -4.0386   -0.9704   -8.0198   C.3       1 RES1   0.0000
   324 C132     -3.9188   -2.1472  -10.2118   C.3       1 RES1   0.0000
   325 H177      6.7828    3.9787    0.5958   H         1 RES1   0.0000
   326 H178      6.0182    2.6651    1.4716   H         1 RES1   0.0000
   327 H179      5.2213    3.3798    0.0684   H         1 RES1   0.0000
   328 H180      6.4170    1.1006   -0.3292   H         1 RES1   0.0000
   329 H181      7.9172    1.9775   -0.1023   H         1 RES1   0.0000
   330 H182      7.7325    2.1071   -2.4149   H         1 RES1   0.0000
   331 H183      6.9689    3.6140   -1.9273   H         1 RES1   0.0000
   332 H184      5.5752    2.6666   -3.6002   H         1 RES1   0.0000
   333 H185      4.7152    2.3947   -2.0925   H         1 RES1   0.0000
   334 H186      5.5617    0.0706   -2.0257   H         1 RES1   0.0000
   335 H187      6.5451    0.3824   -3.4431   H         1 RES1   0.0000
   336 H188      4.8826   -0.5489   -4.6352   H         1 RES1   0.0000
   337 H189      4.0632    0.9814   -4.4339   H         1 RES1   0.0000
   338 H190      2.5560   -0.8392   -3.9729   H         1 RES1   0.0000
   339 H191      2.7998    0.0760   -2.5004   H         1 RES1   0.0000
   340 H192      4.2860   -1.6949   -1.6189   H         1 RES1   0.0000
   341 H193      4.3586   -2.4403   -3.2265   H         1 RES1   0.0000
   342 H194      3.8519   -4.4247   -2.3392   H         1 RES1   0.0000
   343 H195      2.2165   -4.7470   -2.9121   H         1 RES1   0.0000
   344 H196      3.0023   -4.1872   -0.0297   H         1 RES1   0.0000
   345 H197      1.4016   -4.6412   -0.5515   H         1 RES1   0.0000
   346 H198      3.0403   -6.7453   -1.4652   H         1 RES1   0.0000
   347 H199      1.9179   -6.7961   -0.1202   H         1 RES1   0.0000
   348 H200      4.7673   -5.8218    0.1887   H         1 RES1   0.0000
   349 H201      4.3807   -7.5300    0.2440   H         1 RES1   0.0000
   350 H202      3.1186   -5.5627    2.1886   H         1 RES1   0.0000
   351 H203      4.9877   -6.0663    3.7205   H         1 RES1   0.0000
   352 H204      5.5723   -5.2774    2.2565   H         1 RES1   0.0000
   353 H205      5.7730   -7.0157    2.4638   H         1 RES1   0.0000
   354 H206      3.8954   -8.2739    3.0749   H         1 RES1   0.0000
   355 H207      2.5953   -8.2729    1.8996   H         1 RES1   0.0000
   356 H208      1.7572   -8.3292    4.1696   H         1 RES1   0.0000
   357 H209      1.1945   -6.8992    3.3303   H         1 RES1   0.0000
   358 H210      2.8088   -5.4971    4.5561   H         1 RES1   0.0000
   359 H211      3.5064   -6.9326    5.2993   H         1 RES1   0.0000
   360 H212      1.2610   -7.3711    6.3840   H         1 RES1   0.0000
   361 H213      0.6831   -4.5295    5.4421   H         1 RES1   0.0000
   362 H214     -0.1810   -5.3553    6.7315   H         1 RES1   0.0000
   363 H215     -0.2725   -5.9912    5.0976   H         1 RES1   0.0000
   364 H216      2.7692   -4.8106    7.0871   H         1 RES1   0.0000
   365 H217      3.1786   -6.4435    7.6161   H         1 RES1   0.0000
   366 H218      1.6913   -5.6879    8.1707   H         1 RES1   0.0000
   367 H219      0.1841   -3.9677   -2.1227   H         1 RES1   0.0000
   368 H220     -0.2796   -2.4231   -2.8754   H         1 RES1   0.0000
   369 H221     -2.1071   -3.9554   -1.1757   H         1 RES1   0.0000
   370 H222     -2.4274   -2.3271   -1.8252   H         1 RES1   0.0000
   371 H223     -3.3461   -2.6952    2.7287   H         1 RES1   0.0000
   372 H224     -4.8438   -3.5899    2.4081   H         1 RES1   0.0000
   373 H225     -4.3399   -0.6729    1.7016   H         1 RES1   0.0000
   374 H226     -5.1686   -1.2280    3.1625   H         1 RES1   0.0000
   375 H227     -6.7816   -2.4889    1.5532   H         1 RES1   0.0000
   376 H228     -6.1312   -1.4412    0.2928   H         1 RES1   0.0000
   377 H229     -7.6820   -0.6359    2.7874   H         1 RES1   0.0000
   378 H230     -8.1399   -0.4494    1.1076   H         1 RES1   0.0000
   379 H231     -5.8907    1.0145    1.0192   H         1 RES1   0.0000
   380 H232     -6.2089    1.1956    2.7444   H         1 RES1   0.0000
   381 H233     -8.6077    1.8522    2.0871   H         1 RES1   0.0000
   382 H234     -8.0307    1.9322    0.4242   H         1 RES1   0.0000
   383 H235     -7.0166    3.6015    2.7673   H         1 RES1   0.0000
   384 H236     -8.0999    4.1400    1.4922   H         1 RES1   0.0000
   385 H237     -5.1896    3.3191    1.0950   H         1 RES1   0.0000
   386 H238     -6.3116    3.7448   -0.2023   H         1 RES1   0.0000
   387 H239     -5.8606    4.9418    1.0079   H         1 RES1   0.0000
   388 H240     -5.2587   -4.4229    0.4966   H         1 RES1   0.0000
   389 H241     -3.7883   -4.9012   -0.3393   H         1 RES1   0.0000
   390 H242     -4.5485   -2.4343   -1.5332   H         1 RES1   0.0000
   391 H243     -6.0555   -3.2980   -1.3162   H         1 RES1   0.0000
   392 H244     -5.3923   -5.1241   -2.6614   H         1 RES1   0.0000
   393 H245     -3.6997   -4.6547   -2.6835   H         1 RES1   0.0000
   394 H246     -4.0926   -2.7942   -4.1011   H         1 RES1   0.0000
   395 H247     -5.8190   -2.7826   -3.7466   H         1 RES1   0.0000
   396 H248     -5.6263   -3.4021   -5.9360   H         1 RES1   0.0000
   397 H249     -6.0521   -6.0929   -4.5907   H         1 RES1   0.0000
   398 H250     -6.7820   -5.4739   -6.0682   H         1 RES1   0.0000
   399 H251     -7.2224   -4.7664   -4.5183   H         1 RES1   0.0000
   400 H252     -4.3618   -5.6470   -6.5374   H         1 RES1   0.0000
   401 H253     -3.3734   -5.2170   -5.1453   H         1 RES1   0.0000
   402 H254     -2.2907   -4.2179   -7.0236   H         1 RES1   0.0000
   403 H255     -3.1183   -2.8981   -6.2171   H         1 RES1   0.0000
   404 H256     -5.0717   -3.4188   -7.9433   H         1 RES1   0.0000
   405 H257     -3.8310   -4.3258   -8.7891   H         1 RES1   0.0000
   406 H258     -2.4005   -2.1851   -8.6972   H         1 RES1   0.0000
   407 H259     -5.1228   -0.9331   -8.1135   H         1 RES1   0.0000
   408 H260     -3.6303   -0.0604   -8.4551   H         1 RES1   0.0000
   409 H261     -3.7866   -0.9903   -6.9623   H         1 RES1   0.0000
   410 H262     -4.9981   -2.2389  -10.3032   H         1 RES1   0.0000
   411 H263     -3.4586   -2.9573  -10.7677   H         1 RES1   0.0000
   412 H264     -3.6173   -1.2076  -10.6685   H         1 RES1   0.0000
@<TRIPOS>BOND
     1     1    24    1
     2     1    26    1
     3     1    29    1
     4     1   161    1
     5     1   163    1
     6     1   166    1
     7     1   298    1
     8     1   300    1
     9     1   303    1
    10     2     3    1
    11     2    51    1
    12     2    52    1
    13     2    53    1
    14     3     4    1
    15     3    54    1
    16     3    55    1
    17     4     5    1
    18     4    56    1
    19     4    57    1
    20     5     6    1
    21     5    58    1
    22     5    59    1
    23     6     7    1
    24     6    60    1
    25     6    61    1
    26     7     8    1
    27     7    62    1
    28     7    63    1
    29     8     9    1
    30     8    64    1
    31     8    65    1
    32     9    10    1
    33     9    66    1
    34     9    67    1
    35    10    11    1
    36    10    23    1
    37    11    12    1
    38    11    68    1
    39    11    69    1
    40    12    13    1
    41    12    70    1
    42    12    71    1
    43    13    14    1
    44    13    72    1
    45    13    73    1
    46    14    15    1
    47    14    74    1
    48    14    75    1
    49    15    16    1
    50    15    17    1
    51    15    76    1
    52    16    77    1
    53    16    78    1
    54    16    79    1
    55    17    18    1
    56    17    80    1
    57    17    81    1
    58    18    19    1
    59    18    82    1
    60    18    83    1
    61    19    20    1
    62    19    84    1
    63    19    85    1
    64    20    21    1
    65    20    22    1
    66    20    86    1
    67    21    87    1
    68    21    88    1
    69    21    89    1
    70    22    90    1
    71    22    91    1
    72    22    92    1
    73    23    24    2
    74    23    25    1
    75    25    26    1
    76    25    93    1
    77    25    94    1
    78    26    27    1
    79    27    28    1
    80    27    95    1
    81    27    96    1
    82    28    29    2
    83    28    30    1
    84    30    31    1
    85    30    39    1
    86    31    32    1
    87    31    97    1
    88    31    98    1
    89    32    33    1
    90    32    99    1
    91    32   100    1
    92    33    34    1
    93    33   101    1
    94    33   102    1
    95    34    35    1
    96    34   103    1
    97    34   104    1
    98    35    36    1
    99    35   105    1
   100    35   106    1
   101    36    37    1
   102    36   107    1
   103    36   108    1
   104    37    38    1
   105    37   109    1
   106    37   110    1
   107    38   111    1
   108    38   112    1
   109    38   113    1
   110    39    40    1
   111    39   114    1
   112    39   115    1
   113    40    41    1
   114    40   116    1
   115    40   117    1
   116    41    42    1
   117    41   118    1
   118    41   119    1
   119    42    43    1
   120    42   120    1
   121    42   121    1
   122    43    44    1
   123    43    45    1
   124    43   122    1
   125    44   123    1
   126    44   124    1
   127    44   125    1
   128    45    46    1
   129    45   126    1
   130    45   127    1
   131    46    47    1
   132    46   128    1
   133    46   129    1
   134    47    48    1
   135    47   130    1
   136    47   131    1
   137    48    49    1
   138    48    50    1
   139    48   132    1
   140    49   133    1
   141    49   134    1
   142    49   135    1
   143    50   136    1
   144    50   137    1
   145    50   138    1
   146   139   140    1
   147   139   188    1
   148   139   189    1
   149   139   190    1
   150   140   141    1
   151   140   191    1
   152   140   192    1
   153   141   142    1
   154   141   193    1
   155   141   194    1
   156   142   143    1
   157   142   195    1
   158   142   196    1
   159   143   144    1
   160   143   197    1
   161   143   198    1
   162   144   145    1
   163   144   199    1
   164   144   200    1
   165   145   146    1
   166   145   201    1
   167   145   202    1
   168   146   147    1
   169   146   203    1
   170   146   204    1
   171   147   148    1
   172   147   160    1
   173   148   149    1
   174   148   205    1
   175   148   206    1
   176   149   150    1
   177   149   207    1
   178   149   208    1
   179   150   151    1
   180   150   209    1
   181   150   210    1
   182   151   152    1
   183   151   211    1
   184   151   212    1
   185   152   153    1
   186   152   154    1
   187   152   213    1
   188   153   214    1
   189   153   215    1
   190   153   216    1
   191   154   155    1
   192   154   217    1
   193   154   218    1
   194   155   156    1
   195   155   219    1
   196   155   220    1
   197   156   157    1
   198   156   221    1
   199   156   222    1
   200   157   158    1
   201   157   159    1
   202   157   223    1
   203   158   224    1
   204   158   225    1
   205   158   226    1
   206   159   227    1
   207   159   228    1
   208   159   229    1
   209   160   161    2
   210   160   162    1
   211   162   163    1
   212   162   230    1
   213   162   231    1
   214   163   164    1
   215   164   165    1
   216   164   232    1
   217   164   233    1
   218   165   166    2
   219   165   167    1
   220   167   168    1
   221   167   176    1
   222   168   169    1
   223   168   234    1
   224   168   235    1
   225   169   170    1
   226   169   236    1
   227   169   237    1
   228   170   171    1
   229   170   238    1
   230   170   239    1
   231   171   172    1
   232   171   240    1
   233   171   241    1
   234   172   173    1
   235   172   242    1
   236   172   243    1
   237   173   174    1
   238   173   244    1
   239   173   245    1
   240   174   175    1
   241   174   246    1
   242   174   247    1
   243   175   248    1
   244   175   249    1
   245   175   250    1
   246   176   177    1
   247   176   251    1
   248   176   252    1
   249   177   178    1
   250   177   253    1
   251   177   254    1
   252   178   179    1
   253   178   255    1
   254   178   256    1
   255   179   180    1
   256   179   257    1
   257   179   258    1
   258   180   181    1
   259   180   182    1
   260   180   259    1
   261   181   260    1
   262   181   261    1
   263   181   262    1
   264   182   183    1
   265   182   263    1
   266   182   264    1
   267   183   184    1
   268   183   265    1
   269   183   266    1
   270   184   185    1
   271   184   267    1
   272   184   268    1
   273   185   186    1
   274   185   187    1
   275   185   269    1
   276   186   270    1
   277   186   271    1
   278   186   272    1
   279   187   273    1
   280   187   274    1
   281   187   275    1
   282   276   277    1
   283   276   325    1
   284   276   326    1
   285   276   327    1
   286   277   278    1
   287   277   328    1
   288   277   329    1
   289   278   279    1
   290   278   330    1
   291   278   331    1
   292   279   280    1
   293   279   332    1
   294   279   333    1
   295   280   281    1
   296   280   334    1
   297   280   335    1
   298   281   282    1
   299   281   336    1
   300   281   337    1
   301   282   283    1
   302   282   338    1
   303   282   339    1
   304   283   284    1
   305   283   340    1
   306   283   341    1
   307   284   285    1
   308   284   297    1
   309   285   286    1
   310   285   342    1
   311   285   343    1
   312   286   287    1
   313   286   344    1
   314   286   345    1
   315   287   288    1
   316   287   346    1
   317   287   347    1
   318   288   289    1
   319   288   348    1
   320   288   349    1
   321   289   290    1
   322   289   291    1
   323   289   350    1
   324   290   351    1
   325   290   352    1
   326   290   353    1
   327   291   292    1
   328   291   354    1
   329   291   355    1
   330   292   293    1
   331   292   356    1
   332   292   357    1
   333   293   294    1
   334   293   358    1
   335   293   359    1
   336   294   295    1
   337   294   296    1
   338   294   360    1
   339   295   361    1
   340   295   362    1
   341   295   363    1
   342   296   364    1
   343   296   365    1
   344   296   366    1
   345   297   298    2
   346   297   299    1
   347   299   300    1
   348   299   367    1
   349   299   368    1
   350   300   301    1
   351   301   302    1
   352   301   369    1
   353   301   370    1
   354   302   303    2
   355   302   304    1
   356   304   305    1
   357   304   313    1
   358   305   306    1
   359   305   371    1
   360   305   372    1
   361   306   307    1
   362   306   373    1
   363   306   374    1
   364   307   308    1
   365   307   375    1
   366   307   376    1
   367   308   309    1
   368   308   377    1
   369   308   378    1
   370   309   310    1
   371   309   379    1
   372   309   380    1
   373   310   311    1
   374   310   381    1
   375   310   382    1
   376   311   312    1
   377   311   383    1
   378   311   384    1
   379   312   385    1
   380   312   386    1
   381   312   387    1
   382   313   314    1
   383   313   388    1
   384   313   389    1
   385   314   315    1
   386   314   390    1
   387   314   391    1
   388   315   316    1
   389   315   392    1
   390   315   393    1
   391   316   317    1
   392   316   394    1
   393   316   395    1
   394   317   318    1
   395   317   319    1
   396   317   396    1
   397   318   397    1
   398   318   398    1
   399   318   399    1
   400   319   320    1
   401   319   400    1
   402   319   401    1
   403   320   321    1
   404   320   402    1
   405   320   403    1
   406   321   322    1
   407   321   404    1
   408   321   405    1
   409   322   323    1
   410   322   324    1
   411   322   406    1
   412   323   407    1
   413   323   408    1
   414   323   409    1
   415   324   410    1
   416   324   411    1
   417   324   412    1
@<TRIPOS>SUBSTRUCTURE
     1 RES1      412 GROUP             0 ****  ****    0  
