@<TRIPOS>MOLECULE
am_c3_9H2O_c0_0_nunpairedes_0_charge_3 Charge: 3 Unpaired_Electrons: 1 XTB_Unpaired_Electrons: 0 XTB_Charge: 3
   340   345     1     0     0
SMALL
NoCharges
****
Generated from Architector

@<TRIPOS>ATOM
     1 Ce1      -0.1898   -0.0803    0.0681   Ce        1 RES1   0.0000
     2 C1        0.2142    5.2833    5.0116   C.3       1 RES1   0.0000
     3 C2        0.0520    3.7916    5.2713   C.3       1 RES1   0.0000
     4 C3       -1.1775    3.5054    6.1347   C.3       1 RES1   0.0000
     5 C4       -1.1261    2.1455    6.8240   C.3       1 RES1   0.0000
     6 C5       -1.2499    0.9470    5.8796   C.3       1 RES1   0.0000
     7 C6       -2.6952    0.5302    5.6065   C.3       1 RES1   0.0000
     8 C7       -2.7139   -0.7646    4.8013   C.3       1 RES1   0.0000
     9 C8       -4.1191   -1.3170    4.5529   C.3       1 RES1   0.0000
    10 C9       -4.1264   -2.8270    4.2987   C.3       1 RES1   0.0000
    11 C10      -3.7198   -3.2337    2.8760   C.3       1 RES1   0.0000
    12 N1       -2.4023   -2.7644    2.4921   N.am      1 RES1   0.0000
    13 C11      -1.2612   -3.3430    3.2158   C.3       1 RES1   0.0000
    14 C12      -0.3285   -4.1685    2.3194   C.3       1 RES1   0.0000
    15 C13       0.7912   -4.8155    3.1485   C.3       1 RES1   0.0000
    16 C14       1.8440   -5.6363    2.3796   C.3       1 RES1   0.0000
    17 C15       2.7458   -4.7429    1.5263   C.3       1 RES1   0.0000
    18 C16       3.9523   -5.3788    0.8250   C.3       1 RES1   0.0000
    19 C17       4.9868   -4.3508    0.3152   C.3       1 RES1   0.0000
    20 C18       4.6961   -3.6098   -1.0068   C.3       1 RES1   0.0000
    21 C19       5.5885   -4.0879   -2.1560   C.3       1 RES1   0.0000
    22 C20       5.2770   -5.5232   -2.5434   C.3       1 RES1   0.0000
    23 C21      -2.1537   -1.6926    1.7432   C.2       1 RES1   0.0000
    24 O1       -0.9949   -1.2499    1.6951   O.2       1 RES1   0.0000
    25 C22      -3.2836   -1.0004    0.9302   C.3       1 RES1   0.0000
    26 O2       -2.6983    0.0062    0.1067   O.3       1 RES1   0.0000
    27 C23      -3.3755    0.3185   -1.1120   C.3       1 RES1   0.0000
    28 C24      -2.3293    0.7656   -2.1510   C.2       1 RES1   0.0000
    29 O3       -1.1227    0.6336   -1.8644   O.2       1 RES1   0.0000
    30 N2       -2.7114    1.2151   -3.3423   N.am      1 RES1   0.0000
    31 C25      -3.9843    1.8570   -3.6219   C.3       1 RES1   0.0000
    32 C26      -3.8825    3.3542   -3.3031   C.3       1 RES1   0.0000
    33 C27      -5.2042    4.1251   -3.3929   C.3       1 RES1   0.0000
    34 C28      -5.7080    4.3556   -4.8221   C.3       1 RES1   0.0000
    35 C29      -6.6865    3.3012   -5.3447   C.3       1 RES1   0.0000
    36 C30      -8.0077    3.3070   -4.5822   C.3       1 RES1   0.0000
    37 C31      -1.7280    1.3135   -4.4179   C.3       1 RES1   0.0000
    38 C32      -2.0554    0.3401   -5.5573   C.3       1 RES1   0.0000
    39 C33      -1.9963   -1.1320   -5.1496   C.3       1 RES1   0.0000
    40 C34      -2.5901   -2.0340   -6.2312   C.3       1 RES1   0.0000
    41 C35      -2.5482   -3.5080   -5.8356   C.3       1 RES1   0.0000
    42 C36      -3.2879   -4.4031   -6.8225   C.3       1 RES1   0.0000
    43 H1        0.9830    5.4727    4.2669   H         1 RES1   0.0000
    44 H2        0.4974    5.7908    5.9275   H         1 RES1   0.0000
    45 H3       -0.7184    5.7242    4.6710   H         1 RES1   0.0000
    46 H4        0.9431    3.4276    5.7846   H         1 RES1   0.0000
    47 H5       -0.0135    3.2588    4.3186   H         1 RES1   0.0000
    48 H6       -2.0850    3.5897    5.5356   H         1 RES1   0.0000
    49 H7       -1.2279    4.2656    6.9120   H         1 RES1   0.0000
    50 H8       -1.9264    2.0824    7.5622   H         1 RES1   0.0000
    51 H9       -0.1828    2.0792    7.3684   H         1 RES1   0.0000
    52 H10      -0.7394    0.0904    6.3292   H         1 RES1   0.0000
    53 H11      -0.7599    1.1528    4.9231   H         1 RES1   0.0000
    54 H12      -3.2207    1.3174    5.0641   H         1 RES1   0.0000
    55 H13      -3.2168    0.3743    6.5506   H         1 RES1   0.0000
    56 H14      -2.1387   -1.5080    5.3577   H         1 RES1   0.0000
    57 H15      -2.1906   -0.5720    3.8636   H         1 RES1   0.0000
    58 H16      -4.5952   -0.7900    3.7212   H         1 RES1   0.0000
    59 H17      -4.7180   -1.1378    5.4470   H         1 RES1   0.0000
    60 H18      -5.1302   -3.2243    4.4664   H         1 RES1   0.0000
    61 H19      -3.4627   -3.3011    5.0224   H         1 RES1   0.0000
    62 H20      -4.4600   -2.8419    2.1834   H         1 RES1   0.0000
    63 H21      -3.7065   -4.3244    2.7992   H         1 RES1   0.0000
    64 H22      -1.6583   -3.9722    4.0101   H         1 RES1   0.0000
    65 H23      -0.6848   -2.5259    3.6580   H         1 RES1   0.0000
    66 H24       0.0891   -3.5033    1.5614   H         1 RES1   0.0000
    67 H25      -0.9243   -4.9413    1.8332   H         1 RES1   0.0000
    68 H26       0.3164   -5.4668    3.8817   H         1 RES1   0.0000
    69 H27       1.3000   -4.0278    3.7069   H         1 RES1   0.0000
    70 H28       1.3622   -6.3913    1.7634   H         1 RES1   0.0000
    71 H29       2.4472   -6.1679    3.1151   H         1 RES1   0.0000
    72 H30       3.1175   -3.9621    2.1839   H         1 RES1   0.0000
    73 H31       2.1169   -4.2687    0.7885   H         1 RES1   0.0000
    74 H32       3.6236   -6.0206    0.0093   H         1 RES1   0.0000
    75 H33       4.4655   -6.0235    1.5365   H         1 RES1   0.0000
    76 H34       5.9420   -4.8563    0.1646   H         1 RES1   0.0000
    77 H35       5.1666   -3.6287    1.1187   H         1 RES1   0.0000
    78 H36       4.8878   -2.5405   -0.8747   H         1 RES1   0.0000
    79 H37       3.6508   -3.7343   -1.3027   H         1 RES1   0.0000
    80 H38       6.6350   -3.9929   -1.8646   H         1 RES1   0.0000
    81 H39       5.4490   -3.4312   -3.0182   H         1 RES1   0.0000
    82 H40       5.5712   -6.2075   -1.7541   H         1 RES1   0.0000
    83 H41       5.8036   -5.7930   -3.4513   H         1 RES1   0.0000
    84 H42       4.2096   -5.6405   -2.7204   H         1 RES1   0.0000
    85 H43      -4.0191   -0.5557    1.6225   H         1 RES1   0.0000
    86 H44      -3.7845   -1.7462    0.2986   H         1 RES1   0.0000
    87 H45      -4.1242    1.1051   -0.9523   H         1 RES1   0.0000
    88 H46      -3.8805   -0.5733   -1.5215   H         1 RES1   0.0000
    89 H47      -4.7724    1.4019   -3.0321   H         1 RES1   0.0000
    90 H48      -4.2348    1.7214   -4.6717   H         1 RES1   0.0000
    91 H49      -3.1637    3.8216   -3.9786   H         1 RES1   0.0000
    92 H50      -3.4868    3.4504   -2.2866   H         1 RES1   0.0000
    93 H51      -5.0420    5.1000   -2.9292   H         1 RES1   0.0000
    94 H52      -5.9733    3.6322   -2.7992   H         1 RES1   0.0000
    95 H53      -4.8493    4.4225   -5.4937   H         1 RES1   0.0000
    96 H54      -6.2270    5.3138   -4.8629   H         1 RES1   0.0000
    97 H55      -6.2430    2.3036   -5.3035   H         1 RES1   0.0000
    98 H56      -6.8977    3.5167   -6.3942   H         1 RES1   0.0000
    99 H57      -7.8650    3.0690   -3.5302   H         1 RES1   0.0000
   100 H58      -8.6973    2.5778   -5.0002   H         1 RES1   0.0000
   101 H59      -8.4700    4.2881   -4.6464   H         1 RES1   0.0000
   102 H60      -0.7467    1.0873   -3.9998   H         1 RES1   0.0000
   103 H61      -1.7246    2.3337   -4.8062   H         1 RES1   0.0000
   104 H62      -1.3535    0.5162   -6.3748   H         1 RES1   0.0000
   105 H63      -3.0526    0.5629   -5.9417   H         1 RES1   0.0000
   106 H64      -2.5496   -1.2799   -4.2179   H         1 RES1   0.0000
   107 H65      -0.9630   -1.4323   -4.9636   H         1 RES1   0.0000
   108 H66      -2.0458   -1.9007   -7.1667   H         1 RES1   0.0000
   109 H67      -3.6252   -1.7449   -6.4139   H         1 RES1   0.0000
   110 H68      -2.9982   -3.6220   -4.8447   H         1 RES1   0.0000
   111 H69      -1.5056   -3.8280   -5.7697   H         1 RES1   0.0000
   112 H70      -3.1928   -5.4455   -6.5297   H         1 RES1   0.0000
   113 H71      -2.8817   -4.2910   -7.8231   H         1 RES1   0.0000
   114 H72      -4.3456   -4.1562   -6.8557   H         1 RES1   0.0000
   115 C37       8.2037   -7.8162    0.8503   C.3       1 RES1   0.0000
   116 C38       7.5875   -6.7290    1.7193   C.3       1 RES1   0.0000
   117 C39       8.6418   -5.9437    2.4956   C.3       1 RES1   0.0000
   118 C40       8.1578   -4.6037    3.0631   C.3       1 RES1   0.0000
   119 C41       7.4377   -4.6616    4.4176   C.3       1 RES1   0.0000
   120 C42       5.9977   -5.1804    4.3250   C.3       1 RES1   0.0000
   121 C43       5.0368   -4.6281    5.3943   C.3       1 RES1   0.0000
   122 C44       4.0225   -3.6488    4.7909   C.3       1 RES1   0.0000
   123 C45       4.6668   -2.3030    4.4344   C.3       1 RES1   0.0000
   124 C46       4.2721   -1.6074    3.1235   C.3       1 RES1   0.0000
   125 N3        2.9106   -1.0910    2.9505   N.am      1 RES1   0.0000
   126 C47       2.1467   -0.6352    4.1164   C.3       1 RES1   0.0000
   127 C48       2.2373    0.8360    4.5378   C.3       1 RES1   0.0000
   128 C49       3.6050    1.2763    5.0599   C.3       1 RES1   0.0000
   129 C50       4.4917    1.8911    3.9799   C.3       1 RES1   0.0000
   130 C51       4.0760    3.3176    3.6284   C.3       1 RES1   0.0000
   131 C52       4.8798    3.8894    2.4597   C.3       1 RES1   0.0000
   132 C53       4.5832    3.1536    1.1570   C.3       1 RES1   0.0000
   133 C54       5.2559    3.7582   -0.0745   C.3       1 RES1   0.0000
   134 C55       6.7756    3.6074   -0.0926   C.3       1 RES1   0.0000
   135 C56       7.2275    2.1531   -0.1304   C.3       1 RES1   0.0000
   136 C57       2.3350   -0.8359    1.7750   C.2       1 RES1   0.0000
   137 O4        1.4293    0.0152    1.6795   O.2       1 RES1   0.0000
   138 C58       2.5974   -1.6524    0.4841   C.3       1 RES1   0.0000
   139 O5        1.2684   -2.1358    0.1566   O.3       1 RES1   0.0000
   140 C59       1.0444   -2.9515   -1.0081   C.3       1 RES1   0.0000
   141 C60      -0.4877   -3.0317   -1.1327   C.2       1 RES1   0.0000
   142 O6       -1.0934   -1.9663   -0.9010   O.2       1 RES1   0.0000
   143 N4       -1.1654   -4.1099   -1.5167   N.am      1 RES1   0.0000
   144 C61      -0.6023   -5.4183   -1.8521   C.3       1 RES1   0.0000
   145 C62       0.0295   -6.1820   -0.6733   C.3       1 RES1   0.0000
   146 C63      -0.7809   -7.3720   -0.1274   C.3       1 RES1   0.0000
   147 C64      -2.2099   -6.9923    0.2664   C.3       1 RES1   0.0000
   148 C65      -2.8524   -7.8680    1.3473   C.3       1 RES1   0.0000
   149 C66      -2.3422   -7.5598    2.7513   C.3       1 RES1   0.0000
   150 C67      -2.5329   -3.8581   -1.9707   C.3       1 RES1   0.0000
   151 C68      -3.6619   -4.2420   -1.0126   C.3       1 RES1   0.0000
   152 C69      -4.9712   -3.6476   -1.5328   C.3       1 RES1   0.0000
   153 C70      -6.2438   -4.1200   -0.8291   C.3       1 RES1   0.0000
   154 C71      -6.4479   -3.5293    0.5676   C.3       1 RES1   0.0000
   155 C72      -7.9137   -3.5172    0.9832   C.3       1 RES1   0.0000
   156 H73       7.4305   -8.3554    0.3099   H         1 RES1   0.0000
   157 H74       8.7621   -8.5199    1.4582   H         1 RES1   0.0000
   158 H75       8.8844   -7.3859    0.1220   H         1 RES1   0.0000
   159 H76       6.8732   -7.1814    2.4068   H         1 RES1   0.0000
   160 H77       7.0373   -6.0397    1.0770   H         1 RES1   0.0000
   161 H78       9.4717   -5.7446    1.8155   H         1 RES1   0.0000
   162 H79       9.0380   -6.5664    3.2976   H         1 RES1   0.0000
   163 H80       7.5090   -4.1109    2.3298   H         1 RES1   0.0000
   164 H81       9.0331   -3.9643    3.1895   H         1 RES1   0.0000
   165 H82       7.4290   -3.6481    4.8301   H         1 RES1   0.0000
   166 H83       8.0113   -5.2784    5.1130   H         1 RES1   0.0000
   167 H84       6.0168   -6.2676    4.3766   H         1 RES1   0.0000
   168 H85       5.6123   -4.9202    3.3380   H         1 RES1   0.0000
   169 H86       5.6020   -4.1465    6.1918   H         1 RES1   0.0000
   170 H87       4.4836   -5.4514    5.8446   H         1 RES1   0.0000
   171 H88       3.1880   -3.5033    5.4788   H         1 RES1   0.0000
   172 H89       3.6246   -4.1255    3.9026   H         1 RES1   0.0000
   173 H90       5.7359   -2.4766    4.3136   H         1 RES1   0.0000
   174 H91       4.5690   -1.6215    5.2771   H         1 RES1   0.0000
   175 H92       4.9431   -0.7458    3.0273   H         1 RES1   0.0000
   176 H93       4.4903   -2.2854    2.2989   H         1 RES1   0.0000
   177 H94       2.4306   -1.2705    4.9555   H         1 RES1   0.0000
   178 H95       1.1004   -0.8278    3.8496   H         1 RES1   0.0000
   179 H96       1.5059    0.9459    5.3384   H         1 RES1   0.0000
   180 H97       1.9053    1.4817    3.7229   H         1 RES1   0.0000
   181 H98       4.1040    0.4189    5.5095   H         1 RES1   0.0000
   182 H99       3.4633    2.0074    5.8558   H         1 RES1   0.0000
   183 H100      4.4451    1.2796    3.0772   H         1 RES1   0.0000
   184 H101      5.5272    1.9075    4.3200   H         1 RES1   0.0000
   185 H102      4.2171    3.9561    4.4998   H         1 RES1   0.0000
   186 H103      3.0097    3.3390    3.3846   H         1 RES1   0.0000
   187 H104      5.9429    3.8194    2.6842   H         1 RES1   0.0000
   188 H105      4.6359    4.9471    2.3392   H         1 RES1   0.0000
   189 H106      3.4971    3.1618    1.0182   H         1 RES1   0.0000
   190 H107      4.8920    2.1116    1.2484   H         1 RES1   0.0000
   191 H108      4.9930    4.8157   -0.1452   H         1 RES1   0.0000
   192 H109      4.8660    3.2572   -0.9688   H         1 RES1   0.0000
   193 H110      7.2077    4.1015    0.7751   H         1 RES1   0.0000
   194 H111      7.1568    4.1163   -0.9780   H         1 RES1   0.0000
   195 H112      6.9938    1.6394    0.7977   H         1 RES1   0.0000
   196 H113      8.3013    2.0985   -0.2756   H         1 RES1   0.0000
   197 H114      6.7492    1.6170   -0.9485   H         1 RES1   0.0000
   198 H115      3.2692   -2.4909    0.6367   H         1 RES1   0.0000
   199 H116      2.9886   -0.9942   -0.3108   H         1 RES1   0.0000
   200 H117      1.5323   -3.9266   -0.9376   H         1 RES1   0.0000
   201 H118      1.3947   -2.4467   -1.9238   H         1 RES1   0.0000
   202 H119      0.1241   -5.2779   -2.6541   H         1 RES1   0.0000
   203 H120     -1.4064   -6.0250   -2.2614   H         1 RES1   0.0000
   204 H121      0.1786   -5.4755    0.1380   H         1 RES1   0.0000
   205 H122      1.0066   -6.5649   -0.9762   H         1 RES1   0.0000
   206 H123     -0.2553   -7.7508    0.7525   H         1 RES1   0.0000
   207 H124     -0.8063   -8.1822   -0.8588   H         1 RES1   0.0000
   208 H125     -2.8372   -7.0535   -0.6225   H         1 RES1   0.0000
   209 H126     -2.2193   -5.9581    0.6199   H         1 RES1   0.0000
   210 H127     -2.6847   -8.9218    1.1243   H         1 RES1   0.0000
   211 H128     -3.9333   -7.6974    1.3326   H         1 RES1   0.0000
   212 H129     -1.2695   -7.7209    2.8336   H         1 RES1   0.0000
   213 H130     -2.8318   -8.2079    3.4744   H         1 RES1   0.0000
   214 H131     -2.5578   -6.5241    3.0189   H         1 RES1   0.0000
   215 H132     -2.6599   -4.4048   -2.9041   H         1 RES1   0.0000
   216 H133     -2.5942   -2.7847   -2.1838   H         1 RES1   0.0000
   217 H134     -3.4238   -3.8837   -0.0109   H         1 RES1   0.0000
   218 H135     -3.7676   -5.3232   -0.9636   H         1 RES1   0.0000
   219 H136     -5.0459   -3.8993   -2.5926   H         1 RES1   0.0000
   220 H137     -4.9277   -2.5574   -1.4675   H         1 RES1   0.0000
   221 H138     -6.2515   -5.2079   -0.7746   H         1 RES1   0.0000
   222 H139     -7.0835   -3.8182   -1.4545   H         1 RES1   0.0000
   223 H140     -6.0789   -2.4968    0.5789   H         1 RES1   0.0000
   224 H141     -5.8845   -4.1140    1.2963   H         1 RES1   0.0000
   225 H142     -8.5087   -2.9416    0.2800   H         1 RES1   0.0000
   226 H143     -8.0195   -3.0721    1.9681   H         1 RES1   0.0000
   227 H144     -8.3145   -4.5241    1.0242   H         1 RES1   0.0000
   228 C73      -0.4560    3.2837   -7.8614   C.3       1 RES1   0.0000
   229 C74      -0.6426    4.7646   -7.5521   C.3       1 RES1   0.0000
   230 C75      -1.3538    4.9791   -6.2187   C.3       1 RES1   0.0000
   231 C76      -1.4985    6.4582   -5.8667   C.3       1 RES1   0.0000
   232 C77      -2.2139    6.7135   -4.5362   C.3       1 RES1   0.0000
   233 C78      -1.4289    6.1979   -3.3309   C.3       1 RES1   0.0000
   234 C79      -2.1231    6.4411   -1.9922   C.3       1 RES1   0.0000
   235 C80      -1.4112    5.6717   -0.8830   C.3       1 RES1   0.0000
   236 C81      -1.9944    5.9349    0.5007   C.3       1 RES1   0.0000
   237 C82      -1.2011    5.2562    1.6227   C.3       1 RES1   0.0000
   238 N5       -1.4431    3.8254    1.7132   N.am      1 RES1   0.0000
   239 C83      -2.5232    3.3440    2.5810   C.3       1 RES1   0.0000
   240 C84      -3.6700    2.6396    1.8352   C.3       1 RES1   0.0000
   241 C85      -4.9005    3.5091    1.5496   C.3       1 RES1   0.0000
   242 C86      -5.6684    3.0739    0.2972   C.3       1 RES1   0.0000
   243 C87      -6.3392    1.6992    0.3611   C.3       1 RES1   0.0000
   244 C88      -6.9898    1.3310   -0.9806   C.3       1 RES1   0.0000
   245 C89      -7.2579   -0.1651   -1.1432   C.3       1 RES1   0.0000
   246 C90      -7.9547   -0.5372   -2.4587   C.3       1 RES1   0.0000
   247 C91      -7.1656   -0.2566   -3.7412   C.3       1 RES1   0.0000
   248 C92      -5.9342   -1.1321   -3.9428   C.3       1 RES1   0.0000
   249 C93      -0.6743    2.8890    1.1751   C.2       1 RES1   0.0000
   250 O7       -0.9571    1.6823    1.2760   O.2       1 RES1   0.0000
   251 C94       0.6221    3.2540    0.4360   C.3       1 RES1   0.0000
   252 O8        0.9932    2.0697   -0.2619   O.3       1 RES1   0.0000
   253 C95       2.0285    2.2396   -1.2252   C.3       1 RES1   0.0000
   254 C96       2.0016    0.9956   -2.1060   C.2       1 RES1   0.0000
   255 O9        1.4216   -0.0179   -1.6719   O.2       1 RES1   0.0000
   256 N6        2.5832    1.0018   -3.2961   N.am      1 RES1   0.0000
   257 C97       3.4674    2.0299   -3.8121   C.3       1 RES1   0.0000
   258 C98       2.8085    2.9928   -4.8083   C.3       1 RES1   0.0000
   259 C99       2.1616    4.2309   -4.1855   C.3       1 RES1   0.0000
   260 C100      3.1562    5.1172   -3.4329   C.3       1 RES1   0.0000
   261 C101      2.5121    6.3508   -2.7916   C.3       1 RES1   0.0000
   262 C102      2.1981    7.4346   -3.8177   C.3       1 RES1   0.0000
   263 C103      2.3706   -0.1347   -4.1834   C.3       1 RES1   0.0000
   264 C104      3.5535   -1.1026   -4.2295   C.3       1 RES1   0.0000
   265 C105      3.5090   -1.9976   -5.4778   C.3       1 RES1   0.0000
   266 C106      3.0299   -3.4220   -5.2080   C.3       1 RES1   0.0000
   267 C107      1.5164   -3.5698   -5.0858   C.3       1 RES1   0.0000
   268 C108      1.1332   -5.0428   -5.1065   C.3       1 RES1   0.0000
   269 H145      0.0639    3.1563   -8.8068   H         1 RES1   0.0000
   270 H146     -1.4201    2.7842   -7.9358   H         1 RES1   0.0000
   271 H147      0.1256    2.7950   -7.0787   H         1 RES1   0.0000
   272 H148     -1.2230    5.2251   -8.3508   H         1 RES1   0.0000
   273 H149      0.3310    5.2577   -7.5318   H         1 RES1   0.0000
   274 H150     -0.7853    4.4659   -5.4383   H         1 RES1   0.0000
   275 H151     -2.3463    4.5243   -6.2729   H         1 RES1   0.0000
   276 H152     -2.0620    6.9473   -6.6615   H         1 RES1   0.0000
   277 H153     -0.5110    6.9223   -5.8361   H         1 RES1   0.0000
   278 H154     -3.2012    6.2473   -4.5610   H         1 RES1   0.0000
   279 H155     -2.3616    7.7887   -4.4202   H         1 RES1   0.0000
   280 H156     -0.4545    6.6864   -3.3173   H         1 RES1   0.0000
   281 H157     -1.2585    5.1234   -3.4379   H         1 RES1   0.0000
   282 H158     -3.1651    6.1277   -2.0445   H         1 RES1   0.0000
   283 H159     -2.1115    7.5058   -1.7670   H         1 RES1   0.0000
   284 H160     -0.3592    5.9732   -0.8876   H         1 RES1   0.0000
   285 H161     -1.4682    4.5997   -1.1021   H         1 RES1   0.0000
   286 H162     -3.0329    5.6031    0.5368   H         1 RES1   0.0000
   287 H163     -1.9832    7.0073    0.6936   H         1 RES1   0.0000
   288 H164     -0.1353    5.4463    1.4846   H         1 RES1   0.0000
   289 H165     -1.4836    5.6977    2.5802   H         1 RES1   0.0000
   290 H166     -2.8845    4.1898    3.1638   H         1 RES1   0.0000
   291 H167     -2.0495    2.6240    3.2555   H         1 RES1   0.0000
   292 H168     -3.9721    1.7806    2.4366   H         1 RES1   0.0000
   293 H169     -3.2641    2.2484    0.9013   H         1 RES1   0.0000
   294 H170     -4.5918    4.5452    1.3967   H         1 RES1   0.0000
   295 H171     -5.5592    3.4968    2.4176   H         1 RES1   0.0000
   296 H172     -4.9722    3.1094   -0.5468   H         1 RES1   0.0000
   297 H173     -6.4486    3.8093    0.1019   H         1 RES1   0.0000
   298 H174     -7.1075    1.7160    1.1317   H         1 RES1   0.0000
   299 H175     -5.6144    0.9342    0.6501   H         1 RES1   0.0000
   300 H176     -6.3465    1.6688   -1.7950   H         1 RES1   0.0000
   301 H177     -7.9340    1.8667   -1.0776   H         1 RES1   0.0000
   302 H178     -7.8908   -0.4914   -0.3162   H         1 RES1   0.0000
   303 H179     -6.3172   -0.7143   -1.0608   H         1 RES1   0.0000
   304 H180     -8.8959    0.0126   -2.5138   H         1 RES1   0.0000
   305 H181     -8.2011   -1.6010   -2.4314   H         1 RES1   0.0000
   306 H182     -6.8827    0.7939   -3.7711   H         1 RES1   0.0000
   307 H183     -7.8327   -0.4227   -4.5878   H         1 RES1   0.0000
   308 H184     -5.1841   -0.9653   -3.1735   H         1 RES1   0.0000
   309 H185     -6.2081   -2.1824   -3.9316   H         1 RES1   0.0000
   310 H186     -5.4728   -0.9125   -4.9018   H         1 RES1   0.0000
   311 H187      1.3926    3.5324    1.1758   H         1 RES1   0.0000
   312 H188      0.4812    4.0844   -0.2638   H         1 RES1   0.0000
   313 H189      3.0051    2.3225   -0.7287   H         1 RES1   0.0000
   314 H190      1.8378    3.1391   -1.8194   H         1 RES1   0.0000
   315 H191      4.2761    1.5119   -4.3279   H         1 RES1   0.0000
   316 H192      3.9267    2.5760   -2.9921   H         1 RES1   0.0000
   317 H193      2.0592    2.4457   -5.3863   H         1 RES1   0.0000
   318 H194      3.5760    3.3249   -5.5088   H         1 RES1   0.0000
   319 H195      1.3411    3.9247   -3.5276   H         1 RES1   0.0000
   320 H196      1.7289    4.8192   -4.9937   H         1 RES1   0.0000
   321 H197      3.9321    5.4519   -4.1233   H         1 RES1   0.0000
   322 H198      3.6447    4.5491   -2.6413   H         1 RES1   0.0000
   323 H199      3.1968    6.7668   -2.0460   H         1 RES1   0.0000
   324 H200      1.5938    6.0573   -2.2683   H         1 RES1   0.0000
   325 H201      3.1146    7.7761   -4.2945   H         1 RES1   0.0000
   326 H202      1.7278    8.2942   -3.3435   H         1 RES1   0.0000
   327 H203      1.5300    7.0574   -4.5900   H         1 RES1   0.0000
   328 H204      2.1972    0.2772   -5.1797   H         1 RES1   0.0000
   329 H205      1.4716   -0.6613   -3.8546   H         1 RES1   0.0000
   330 H206      3.5595   -1.7199   -3.3278   H         1 RES1   0.0000
   331 H207      4.4838   -0.5308   -4.2347   H         1 RES1   0.0000
   332 H208      4.5106   -2.0525   -5.9033   H         1 RES1   0.0000
   333 H209      2.8641   -1.5363   -6.2284   H         1 RES1   0.0000
   334 H210      3.5105   -3.8024   -4.3060   H         1 RES1   0.0000
   335 H211      3.3568   -4.0538   -6.0320   H         1 RES1   0.0000
   336 H212      1.0352   -3.0626   -5.9236   H         1 RES1   0.0000
   337 H213      1.1551   -3.0955   -4.1668   H         1 RES1   0.0000
   338 H214      1.4119   -5.4777   -6.0597   H         1 RES1   0.0000
   339 H215      0.0642   -5.1835   -4.9783   H         1 RES1   0.0000
   340 H216      1.6620   -5.5879   -4.3291   H         1 RES1   0.0000
@<TRIPOS>BOND
     1     1    24    1
     2     1    26    1
     3     1    29    1
     4     1   137    1
     5     1   139    1
     6     1   142    1
     7     1   250    1
     8     1   252    1
     9     1   255    1
    10     2     3    1
    11     2    43    1
    12     2    44    1
    13     2    45    1
    14     3     4    1
    15     3    46    1
    16     3    47    1
    17     4     5    1
    18     4    48    1
    19     4    49    1
    20     5     6    1
    21     5    50    1
    22     5    51    1
    23     6     7    1
    24     6    52    1
    25     6    53    1
    26     7     8    1
    27     7    54    1
    28     7    55    1
    29     8     9    1
    30     8    56    1
    31     8    57    1
    32     9    10    1
    33     9    58    1
    34     9    59    1
    35    10    11    1
    36    10    60    1
    37    10    61    1
    38    11    12    1
    39    11    62    1
    40    11    63    1
    41    12    13    1
    42    12    23    1
    43    13    14    1
    44    13    64    1
    45    13    65    1
    46    14    15    1
    47    14    66    1
    48    14    67    1
    49    15    16    1
    50    15    68    1
    51    15    69    1
    52    16    17    1
    53    16    70    1
    54    16    71    1
    55    17    18    1
    56    17    72    1
    57    17    73    1
    58    18    19    1
    59    18    74    1
    60    18    75    1
    61    19    20    1
    62    19    76    1
    63    19    77    1
    64    20    21    1
    65    20    78    1
    66    20    79    1
    67    21    22    1
    68    21    80    1
    69    21    81    1
    70    22    82    1
    71    22    83    1
    72    22    84    1
    73    23    24    2
    74    23    25    1
    75    25    26    1
    76    25    85    1
    77    25    86    1
    78    26    27    1
    79    27    28    1
    80    27    87    1
    81    27    88    1
    82    28    29    2
    83    28    30    1
    84    30    31    1
    85    30    37    1
    86    31    32    1
    87    31    89    1
    88    31    90    1
    89    32    33    1
    90    32    91    1
    91    32    92    1
    92    33    34    1
    93    33    93    1
    94    33    94    1
    95    34    35    1
    96    34    95    1
    97    34    96    1
    98    35    36    1
    99    35    97    1
   100    35    98    1
   101    36    99    1
   102    36   100    1
   103    36   101    1
   104    37    38    1
   105    37   102    1
   106    37   103    1
   107    38    39    1
   108    38   104    1
   109    38   105    1
   110    39    40    1
   111    39   106    1
   112    39   107    1
   113    40    41    1
   114    40   108    1
   115    40   109    1
   116    41    42    1
   117    41   110    1
   118    41   111    1
   119    42   112    1
   120    42   113    1
   121    42   114    1
   122   115   116    1
   123   115   156    1
   124   115   157    1
   125   115   158    1
   126   116   117    1
   127   116   159    1
   128   116   160    1
   129   117   118    1
   130   117   161    1
   131   117   162    1
   132   118   119    1
   133   118   163    1
   134   118   164    1
   135   119   120    1
   136   119   165    1
   137   119   166    1
   138   120   121    1
   139   120   167    1
   140   120   168    1
   141   121   122    1
   142   121   169    1
   143   121   170    1
   144   122   123    1
   145   122   171    1
   146   122   172    1
   147   123   124    1
   148   123   173    1
   149   123   174    1
   150   124   125    1
   151   124   175    1
   152   124   176    1
   153   125   126    1
   154   125   136    1
   155   126   127    1
   156   126   177    1
   157   126   178    1
   158   127   128    1
   159   127   179    1
   160   127   180    1
   161   128   129    1
   162   128   181    1
   163   128   182    1
   164   129   130    1
   165   129   183    1
   166   129   184    1
   167   130   131    1
   168   130   185    1
   169   130   186    1
   170   131   132    1
   171   131   187    1
   172   131   188    1
   173   132   133    1
   174   132   189    1
   175   132   190    1
   176   133   134    1
   177   133   191    1
   178   133   192    1
   179   134   135    1
   180   134   193    1
   181   134   194    1
   182   135   195    1
   183   135   196    1
   184   135   197    1
   185   136   137    2
   186   136   138    1
   187   138   139    1
   188   138   198    1
   189   138   199    1
   190   139   140    1
   191   140   141    1
   192   140   200    1
   193   140   201    1
   194   141   142    2
   195   141   143    1
   196   143   144    1
   197   143   150    1
   198   144   145    1
   199   144   202    1
   200   144   203    1
   201   145   146    1
   202   145   204    1
   203   145   205    1
   204   146   147    1
   205   146   206    1
   206   146   207    1
   207   147   148    1
   208   147   208    1
   209   147   209    1
   210   148   149    1
   211   148   210    1
   212   148   211    1
   213   149   212    1
   214   149   213    1
   215   149   214    1
   216   150   151    1
   217   150   215    1
   218   150   216    1
   219   151   152    1
   220   151   217    1
   221   151   218    1
   222   152   153    1
   223   152   219    1
   224   152   220    1
   225   153   154    1
   226   153   221    1
   227   153   222    1
   228   154   155    1
   229   154   223    1
   230   154   224    1
   231   155   225    1
   232   155   226    1
   233   155   227    1
   234   228   229    1
   235   228   269    1
   236   228   270    1
   237   228   271    1
   238   229   230    1
   239   229   272    1
   240   229   273    1
   241   230   231    1
   242   230   274    1
   243   230   275    1
   244   231   232    1
   245   231   276    1
   246   231   277    1
   247   232   233    1
   248   232   278    1
   249   232   279    1
   250   233   234    1
   251   233   280    1
   252   233   281    1
   253   234   235    1
   254   234   282    1
   255   234   283    1
   256   235   236    1
   257   235   284    1
   258   235   285    1
   259   236   237    1
   260   236   286    1
   261   236   287    1
   262   237   238    1
   263   237   288    1
   264   237   289    1
   265   238   239    1
   266   238   249    1
   267   239   240    1
   268   239   290    1
   269   239   291    1
   270   240   241    1
   271   240   292    1
   272   240   293    1
   273   241   242    1
   274   241   294    1
   275   241   295    1
   276   242   243    1
   277   242   296    1
   278   242   297    1
   279   243   244    1
   280   243   298    1
   281   243   299    1
   282   244   245    1
   283   244   300    1
   284   244   301    1
   285   245   246    1
   286   245   302    1
   287   245   303    1
   288   246   247    1
   289   246   304    1
   290   246   305    1
   291   247   248    1
   292   247   306    1
   293   247   307    1
   294   248   308    1
   295   248   309    1
   296   248   310    1
   297   249   250    2
   298   249   251    1
   299   251   252    1
   300   251   311    1
   301   251   312    1
   302   252   253    1
   303   253   254    1
   304   253   313    1
   305   253   314    1
   306   254   255    2
   307   254   256    1
   308   256   257    1
   309   256   263    1
   310   257   258    1
   311   257   315    1
   312   257   316    1
   313   258   259    1
   314   258   317    1
   315   258   318    1
   316   259   260    1
   317   259   319    1
   318   259   320    1
   319   260   261    1
   320   260   321    1
   321   260   322    1
   322   261   262    1
   323   261   323    1
   324   261   324    1
   325   262   325    1
   326   262   326    1
   327   262   327    1
   328   263   264    1
   329   263   328    1
   330   263   329    1
   331   264   265    1
   332   264   330    1
   333   264   331    1
   334   265   266    1
   335   265   332    1
   336   265   333    1
   337   266   267    1
   338   266   334    1
   339   266   335    1
   340   267   268    1
   341   267   336    1
   342   267   337    1
   343   268   338    1
   344   268   339    1
   345   268   340    1
@<TRIPOS>SUBSTRUCTURE
     1 RES1      340 GROUP             0 ****  ****    0  
