@<TRIPOS>MOLECULE
am_c3_9H2O_c0_0_nunpairedes_0_charge_3 Charge: 3 Unpaired_Electrons: 1 XTB_Unpaired_Electrons: 0 XTB_Charge: 3
   361   369     1     0     0
SMALL
NoCharges
****
Generated from Architector

@<TRIPOS>ATOM
     1 Ce1      -0.0264   -0.1728    0.2879   Ce        1 RES1   0.0000
     2 C1        4.6545    0.2298   -6.7659   C.3       1 RES1   0.0000
     3 C2        3.2509    0.7690   -7.0232   C.3       1 RES1   0.0000
     4 C3        2.1922   -0.2627   -6.6346   C.3       1 RES1   0.0000
     5 C4        0.7470    0.2450   -6.6548   C.3       1 RES1   0.0000
     6 C5       -0.1938   -0.7626   -5.9790   C.3       1 RES1   0.0000
     7 C6       -1.6738   -0.3425   -5.8526   C.3       1 RES1   0.0000
     8 C7       -2.1215    0.0966   -4.4452   C.3       1 RES1   0.0000
     9 C8       -1.4004    1.3678   -4.0155   C.3       1 RES1   0.0000
    10 P1       -1.8332    2.0239   -2.3458   P.3       1 RES1   0.0000
    11 O1       -0.8516    1.6510   -1.2845   O.2       1 RES1   0.0000
    12 C9       -2.0012    3.8465   -2.5744   C.3       1 RES1   0.0000
    13 C10      -3.0048    4.2291   -3.6753   C.3       1 RES1   0.0000
    14 C11      -4.3164    4.8162   -3.1303   C.3       1 RES1   0.0000
    15 C12      -4.3579    6.3410   -2.9901   C.3       1 RES1   0.0000
    16 C13      -5.6854    6.7546   -2.3424   C.3       1 RES1   0.0000
    17 C14      -5.9879    8.2591   -2.3843   C.3       1 RES1   0.0000
    18 C15      -5.4953    9.0714   -1.1848   C.3       1 RES1   0.0000
    19 C16      -6.0337    8.5988    0.1631   C.3       1 RES1   0.0000
    20 C17      -3.5614    1.5951   -1.8021   C.3       1 RES1   0.0000
    21 C18      -3.9814    0.2006   -1.5165   C.ar      1 RES1   0.0000
    22 C19      -4.9455   -0.3909   -2.3210   C.ar      1 RES1   0.0000
    23 C20      -5.5379   -1.5832   -1.9486   C.ar      1 RES1   0.0000
    24 C21      -5.1606   -2.1257   -0.7373   C.ar      1 RES1   0.0000
    25 C22      -4.1547   -1.5547    0.0289   C.ar      1 RES1   0.0000
    26 C23      -3.8453   -2.2454    1.3185   C.3       1 RES1   0.0000
    27 P2       -2.4238   -1.8418    2.4430   P.3       1 RES1   0.0000
    28 O2       -1.1113   -1.7744    1.7400   O.2       1 RES1   0.0000
    29 C24      -2.6961   -0.3585    3.5022   C.3       1 RES1   0.0000
    30 C25      -3.4347   -0.5828    4.8194   C.3       1 RES1   0.0000
    31 C26      -3.6911    0.7171    5.5901   C.3       1 RES1   0.0000
    32 C27      -4.2891    0.4481    6.9791   C.3       1 RES1   0.0000
    33 C28      -5.6940   -0.1591    6.9707   C.3       1 RES1   0.0000
    34 C29      -6.7600    0.7653    6.3853   C.3       1 RES1   0.0000
    35 C30      -8.0482    0.0065    6.0744   C.3       1 RES1   0.0000
    36 C31      -9.1728    0.9344    5.6337   C.3       1 RES1   0.0000
    37 C32      -2.4275   -3.2893    3.5946   C.3       1 RES1   0.0000
    38 C33      -2.6382   -4.6604    2.9506   C.3       1 RES1   0.0000
    39 C34      -4.0816   -5.1387    3.1494   C.3       1 RES1   0.0000
    40 C35      -4.4280   -6.3200    2.2476   C.3       1 RES1   0.0000
    41 C36      -5.9254   -6.6125    2.1762   C.3       1 RES1   0.0000
    42 C37      -6.7222   -5.5861    1.3699   C.3       1 RES1   0.0000
    43 C38      -6.3540   -5.4827   -0.1149   C.3       1 RES1   0.0000
    44 C39      -6.4864   -6.7858   -0.8925   C.3       1 RES1   0.0000
    45 N1       -3.5445   -0.4172   -0.3768   N.ar      1 RES1   0.0000
    46 O3       -2.6145    0.1271    0.3609   O.co2     1 RES1   0.0000
    47 H1        5.4100    0.9568   -7.0488   H         1 RES1   0.0000
    48 H2        4.8280   -0.6698   -7.3483   H         1 RES1   0.0000
    49 H3        4.7940   -0.0191   -5.7151   H         1 RES1   0.0000
    50 H4        3.1577    1.0124   -8.0804   H         1 RES1   0.0000
    51 H5        3.1071    1.6961   -6.4635   H         1 RES1   0.0000
    52 H6        2.4215   -0.6346   -5.6326   H         1 RES1   0.0000
    53 H7        2.2798   -1.1077   -7.3165   H         1 RES1   0.0000
    54 H8        0.4270    0.3934   -7.6846   H         1 RES1   0.0000
    55 H9        0.6867    1.2105   -6.1503   H         1 RES1   0.0000
    56 H10       0.1917   -0.9811   -4.9836   H         1 RES1   0.0000
    57 H11      -0.1485   -1.6909   -6.5518   H         1 RES1   0.0000
    58 H12      -2.3078   -1.1828   -6.1466   H         1 RES1   0.0000
    59 H13      -1.8824    0.4670   -6.5529   H         1 RES1   0.0000
    60 H14      -1.9311   -0.6903   -3.7035   H         1 RES1   0.0000
    61 H15      -3.1994    0.2758   -4.4779   H         1 RES1   0.0000
    62 H16      -1.5790    2.1469   -4.7561   H         1 RES1   0.0000
    63 H17      -0.3333    1.1544   -3.9933   H         1 RES1   0.0000
    64 H18      -1.0042    4.2361   -2.7910   H         1 RES1   0.0000
    65 H19      -2.3116    4.2819   -1.6211   H         1 RES1   0.0000
    66 H20      -3.2558    3.3467   -4.2687   H         1 RES1   0.0000
    67 H21      -2.5473    4.9388   -4.3642   H         1 RES1   0.0000
    68 H22      -4.5317    4.3788   -2.1536   H         1 RES1   0.0000
    69 H23      -5.1316    4.5339   -3.7981   H         1 RES1   0.0000
    70 H24      -4.2760    6.8034   -3.9786   H         1 RES1   0.0000
    71 H25      -3.5244    6.6873   -2.3773   H         1 RES1   0.0000
    72 H26      -5.6919    6.4044   -1.3059   H         1 RES1   0.0000
    73 H27      -6.4886    6.2286   -2.8671   H         1 RES1   0.0000
    74 H28      -7.0686    8.3931   -2.4618   H         1 RES1   0.0000
    75 H29      -5.5481    8.6926   -3.2848   H         1 RES1   0.0000
    76 H30      -5.8272   10.0972   -1.3431   H         1 RES1   0.0000
    77 H31      -4.4038    9.0879   -1.1664   H         1 RES1   0.0000
    78 H32      -7.0874    8.3451    0.0796   H         1 RES1   0.0000
    79 H33      -5.9299    9.3860    0.9051   H         1 RES1   0.0000
    80 H34      -5.5035    7.7252    0.5388   H         1 RES1   0.0000
    81 H35      -4.2346    2.0215   -2.5442   H         1 RES1   0.0000
    82 H36      -3.6453    2.1649   -0.8686   H         1 RES1   0.0000
    83 H37      -5.2722    0.1190   -3.2157   H         1 RES1   0.0000
    84 H38      -6.3000   -2.0476   -2.5535   H         1 RES1   0.0000
    85 H39      -5.6744   -2.9971   -0.3676   H         1 RES1   0.0000
    86 H40      -3.6654   -3.2966    1.0701   H         1 RES1   0.0000
    87 H41      -4.7521   -2.2321    1.9301   H         1 RES1   0.0000
    88 H42      -3.1769    0.4360    2.9293   H         1 RES1   0.0000
    89 H43      -1.6641   -0.0626    3.6947   H         1 RES1   0.0000
    90 H44      -2.8492   -1.2422    5.4625   H         1 RES1   0.0000
    91 H45      -4.3915   -1.0666    4.6309   H         1 RES1   0.0000
    92 H46      -4.3625    1.3675    5.0246   H         1 RES1   0.0000
    93 H47      -2.7494    1.2581    5.7261   H         1 RES1   0.0000
    94 H48      -4.3149    1.3888    7.5308   H         1 RES1   0.0000
    95 H49      -3.6247   -0.2295    7.5207   H         1 RES1   0.0000
    96 H50      -5.9702   -0.3964    8.0003   H         1 RES1   0.0000
    97 H51      -5.6806   -1.0982    6.4129   H         1 RES1   0.0000
    98 H52      -6.3975    1.2331    5.4671   H         1 RES1   0.0000
    99 H53      -6.9691    1.5635    7.0969   H         1 RES1   0.0000
   100 H54      -8.3674   -0.5482    6.9576   H         1 RES1   0.0000
   101 H55      -7.8483   -0.7214    5.2819   H         1 RES1   0.0000
   102 H56      -9.5353    1.5218    6.4728   H         1 RES1   0.0000
   103 H57     -10.0025    0.3589    5.2332   H         1 RES1   0.0000
   104 H58      -8.8252    1.6179    4.8621   H         1 RES1   0.0000
   105 H59      -3.1713   -3.1655    4.3756   H         1 RES1   0.0000
   106 H60      -1.4481   -3.2430    4.0709   H         1 RES1   0.0000
   107 H61      -1.9669   -5.3858    3.4117   H         1 RES1   0.0000
   108 H62      -2.3778   -4.6347    1.8853   H         1 RES1   0.0000
   109 H63      -4.7717   -4.3201    2.9427   H         1 RES1   0.0000
   110 H64      -4.2276   -5.4269    4.1923   H         1 RES1   0.0000
   111 H65      -3.9037   -7.2083    2.6013   H         1 RES1   0.0000
   112 H66      -4.0675   -6.1078    1.2408   H         1 RES1   0.0000
   113 H67      -6.3284   -6.6451    3.1890   H         1 RES1   0.0000
   114 H68      -6.0687   -7.5980    1.7364   H         1 RES1   0.0000
   115 H69      -6.6114   -4.5961    1.8228   H         1 RES1   0.0000
   116 H70      -7.7761   -5.8526    1.4463   H         1 RES1   0.0000
   117 H71      -5.3272   -5.1173   -0.2278   H         1 RES1   0.0000
   118 H72      -7.0239   -4.7450   -0.5680   H         1 RES1   0.0000
   119 H73      -5.7617   -7.5183   -0.5492   H         1 RES1   0.0000
   120 H74      -6.3141   -6.6006   -1.9514   H         1 RES1   0.0000
   121 H75      -7.4828   -7.2005   -0.7759   H         1 RES1   0.0000
   122 C40      -3.6327   -8.2961   -4.3264   C.3       1 RES1   0.0000
   123 C41      -2.5951   -9.3943   -4.1136   C.3       1 RES1   0.0000
   124 C42      -1.3754   -8.9910   -3.2760   C.3       1 RES1   0.0000
   125 C43      -1.5215   -9.1608   -1.7619   C.3       1 RES1   0.0000
   126 C44      -2.4876   -8.2358   -1.0208   C.3       1 RES1   0.0000
   127 C45      -2.0180   -6.7926   -0.8004   C.3       1 RES1   0.0000
   128 C46      -2.1726   -5.8709   -2.0130   C.3       1 RES1   0.0000
   129 C47      -2.0512   -4.3929   -1.6468   C.3       1 RES1   0.0000
   130 P3       -0.4156   -3.5506   -1.5454   P.3       1 RES1   0.0000
   131 O4       -0.6265   -2.3131   -0.7411   O.2       1 RES1   0.0000
   132 C48       0.9504   -4.6117   -0.9294   C.3       1 RES1   0.0000
   133 C49       1.2873   -5.8184   -1.8078   C.3       1 RES1   0.0000
   134 C50       2.7244   -6.3112   -1.6233   C.3       1 RES1   0.0000
   135 C51       3.0177   -7.6007   -2.4033   C.3       1 RES1   0.0000
   136 C52       3.3644   -7.4409   -3.8879   C.3       1 RES1   0.0000
   137 C53       2.2670   -6.8873   -4.7987   C.3       1 RES1   0.0000
   138 C54       2.5753   -7.1610   -6.2709   C.3       1 RES1   0.0000
   139 C55       1.5976   -6.4580   -7.2077   C.3       1 RES1   0.0000
   140 C56       0.1417   -3.0623   -3.2471   C.3       1 RES1   0.0000
   141 C57       1.4626   -2.3797   -3.1423   C.ar      1 RES1   0.0000
   142 C58       2.6593   -3.0323   -3.3874   C.ar      1 RES1   0.0000
   143 C59       3.8593   -2.3458   -3.3508   C.ar      1 RES1   0.0000
   144 C60       3.8146   -0.9680   -3.2292   C.ar      1 RES1   0.0000
   145 C61       2.6073   -0.3281   -3.0198   C.ar      1 RES1   0.0000
   146 C62       2.4296    1.1453   -3.0203   C.3       1 RES1   0.0000
   147 P4        2.6880    1.8145   -1.3086   P.3       1 RES1   0.0000
   148 O5        2.2454    0.8175   -0.2852   O.2       1 RES1   0.0000
   149 C63       4.4866    2.2055   -1.2821   C.3       1 RES1   0.0000
   150 C64       5.1478    1.8814    0.0514   C.3       1 RES1   0.0000
   151 C65       6.6022    2.3560    0.1173   C.3       1 RES1   0.0000
   152 C66       7.4938    1.8175   -1.0051   C.3       1 RES1   0.0000
   153 C67       7.5508    0.2929   -1.1085   C.3       1 RES1   0.0000
   154 C68       8.5339   -0.1219   -2.2049   C.3       1 RES1   0.0000
   155 C69       8.7497   -1.6294   -2.3181   C.3       1 RES1   0.0000
   156 C70       7.5081   -2.3765   -2.7883   C.3       1 RES1   0.0000
   157 C71       1.8310    3.4297   -1.1897   C.3       1 RES1   0.0000
   158 C72       2.1215    4.4509   -2.2921   C.3       1 RES1   0.0000
   159 C73       1.9754    5.8949   -1.7880   C.3       1 RES1   0.0000
   160 C74       0.5239    6.3018   -1.5248   C.3       1 RES1   0.0000
   161 C75       0.4153    7.6250   -0.7612   C.3       1 RES1   0.0000
   162 C76      -0.9765    8.2539   -0.8265   C.3       1 RES1   0.0000
   163 C77      -2.0475    7.5119   -0.0240   C.3       1 RES1   0.0000
   164 C78      -1.9076    7.6712    1.4884   C.3       1 RES1   0.0000
   165 N2        1.4842   -1.0635   -2.8088   N.ar      1 RES1   0.0000
   166 O6        0.4081   -0.4806   -2.3840   O.co2     1 RES1   0.0000
   167 H76      -4.3677   -8.6225   -5.0591   H         1 RES1   0.0000
   168 H77      -3.1586   -7.3899   -4.7021   H         1 RES1   0.0000
   169 H78      -4.1648   -8.0548   -3.4105   H         1 RES1   0.0000
   170 H79      -2.2437   -9.6971   -5.1011   H         1 RES1   0.0000
   171 H80      -3.0717  -10.2666   -3.6655   H         1 RES1   0.0000
   172 H81      -1.0834   -7.9713   -3.5314   H         1 RES1   0.0000
   173 H82      -0.5507   -9.6429   -3.5699   H         1 RES1   0.0000
   174 H83      -0.5327   -9.0574   -1.3054   H         1 RES1   0.0000
   175 H84      -1.8480  -10.1876   -1.5833   H         1 RES1   0.0000
   176 H85      -2.6445   -8.6750   -0.0327   H         1 RES1   0.0000
   177 H86      -3.4563   -8.2362   -1.5161   H         1 RES1   0.0000
   178 H87      -2.6311   -6.3831    0.0056   H         1 RES1   0.0000
   179 H88      -0.9899   -6.8017   -0.4336   H         1 RES1   0.0000
   180 H89      -3.1690   -6.0325   -2.4298   H         1 RES1   0.0000
   181 H90      -1.4554   -6.1137   -2.7919   H         1 RES1   0.0000
   182 H91      -2.4725   -4.2241   -0.6517   H         1 RES1   0.0000
   183 H92      -2.6341   -3.7722   -2.3353   H         1 RES1   0.0000
   184 H93       0.6741   -4.9195    0.0765   H         1 RES1   0.0000
   185 H94       1.8102   -3.9357   -0.8461   H         1 RES1   0.0000
   186 H95       1.1270   -5.5653   -2.8509   H         1 RES1   0.0000
   187 H96       0.6179   -6.6461   -1.5804   H         1 RES1   0.0000
   188 H97       2.8863   -6.5195   -0.5628   H         1 RES1   0.0000
   189 H98       3.4373   -5.5372   -1.9189   H         1 RES1   0.0000
   190 H99       2.1707   -8.2824   -2.2953   H         1 RES1   0.0000
   191 H100      3.8810   -8.0779   -1.9342   H         1 RES1   0.0000
   192 H101      3.6237   -8.4363   -4.2542   H         1 RES1   0.0000
   193 H102      4.2591   -6.8201   -3.9832   H         1 RES1   0.0000
   194 H103      2.1698   -5.8055   -4.6709   H         1 RES1   0.0000
   195 H104      1.3073   -7.3445   -4.5531   H         1 RES1   0.0000
   196 H105      2.5378   -8.2364   -6.4480   H         1 RES1   0.0000
   197 H106      3.5914   -6.8334   -6.4940   H         1 RES1   0.0000
   198 H107      0.5734   -6.7504   -6.9822   H         1 RES1   0.0000
   199 H108      1.8074   -6.7303   -8.2391   H         1 RES1   0.0000
   200 H109      1.6776   -5.3731   -7.1210   H         1 RES1   0.0000
   201 H110     -0.6161   -2.3710   -3.6217   H         1 RES1   0.0000
   202 H111      0.2207   -3.9105   -3.9236   H         1 RES1   0.0000
   203 H112      2.6465   -4.0849   -3.6110   H         1 RES1   0.0000
   204 H113      4.7988   -2.8587   -3.4708   H         1 RES1   0.0000
   205 H114      4.7198   -0.3881   -3.3078   H         1 RES1   0.0000
   206 H115      1.3995    1.3742   -3.2880   H         1 RES1   0.0000
   207 H116      3.1011    1.6298   -3.7256   H         1 RES1   0.0000
   208 H117      4.5978    3.2692   -1.4989   H         1 RES1   0.0000
   209 H118      4.9797    1.6566   -2.0847   H         1 RES1   0.0000
   210 H119      5.1150    0.8038    0.2041   H         1 RES1   0.0000
   211 H120      4.5773    2.3443    0.8628   H         1 RES1   0.0000
   212 H121      7.0157    2.0459    1.0799   H         1 RES1   0.0000
   213 H122      6.6289    3.4477    0.0776   H         1 RES1   0.0000
   214 H123      8.5038    2.1876   -0.8252   H         1 RES1   0.0000
   215 H124      7.1757    2.2285   -1.9657   H         1 RES1   0.0000
   216 H125      6.5564   -0.1067   -1.3285   H         1 RES1   0.0000
   217 H126      7.8758   -0.1255   -0.1534   H         1 RES1   0.0000
   218 H127      9.4961    0.3506   -2.0011   H         1 RES1   0.0000
   219 H128      8.1780    0.2609   -3.1648   H         1 RES1   0.0000
   220 H129      9.0772   -2.0275   -1.3567   H         1 RES1   0.0000
   221 H130      9.5530   -1.8041   -3.0334   H         1 RES1   0.0000
   222 H131      6.6994   -2.2861   -2.0636   H         1 RES1   0.0000
   223 H132      7.7335   -3.4311   -2.9238   H         1 RES1   0.0000
   224 H133      7.1722   -1.9754   -3.7425   H         1 RES1   0.0000
   225 H134      2.1727    3.8266   -0.2306   H         1 RES1   0.0000
   226 H135      0.7660    3.2160   -1.0943   H         1 RES1   0.0000
   227 H136      1.4456    4.2978   -3.1349   H         1 RES1   0.0000
   228 H137      3.1393    4.3361   -2.6697   H         1 RES1   0.0000
   229 H138      2.3905    6.5743   -2.5341   H         1 RES1   0.0000
   230 H139      2.5622    6.0249   -0.8759   H         1 RES1   0.0000
   231 H140      0.0241    5.5099   -0.9633   H         1 RES1   0.0000
   232 H141      0.0118    6.4078   -2.4832   H         1 RES1   0.0000
   233 H142      1.1294    8.3294   -1.1884   H         1 RES1   0.0000
   234 H143      0.6879    7.4694    0.2846   H         1 RES1   0.0000
   235 H144     -1.2904    8.3066   -1.8719   H         1 RES1   0.0000
   236 H145     -0.9087    9.2833   -0.4653   H         1 RES1   0.0000
   237 H146     -2.0354    6.4473   -0.2892   H         1 RES1   0.0000
   238 H147     -3.0171    7.9097   -0.3197   H         1 RES1   0.0000
   239 H148     -1.1981    6.9604    1.8980   H         1 RES1   0.0000
   240 H149     -2.8675    7.5297    1.9814   H         1 RES1   0.0000
   241 H150     -1.5537    8.6666    1.7353   H         1 RES1   0.0000
   242 C79      -6.2419   -0.0164    2.4919   C.3       1 RES1   0.0000
   243 C80      -6.6794    1.4341    2.3347   C.3       1 RES1   0.0000
   244 C81      -6.2911    1.9845    0.9619   C.3       1 RES1   0.0000
   245 C82      -6.5770    3.4796    0.8072   C.3       1 RES1   0.0000
   246 C83      -5.6705    4.3828    1.6515   C.3       1 RES1   0.0000
   247 C84      -4.2068    4.3941    1.1719   C.3       1 RES1   0.0000
   248 C85      -3.1584    3.8664    2.1681   C.3       1 RES1   0.0000
   249 C86      -1.8720    3.5773    1.4021   C.3       1 RES1   0.0000
   250 P5       -0.2441    3.0779    2.1301   P.3       1 RES1   0.0000
   251 O7        0.3052    2.0431    1.2010   O.2       1 RES1   0.0000
   252 C87       0.8945    4.5210    2.1659   C.3       1 RES1   0.0000
   253 C88       0.7807    5.5015    3.3304   C.3       1 RES1   0.0000
   254 C89       1.7395    6.6926    3.1949   C.3       1 RES1   0.0000
   255 C90       3.2211    6.3061    3.1806   C.3       1 RES1   0.0000
   256 C91       4.1623    7.4813    2.8645   C.3       1 RES1   0.0000
   257 C92       4.7414    8.1851    4.0927   C.3       1 RES1   0.0000
   258 C93       3.7492    8.9422    4.9744   C.3       1 RES1   0.0000
   259 C94       3.0926   10.1238    4.2713   C.3       1 RES1   0.0000
   260 C95      -0.1639    2.4473    3.8824   C.3       1 RES1   0.0000
   261 C96       1.2210    1.8974    4.0064   C.ar      1 RES1   0.0000
   262 C97       2.2669    2.5796    4.6037   C.ar      1 RES1   0.0000
   263 C98       3.5520    2.0615    4.6056   C.ar      1 RES1   0.0000
   264 C99       3.7328    0.7816    4.1202   C.ar      1 RES1   0.0000
   265 C100      2.6549    0.0686    3.6291   C.ar      1 RES1   0.0000
   266 C101      2.7125   -1.4009    3.4309   C.3       1 RES1   0.0000
   267 P6        2.7916   -2.1308    1.7219   P.3       1 RES1   0.0000
   268 O8        1.7325   -1.6708    0.7701   O.2       1 RES1   0.0000
   269 C102      4.4452   -1.7179    1.0304   C.3       1 RES1   0.0000
   270 C103      5.6570   -2.5730    1.4236   C.3       1 RES1   0.0000
   271 C104      6.5441   -1.9492    2.5047   C.3       1 RES1   0.0000
   272 C105      7.6821   -2.8633    2.9832   C.3       1 RES1   0.0000
   273 C106      8.5148   -3.4904    1.8589   C.3       1 RES1   0.0000
   274 C107      7.9985   -4.8749    1.4407   C.3       1 RES1   0.0000
   275 C108      8.1740   -5.1734   -0.0466   C.3       1 RES1   0.0000
   276 C109      7.4884   -6.4759   -0.4384   C.3       1 RES1   0.0000
   277 C110      2.6548   -3.9228    2.0837   C.3       1 RES1   0.0000
   278 C111      1.2403   -4.2546    2.5629   C.3       1 RES1   0.0000
   279 C112      0.9418   -5.7654    2.5403   C.3       1 RES1   0.0000
   280 C113      1.0324   -6.4264    3.9182   C.3       1 RES1   0.0000
   281 C114      2.4038   -6.3265    4.5859   C.3       1 RES1   0.0000
   282 C115      3.5163   -7.0549    3.8345   C.3       1 RES1   0.0000
   283 C116      4.8277   -7.0762    4.6208   C.3       1 RES1   0.0000
   284 C117      5.4330   -5.6924    4.8367   C.3       1 RES1   0.0000
   285 N3        1.4456    0.6676    3.4802   N.ar      1 RES1   0.0000
   286 O9        0.4894    0.0157    2.9059   O.co2     1 RES1   0.0000
   287 H151     -6.3917   -0.3558    3.5139   H         1 RES1   0.0000
   288 H152     -5.1866   -0.0942    2.2434   H         1 RES1   0.0000
   289 H153     -6.8038   -0.6697    1.8268   H         1 RES1   0.0000
   290 H154     -6.1996    2.0270    3.1154   H         1 RES1   0.0000
   291 H155     -7.7589    1.5096    2.4694   H         1 RES1   0.0000
   292 H156     -6.8499    1.4346    0.1998   H         1 RES1   0.0000
   293 H157     -5.2279    1.7880    0.7892   H         1 RES1   0.0000
   294 H158     -7.6117    3.6691    1.0908   H         1 RES1   0.0000
   295 H159     -6.4828    3.7620   -0.2452   H         1 RES1   0.0000
   296 H160     -5.7246    4.0770    2.6949   H         1 RES1   0.0000
   297 H161     -6.0734    5.3949    1.6039   H         1 RES1   0.0000
   298 H162     -4.1425    3.7934    0.2617   H         1 RES1   0.0000
   299 H163     -3.9306    5.4119    0.8978   H         1 RES1   0.0000
   300 H164     -3.5180    2.9472    2.6316   H         1 RES1   0.0000
   301 H165     -2.9878    4.6010    2.9551   H         1 RES1   0.0000
   302 H166     -1.6034    4.4570    0.8061   H         1 RES1   0.0000
   303 H167     -2.0396    2.7427    0.7095   H         1 RES1   0.0000
   304 H168      0.7517    5.0522    1.2227   H         1 RES1   0.0000
   305 H169      1.8937    4.0771    2.1513   H         1 RES1   0.0000
   306 H170      0.9979    5.0012    4.2717   H         1 RES1   0.0000
   307 H171     -0.2412    5.8782    3.4000   H         1 RES1   0.0000
   308 H172      1.5523    7.3637    4.0319   H         1 RES1   0.0000
   309 H173      1.5118    7.2403    2.2785   H         1 RES1   0.0000
   310 H174      3.3771    5.5381    2.4186   H         1 RES1   0.0000
   311 H175      3.5016    5.8747    4.1454   H         1 RES1   0.0000
   312 H176      3.6565    8.2032    2.2232   H         1 RES1   0.0000
   313 H177      5.0097    7.0967    2.2914   H         1 RES1   0.0000
   314 H178      5.4972    8.8913    3.7453   H         1 RES1   0.0000
   315 H179      5.2509    7.4374    4.7048   H         1 RES1   0.0000
   316 H180      4.2987    9.3187    5.8383   H         1 RES1   0.0000
   317 H181      2.9858    8.2600    5.3533   H         1 RES1   0.0000
   318 H182      3.8526   10.8023    3.8906   H         1 RES1   0.0000
   319 H183      2.4667   10.6754    4.9692   H         1 RES1   0.0000
   320 H184      2.4712    9.7972    3.4404   H         1 RES1   0.0000
   321 H185     -0.9112    1.6731    4.0500   H         1 RES1   0.0000
   322 H186     -0.3316    3.2702    4.5734   H         1 RES1   0.0000
   323 H187      2.0755    3.5201    5.0884   H         1 RES1   0.0000
   324 H188      4.3792    2.6109    5.0254   H         1 RES1   0.0000
   325 H189      4.7003    0.3060    4.1576   H         1 RES1   0.0000
   326 H190      1.8046   -1.8230    3.8748   H         1 RES1   0.0000
   327 H191      3.5878   -1.7963    3.9490   H         1 RES1   0.0000
   328 H192      4.6068   -0.6737    1.3025   H         1 RES1   0.0000
   329 H193      4.2815   -1.7435   -0.0529   H         1 RES1   0.0000
   330 H194      6.2756   -2.7150    0.5370   H         1 RES1   0.0000
   331 H195      5.3258   -3.5582    1.7464   H         1 RES1   0.0000
   332 H196      5.9406   -1.6780    3.3749   H         1 RES1   0.0000
   333 H197      6.9799   -1.0285    2.1086   H         1 RES1   0.0000
   334 H198      7.2759   -3.6625    3.6028   H         1 RES1   0.0000
   335 H199      8.3365   -2.2701    3.6223   H         1 RES1   0.0000
   336 H200      9.5454   -3.5909    2.1961   H         1 RES1   0.0000
   337 H201      8.5297   -2.8214    0.9963   H         1 RES1   0.0000
   338 H202      6.9397   -4.9622    1.6884   H         1 RES1   0.0000
   339 H203      8.5175   -5.6429    2.0132   H         1 RES1   0.0000
   340 H204      9.2359   -5.2425   -0.2818   H         1 RES1   0.0000
   341 H205      7.7577   -4.3480   -0.6288   H         1 RES1   0.0000
   342 H206      7.9153   -7.3037    0.1183   H         1 RES1   0.0000
   343 H207      7.6175   -6.6758   -1.4980   H         1 RES1   0.0000
   344 H208      6.4224   -6.4316   -0.2242   H         1 RES1   0.0000
   345 H209      3.3992   -4.2089    2.8224   H         1 RES1   0.0000
   346 H210      2.8706   -4.4733    1.1656   H         1 RES1   0.0000
   347 H211      0.5321   -3.7043    1.9340   H         1 RES1   0.0000
   348 H212      1.1033   -3.8964    3.5852   H         1 RES1   0.0000
   349 H213     -0.0680   -5.9356    2.1603   H         1 RES1   0.0000
   350 H214      1.6316   -6.2738    1.8659   H         1 RES1   0.0000
   351 H215      0.7623   -7.4784    3.8150   H         1 RES1   0.0000
   352 H216      0.2936   -5.9670    4.5799   H         1 RES1   0.0000
   353 H217      2.3277   -6.7657    5.5821   H         1 RES1   0.0000
   354 H218      2.6643   -5.2743    4.7151   H         1 RES1   0.0000
   355 H219      3.6884   -6.5902    2.8608   H         1 RES1   0.0000
   356 H220      3.2025   -8.0851    3.6580   H         1 RES1   0.0000
   357 H221      5.5482   -7.6925    4.0812   H         1 RES1   0.0000
   358 H222      4.6540   -7.5444    5.5902   H         1 RES1   0.0000
   359 H223      5.5390   -5.1699    3.8855   H         1 RES1   0.0000
   360 H224      6.4207   -5.7855    5.2823   H         1 RES1   0.0000
   361 H225      4.8210   -5.0897    5.5055   H         1 RES1   0.0000
@<TRIPOS>BOND
     1     1    11    1
     2     1    28    1
     3     1    46    1
     4     1   131    1
     5     1   148    1
     6     1   166    1
     7     1   251    1
     8     1   268    1
     9     1   286    1
    10     2     3    1
    11     2    47    1
    12     2    48    1
    13     2    49    1
    14     3     4    1
    15     3    50    1
    16     3    51    1
    17     4     5    1
    18     4    52    1
    19     4    53    1
    20     5     6    1
    21     5    54    1
    22     5    55    1
    23     6     7    1
    24     6    56    1
    25     6    57    1
    26     7     8    1
    27     7    58    1
    28     7    59    1
    29     8     9    1
    30     8    60    1
    31     8    61    1
    32     9    10    1
    33     9    62    1
    34     9    63    1
    35    10    11    2
    36    10    12    1
    37    10    20    1
    38    12    13    1
    39    12    64    1
    40    12    65    1
    41    13    14    1
    42    13    66    1
    43    13    67    1
    44    14    15    1
    45    14    68    1
    46    14    69    1
    47    15    16    1
    48    15    70    1
    49    15    71    1
    50    16    17    1
    51    16    72    1
    52    16    73    1
    53    17    18    1
    54    17    74    1
    55    17    75    1
    56    18    19    1
    57    18    76    1
    58    18    77    1
    59    19    78    1
    60    19    79    1
    61    19    80    1
    62    20    21    1
    63    20    81    1
    64    20    82    1
    65    21    22    1
    66    21    45    2
    67    22    23    2
    68    22    83    1
    69    23    24    1
    70    23    84    1
    71    24    25    2
    72    24    85    1
    73    25    26    1
    74    25    45    1
    75    26    27    1
    76    26    86    1
    77    26    87    1
    78    27    28    2
    79    27    29    1
    80    27    37    1
    81    29    30    1
    82    29    88    1
    83    29    89    1
    84    30    31    1
    85    30    90    1
    86    30    91    1
    87    31    32    1
    88    31    92    1
    89    31    93    1
    90    32    33    1
    91    32    94    1
    92    32    95    1
    93    33    34    1
    94    33    96    1
    95    33    97    1
    96    34    35    1
    97    34    98    1
    98    34    99    1
    99    35    36    1
   100    35   100    1
   101    35   101    1
   102    36   102    1
   103    36   103    1
   104    36   104    1
   105    37    38    1
   106    37   105    1
   107    37   106    1
   108    38    39    1
   109    38   107    1
   110    38   108    1
   111    39    40    1
   112    39   109    1
   113    39   110    1
   114    40    41    1
   115    40   111    1
   116    40   112    1
   117    41    42    1
   118    41   113    1
   119    41   114    1
   120    42    43    1
   121    42   115    1
   122    42   116    1
   123    43    44    1
   124    43   117    1
   125    43   118    1
   126    44   119    1
   127    44   120    1
   128    44   121    1
   129    45    46    1
   130   122   123    1
   131   122   167    1
   132   122   168    1
   133   122   169    1
   134   123   124    1
   135   123   170    1
   136   123   171    1
   137   124   125    1
   138   124   172    1
   139   124   173    1
   140   125   126    1
   141   125   174    1
   142   125   175    1
   143   126   127    1
   144   126   176    1
   145   126   177    1
   146   127   128    1
   147   127   178    1
   148   127   179    1
   149   128   129    1
   150   128   180    1
   151   128   181    1
   152   129   130    1
   153   129   182    1
   154   129   183    1
   155   130   131    2
   156   130   132    1
   157   130   140    1
   158   132   133    1
   159   132   184    1
   160   132   185    1
   161   133   134    1
   162   133   186    1
   163   133   187    1
   164   134   135    1
   165   134   188    1
   166   134   189    1
   167   135   136    1
   168   135   190    1
   169   135   191    1
   170   136   137    1
   171   136   192    1
   172   136   193    1
   173   137   138    1
   174   137   194    1
   175   137   195    1
   176   138   139    1
   177   138   196    1
   178   138   197    1
   179   139   198    1
   180   139   199    1
   181   139   200    1
   182   140   141    1
   183   140   201    1
   184   140   202    1
   185   141   142    1
   186   141   165    2
   187   142   143    2
   188   142   203    1
   189   143   144    1
   190   143   204    1
   191   144   145    2
   192   144   205    1
   193   145   146    1
   194   145   165    1
   195   146   147    1
   196   146   206    1
   197   146   207    1
   198   147   148    2
   199   147   149    1
   200   147   157    1
   201   149   150    1
   202   149   208    1
   203   149   209    1
   204   150   151    1
   205   150   210    1
   206   150   211    1
   207   151   152    1
   208   151   212    1
   209   151   213    1
   210   152   153    1
   211   152   214    1
   212   152   215    1
   213   153   154    1
   214   153   216    1
   215   153   217    1
   216   154   155    1
   217   154   218    1
   218   154   219    1
   219   155   156    1
   220   155   220    1
   221   155   221    1
   222   156   222    1
   223   156   223    1
   224   156   224    1
   225   157   158    1
   226   157   225    1
   227   157   226    1
   228   158   159    1
   229   158   227    1
   230   158   228    1
   231   159   160    1
   232   159   229    1
   233   159   230    1
   234   160   161    1
   235   160   231    1
   236   160   232    1
   237   161   162    1
   238   161   233    1
   239   161   234    1
   240   162   163    1
   241   162   235    1
   242   162   236    1
   243   163   164    1
   244   163   237    1
   245   163   238    1
   246   164   239    1
   247   164   240    1
   248   164   241    1
   249   165   166    1
   250   242   243    1
   251   242   287    1
   252   242   288    1
   253   242   289    1
   254   243   244    1
   255   243   290    1
   256   243   291    1
   257   244   245    1
   258   244   292    1
   259   244   293    1
   260   245   246    1
   261   245   294    1
   262   245   295    1
   263   246   247    1
   264   246   296    1
   265   246   297    1
   266   247   248    1
   267   247   298    1
   268   247   299    1
   269   248   249    1
   270   248   300    1
   271   248   301    1
   272   249   250    1
   273   249   302    1
   274   249   303    1
   275   250   251    2
   276   250   252    1
   277   250   260    1
   278   252   253    1
   279   252   304    1
   280   252   305    1
   281   253   254    1
   282   253   306    1
   283   253   307    1
   284   254   255    1
   285   254   308    1
   286   254   309    1
   287   255   256    1
   288   255   310    1
   289   255   311    1
   290   256   257    1
   291   256   312    1
   292   256   313    1
   293   257   258    1
   294   257   314    1
   295   257   315    1
   296   258   259    1
   297   258   316    1
   298   258   317    1
   299   259   318    1
   300   259   319    1
   301   259   320    1
   302   260   261    1
   303   260   321    1
   304   260   322    1
   305   261   262    1
   306   261   285    2
   307   262   263    2
   308   262   323    1
   309   263   264    1
   310   263   324    1
   311   264   265    2
   312   264   325    1
   313   265   266    1
   314   265   285    1
   315   266   267    1
   316   266   326    1
   317   266   327    1
   318   267   268    2
   319   267   269    1
   320   267   277    1
   321   269   270    1
   322   269   328    1
   323   269   329    1
   324   270   271    1
   325   270   330    1
   326   270   331    1
   327   271   272    1
   328   271   332    1
   329   271   333    1
   330   272   273    1
   331   272   334    1
   332   272   335    1
   333   273   274    1
   334   273   336    1
   335   273   337    1
   336   274   275    1
   337   274   338    1
   338   274   339    1
   339   275   276    1
   340   275   340    1
   341   275   341    1
   342   276   342    1
   343   276   343    1
   344   276   344    1
   345   277   278    1
   346   277   345    1
   347   277   346    1
   348   278   279    1
   349   278   347    1
   350   278   348    1
   351   279   280    1
   352   279   349    1
   353   279   350    1
   354   280   281    1
   355   280   351    1
   356   280   352    1
   357   281   282    1
   358   281   353    1
   359   281   354    1
   360   282   283    1
   361   282   355    1
   362   282   356    1
   363   283   284    1
   364   283   357    1
   365   283   358    1
   366   284   359    1
   367   284   360    1
   368   284   361    1
   369   285   286    1
@<TRIPOS>SUBSTRUCTURE
     1 RES1      361 GROUP             0 ****  ****    0  
