@<TRIPOS>MOLECULE
am_c3_9H2O_c0_0_nunpairedes_0_charge_3 Charge: 3 Unpaired_Electrons: 1 XTB_Unpaired_Electrons: 0 XTB_Charge: 3
   466   471     1     0     0
SMALL
NoCharges
****
Generated from Architector

@<TRIPOS>ATOM
     1 Ce1      -0.1972    0.0226   -0.0800   Ce        1 RES1   0.0000
     2 C1       -0.8764   11.2996    3.9682   C.3       1 RES1   0.0000
     3 C2       -0.1703   10.0953    3.3565   C.3       1 RES1   0.0000
     4 C3        0.6967    9.3650    4.3825   C.3       1 RES1   0.0000
     5 C4        1.6472    8.3554    3.7466   C.3       1 RES1   0.0000
     6 C5        0.9673    7.2130    2.9921   C.3       1 RES1   0.0000
     7 C6        0.3072    6.1615    3.8927   C.3       1 RES1   0.0000
     8 C7       -1.1735    6.3481    4.2227   C.3       1 RES1   0.0000
     9 C8       -1.7426    5.0513    4.8306   C.3       1 RES1   0.0000
    10 C9       -2.8416    4.3454    4.0231   C.3       1 RES1   0.0000
    11 C10      -2.4342    3.9978    2.5879   C.3       1 RES1   0.0000
    12 N1       -3.3457    3.0914    1.8791   N.am      1 RES1   0.0000
    13 C11      -4.7810    3.3113    2.0566   C.3       1 RES1   0.0000
    14 C12      -5.3301    4.7165    1.7903   C.3       1 RES1   0.0000
    15 C13      -5.3524    5.1638    0.3321   C.3       1 RES1   0.0000
    16 C14      -6.4332    6.2102    0.0559   C.3       1 RES1   0.0000
    17 C15      -7.8485    5.6391    0.0823   C.3       1 RES1   0.0000
    18 C16      -8.8764    6.6632   -0.3904   C.3       1 RES1   0.0000
    19 C17     -10.2727    6.0848   -0.6305   C.3       1 RES1   0.0000
    20 C18     -11.0282    5.7161    0.6518   C.3       1 RES1   0.0000
    21 C19     -10.9066    4.2530    1.0789   C.3       1 RES1   0.0000
    22 C20     -11.6670    3.2992    0.1648   C.3       1 RES1   0.0000
    23 C21      -2.8203    2.0345    1.2455   C.2       1 RES1   0.0000
    24 O1       -1.5871    1.8833    1.0911   O.2       1 RES1   0.0000
    25 C22      -3.7410    0.9024    0.7722   C.3       1 RES1   0.0000
    26 C23      -4.2579    0.1577    2.0358   C.3       1 RES1   0.0000
    27 C24      -3.6665    0.5133    3.4014   C.3       1 RES1   0.0000
    28 C25      -2.2196    0.0614    3.5736   C.3       1 RES1   0.0000
    29 O2       -2.9767    0.0686   -0.1129   O.3       1 RES1   0.0000
    30 C26      -3.6902   -0.8349   -0.9945   C.3       1 RES1   0.0000
    31 C27      -4.1789   -2.0523   -0.1680   C.3       1 RES1   0.0000
    32 C28      -4.4518   -3.4290   -0.7776   C.3       1 RES1   0.0000
    33 C29      -3.2128   -4.1165   -1.3165   C.3       1 RES1   0.0000
    34 C30      -2.6357   -1.1802   -2.0641   C.2       1 RES1   0.0000
    35 O3       -1.4490   -1.0334   -1.7383   O.2       1 RES1   0.0000
    36 N2       -2.9563   -1.5809   -3.2990   N.am      1 RES1   0.0000
    37 C31      -1.8594   -1.7868   -4.2518   C.3       1 RES1   0.0000
    38 C32      -0.8024   -2.8375   -3.8547   C.3       1 RES1   0.0000
    39 C33      -1.0640   -4.3468   -4.0064   C.3       1 RES1   0.0000
    40 C34      -0.1809   -5.0702   -2.9819   C.3       1 RES1   0.0000
    41 C35      -0.0577   -6.5859   -3.1240   C.3       1 RES1   0.0000
    42 C36       0.7633   -7.1909   -1.9768   C.3       1 RES1   0.0000
    43 C37       2.2608   -6.8765   -2.0780   C.3       1 RES1   0.0000
    44 C38       2.9870   -6.6794   -0.7436   C.3       1 RES1   0.0000
    45 C39       3.0472   -7.9200    0.1632   C.3       1 RES1   0.0000
    46 C40       2.0595   -7.8750    1.3260   C.3       1 RES1   0.0000
    47 C41      -4.2647   -2.0166   -3.7578   C.3       1 RES1   0.0000
    48 C42      -4.9987   -1.0910   -4.7353   C.3       1 RES1   0.0000
    49 C43      -6.0825   -1.8458   -5.5308   C.3       1 RES1   0.0000
    50 C44      -6.8753   -2.9324   -4.7987   C.3       1 RES1   0.0000
    51 C45      -7.6881   -2.4945   -3.5830   C.3       1 RES1   0.0000
    52 C46      -8.4058   -3.7030   -2.9789   C.3       1 RES1   0.0000
    53 C47      -9.0301   -3.4578   -1.6003   C.3       1 RES1   0.0000
    54 C48      -8.0361   -3.4744   -0.4336   C.3       1 RES1   0.0000
    55 C49      -7.7477   -4.8565    0.1635   C.3       1 RES1   0.0000
    56 C50      -7.1622   -5.9054   -0.7739   C.3       1 RES1   0.0000
    57 H1       -1.4934   11.7999    3.2243   H         1 RES1   0.0000
    58 H2       -0.1468   12.0122    4.3455   H         1 RES1   0.0000
    59 H3       -1.5159   10.9896    4.7931   H         1 RES1   0.0000
    60 H4        0.4618   10.4297    2.5277   H         1 RES1   0.0000
    61 H5       -0.9214    9.4118    2.9518   H         1 RES1   0.0000
    62 H6        0.0595    8.8699    5.1170   H         1 RES1   0.0000
    63 H7        1.2943   10.1026    4.9227   H         1 RES1   0.0000
    64 H8        2.2844    7.9323    4.5255   H         1 RES1   0.0000
    65 H9        2.3002    8.8870    3.0509   H         1 RES1   0.0000
    66 H10       1.7451    6.7126    2.4065   H         1 RES1   0.0000
    67 H11       0.2405    7.6150    2.2866   H         1 RES1   0.0000
    68 H12       0.8718    6.1039    4.8265   H         1 RES1   0.0000
    69 H13       0.3901    5.1947    3.3985   H         1 RES1   0.0000
    70 H14      -1.7218    6.6204    3.3205   H         1 RES1   0.0000
    71 H15      -1.2993    7.1707    4.9242   H         1 RES1   0.0000
    72 H16      -2.1803    5.2707    5.8037   H         1 RES1   0.0000
    73 H17      -0.9263    4.3479    5.0120   H         1 RES1   0.0000
    74 H18      -3.7205    4.9876    4.0318   H         1 RES1   0.0000
    75 H19      -3.0946    3.4286    4.5578   H         1 RES1   0.0000
    76 H20      -1.4721    3.4811    2.6187   H         1 RES1   0.0000
    77 H21      -2.3163    4.9146    2.0058   H         1 RES1   0.0000
    78 H22      -5.0291    3.0696    3.0922   H         1 RES1   0.0000
    79 H23      -5.3357    2.6229    1.4254   H         1 RES1   0.0000
    80 H24      -4.7981    5.4619    2.3745   H         1 RES1   0.0000
    81 H25      -6.3546    4.6928    2.1681   H         1 RES1   0.0000
    82 H26      -5.5233    4.3023   -0.3181   H         1 RES1   0.0000
    83 H27      -4.3915    5.6052    0.0798   H         1 RES1   0.0000
    84 H28      -6.2506    6.6399   -0.9314   H         1 RES1   0.0000
    85 H29      -6.3529    7.0220    0.7796   H         1 RES1   0.0000
    86 H30      -8.1016    5.3161    1.0918   H         1 RES1   0.0000
    87 H31      -7.8910    4.7635   -0.5704   H         1 RES1   0.0000
    88 H32      -8.5231    7.1042   -1.3254   H         1 RES1   0.0000
    89 H33      -8.9488    7.4675    0.3433   H         1 RES1   0.0000
    90 H34     -10.1967    5.2145   -1.2848   H         1 RES1   0.0000
    91 H35     -10.8505    6.8377   -1.1698   H         1 RES1   0.0000
    92 H36     -12.0870    5.9364    0.5164   H         1 RES1   0.0000
    93 H37     -10.6693    6.3518    1.4628   H         1 RES1   0.0000
    94 H38     -11.3099    4.1592    2.0901   H         1 RES1   0.0000
    95 H39      -9.8562    3.9611    1.1159   H         1 RES1   0.0000
    96 H40     -12.7126    3.5871    0.1077   H         1 RES1   0.0000
    97 H41     -11.6121    2.2817    0.5462   H         1 RES1   0.0000
    98 H42     -11.2610    3.3075   -0.8443   H         1 RES1   0.0000
    99 H43      -4.5819    1.3090    0.1969   H         1 RES1   0.0000
   100 H44      -5.3396    0.2532    2.0840   H         1 RES1   0.0000
   101 H45      -4.0171   -0.8867    1.8880   H         1 RES1   0.0000
   102 H46      -4.2744    0.0011    4.1450   H         1 RES1   0.0000
   103 H47      -3.7436    1.5697    3.6185   H         1 RES1   0.0000
   104 H48      -2.1627   -0.9920    3.8276   H         1 RES1   0.0000
   105 H49      -1.7593    0.6131    4.3861   H         1 RES1   0.0000
   106 H50      -1.6358    0.2201    2.6606   H         1 RES1   0.0000
   107 H51      -4.5316   -0.3056   -1.4564   H         1 RES1   0.0000
   108 H52      -3.3943   -2.2160    0.5714   H         1 RES1   0.0000
   109 H53      -5.0970   -1.7470    0.3365   H         1 RES1   0.0000
   110 H54      -5.2353   -3.3962   -1.5329   H         1 RES1   0.0000
   111 H55      -4.8465   -4.0291    0.0457   H         1 RES1   0.0000
   112 H56      -2.7908   -3.5593   -2.1354   H         1 RES1   0.0000
   113 H57      -3.4502   -5.1145   -1.6651   H         1 RES1   0.0000
   114 H58      -2.4571   -4.1951   -0.5424   H         1 RES1   0.0000
   115 H59      -1.3214   -0.8318   -4.3131   H         1 RES1   0.0000
   116 H60      -2.3095   -2.0042   -5.2192   H         1 RES1   0.0000
   117 H61      -0.5390   -2.6302   -2.8168   H         1 RES1   0.0000
   118 H62       0.0772   -2.6127   -4.4536   H         1 RES1   0.0000
   119 H63      -0.8001   -4.6720   -5.0166   H         1 RES1   0.0000
   120 H64      -2.1047   -4.6068   -3.8350   H         1 RES1   0.0000
   121 H65      -0.5767   -4.8554   -1.9846   H         1 RES1   0.0000
   122 H66       0.8121   -4.6204   -3.0405   H         1 RES1   0.0000
   123 H67       0.4008   -6.8513   -4.0756   H         1 RES1   0.0000
   124 H68      -1.0557   -7.0228   -3.1087   H         1 RES1   0.0000
   125 H69       0.6231   -8.2716   -1.9741   H         1 RES1   0.0000
   126 H70       0.3675   -6.8119   -1.0315   H         1 RES1   0.0000
   127 H71       2.3995   -5.9595   -2.6513   H         1 RES1   0.0000
   128 H72       2.7612   -7.6690   -2.6337   H         1 RES1   0.0000
   129 H73       2.5259   -5.8537   -0.1888   H         1 RES1   0.0000
   130 H74       4.0095   -6.3747   -0.9756   H         1 RES1   0.0000
   131 H75       4.0543   -8.0178    0.5774   H         1 RES1   0.0000
   132 H76       2.8565   -8.8147   -0.4309   H         1 RES1   0.0000
   133 H77       2.2640   -7.0271    1.9817   H         1 RES1   0.0000
   134 H78       2.1458   -8.7816    1.9201   H         1 RES1   0.0000
   135 H79       1.0365   -7.8007    0.9626   H         1 RES1   0.0000
   136 H80      -4.9070   -2.1494   -2.8943   H         1 RES1   0.0000
   137 H81      -4.1118   -2.9840   -4.2398   H         1 RES1   0.0000
   138 H82      -4.3034   -0.6481   -5.4549   H         1 RES1   0.0000
   139 H83      -5.4525   -0.2666   -4.1862   H         1 RES1   0.0000
   140 H84      -5.6073   -2.3286   -6.3851   H         1 RES1   0.0000
   141 H85      -6.7796   -1.1084   -5.9245   H         1 RES1   0.0000
   142 H86      -6.2023   -3.7403   -4.5012   H         1 RES1   0.0000
   143 H87      -7.5672   -3.3618   -5.5269   H         1 RES1   0.0000
   144 H88      -8.4233   -1.7508   -3.8824   H         1 RES1   0.0000
   145 H89      -7.0447   -2.0348   -2.8328   H         1 RES1   0.0000
   146 H90      -7.6995   -4.5277   -2.9117   H         1 RES1   0.0000
   147 H91      -9.1965   -4.0090   -3.6655   H         1 RES1   0.0000
   148 H92      -9.7916   -4.2191   -1.4203   H         1 RES1   0.0000
   149 H93      -9.5356   -2.4886   -1.6176   H         1 RES1   0.0000
   150 H94      -8.4445   -2.8640    0.3764   H         1 RES1   0.0000
   151 H95      -7.1060   -3.0008   -0.7474   H         1 RES1   0.0000
   152 H96      -8.6743   -5.2524    0.5799   H         1 RES1   0.0000
   153 H97      -7.0519   -4.7172    0.9988   H         1 RES1   0.0000
   154 H98      -7.8902   -6.2148   -1.5153   H         1 RES1   0.0000
   155 H99      -6.8836   -6.7870   -0.2006   H         1 RES1   0.0000
   156 H100     -6.2738   -5.5420   -1.2833   H         1 RES1   0.0000
   157 C51       9.1501   -5.5683    3.9046   C.3       1 RES1   0.0000
   158 C52       7.6888   -5.6573    3.4884   C.3       1 RES1   0.0000
   159 C53       6.8245   -6.1885    4.6273   C.3       1 RES1   0.0000
   160 C54       5.3290   -6.1845    4.3173   C.3       1 RES1   0.0000
   161 C55       4.7357   -4.7940    4.0676   C.3       1 RES1   0.0000
   162 C56       4.8626   -3.8298    5.2600   C.3       1 RES1   0.0000
   163 C57       5.4707   -2.4660    4.9089   C.3       1 RES1   0.0000
   164 C58       4.5281   -1.6898    3.9928   C.3       1 RES1   0.0000
   165 C59       4.9166   -0.2437    3.6276   C.3       1 RES1   0.0000
   166 C60       4.5059   -0.0016    2.1657   C.3       1 RES1   0.0000
   167 N3        4.0337    1.3278    1.7705   N.am      1 RES1   0.0000
   168 C61       4.9193    2.4564    2.0584   C.3       1 RES1   0.0000
   169 C62       6.3690    2.3107    1.5869   C.3       1 RES1   0.0000
   170 C63       6.5217    2.0489    0.0914   C.3       1 RES1   0.0000
   171 C64       7.9184    2.3797   -0.4373   C.3       1 RES1   0.0000
   172 C65       8.2603    3.8802   -0.4692   C.3       1 RES1   0.0000
   173 C66       9.5630    4.1809    0.2742   C.3       1 RES1   0.0000
   174 C67      10.1144    5.5964    0.0647   C.3       1 RES1   0.0000
   175 C68       9.6982    6.6223    1.1202   C.3       1 RES1   0.0000
   176 C69       8.2355    7.0601    1.0956   C.3       1 RES1   0.0000
   177 C70       7.8273    7.7393   -0.2066   C.3       1 RES1   0.0000
   178 C71       2.8289    1.4079    1.2037   C.2       1 RES1   0.0000
   179 O4        2.1136    0.4014    0.9955   O.2       1 RES1   0.0000
   180 C72       2.2314    2.7739    0.8302   C.3       1 RES1   0.0000
   181 C73       1.8500    3.5617    2.1144   C.3       1 RES1   0.0000
   182 C74       1.9485    2.8552    3.4718   C.3       1 RES1   0.0000
   183 C75       0.8310    1.8436    3.6903   C.3       1 RES1   0.0000
   184 O5        1.1168    2.4731   -0.0246   O.3       1 RES1   0.0000
   185 C76       0.6770    3.4881   -0.9557   C.3       1 RES1   0.0000
   186 C77      -0.1937    4.4998   -0.1693   C.3       1 RES1   0.0000
   187 C78      -1.3075    5.3185   -0.8211   C.3       1 RES1   0.0000
   188 C79      -2.4750    4.4782   -1.3039   C.3       1 RES1   0.0000
   189 C80      -0.0736    2.6963   -2.0485   C.2       1 RES1   0.0000
   190 O6       -0.4553    1.5513   -1.7572   O.2       1 RES1   0.0000
   191 N4       -0.2908    3.1874   -3.2747   N.am      1 RES1   0.0000
   192 C81      -1.0240    2.3415   -4.2239   C.3       1 RES1   0.0000
   193 C82      -2.4605    1.9433   -3.8301   C.3       1 RES1   0.0000
   194 C83      -3.5950    2.9491   -4.0776   C.3       1 RES1   0.0000
   195 C84      -4.7789    2.6849   -3.1237   C.3       1 RES1   0.0000
   196 C85      -6.1549    2.6629   -3.7915   C.3       1 RES1   0.0000
   197 C86      -7.2890    2.4198   -2.7868   C.3       1 RES1   0.0000
   198 C87      -7.2588    1.0324   -2.1229   C.3       1 RES1   0.0000
   199 C88      -7.1710    1.0757   -0.5940   C.3       1 RES1   0.0000
   200 C89      -8.5031    1.3434    0.1013   C.3       1 RES1   0.0000
   201 C90      -8.3496    1.4674    1.6144   C.3       1 RES1   0.0000
   202 C91      -0.1264    4.5873   -3.6322   C.3       1 RES1   0.0000
   203 C92       0.6481    4.9431   -4.9094   C.3       1 RES1   0.0000
   204 C93      -0.0070    6.1077   -5.6798   C.3       1 RES1   0.0000
   205 C94      -0.6758    7.2269   -4.8726   C.3       1 RES1   0.0000
   206 C95       0.1581    7.9331   -3.8034   C.3       1 RES1   0.0000
   207 C96      -0.6751    9.0497   -3.1596   C.3       1 RES1   0.0000
   208 C97      -0.1264    9.5979   -1.8363   C.3       1 RES1   0.0000
   209 C98      -0.3582    8.7074   -0.6117   C.3       1 RES1   0.0000
   210 C99      -1.7103    8.8709    0.0926   C.3       1 RES1   0.0000
   211 C100     -2.9595    8.5945   -0.7372   C.3       1 RES1   0.0000
   212 H101      9.7627   -5.1703    3.0991   H         1 RES1   0.0000
   213 H102      9.5335   -6.5490    4.1719   H         1 RES1   0.0000
   214 H103      9.2544   -4.9157    4.7690   H         1 RES1   0.0000
   215 H104      7.5892   -6.3125    2.6203   H         1 RES1   0.0000
   216 H105      7.3469   -4.6632    3.1962   H         1 RES1   0.0000
   217 H106      7.0154   -5.5980    5.5239   H         1 RES1   0.0000
   218 H107      7.1271   -7.2129    4.8500   H         1 RES1   0.0000
   219 H108      4.7966   -6.6538    5.1464   H         1 RES1   0.0000
   220 H109      5.1527   -6.7935    3.4261   H         1 RES1   0.0000
   221 H110      3.6797   -4.9317    3.8166   H         1 RES1   0.0000
   222 H111      5.2203   -4.3672    3.1877   H         1 RES1   0.0000
   223 H112      5.4823   -4.2876    6.0275   H         1 RES1   0.0000
   224 H113      3.8780   -3.6646    5.7011   H         1 RES1   0.0000
   225 H114      6.4386   -2.6073    4.4261   H         1 RES1   0.0000
   226 H115      5.6360   -1.9111    5.8324   H         1 RES1   0.0000
   227 H116      3.5499   -1.6768    4.4761   H         1 RES1   0.0000
   228 H117      4.4352   -2.2635    3.0677   H         1 RES1   0.0000
   229 H118      5.9873   -0.1097    3.7528   H         1 RES1   0.0000
   230 H119      4.4124    0.4549    4.2942   H         1 RES1   0.0000
   231 H120      3.6621   -0.6565    1.9587   H         1 RES1   0.0000
   232 H121      5.3344   -0.2865    1.5166   H         1 RES1   0.0000
   233 H122      4.9464    2.6060    3.1413   H         1 RES1   0.0000
   234 H123      4.5054    3.3577    1.6095   H         1 RES1   0.0000
   235 H124      6.8786    1.5270    2.1471   H         1 RES1   0.0000
   236 H125      6.8570    3.2525    1.8401   H         1 RES1   0.0000
   237 H126      5.7776    2.6228   -0.4621   H         1 RES1   0.0000
   238 H127      6.3397    0.9934   -0.1005   H         1 RES1   0.0000
   239 H128      8.0044    1.9694   -1.4447   H         1 RES1   0.0000
   240 H129      8.6490    1.8579    0.1810   H         1 RES1   0.0000
   241 H130      7.4443    4.4570   -0.0321   H         1 RES1   0.0000
   242 H131      8.3707    4.2079   -1.5050   H         1 RES1   0.0000
   243 H132     10.3122    3.4683   -0.0755   H         1 RES1   0.0000
   244 H133      9.4176    4.0072    1.3420   H         1 RES1   0.0000
   245 H134      9.8477    5.9574   -0.9289   H         1 RES1   0.0000
   246 H135     11.2043    5.5389    0.0967   H         1 RES1   0.0000
   247 H136     10.3197    7.5102    0.9904   H         1 RES1   0.0000
   248 H137      9.9239    6.2160    2.1089   H         1 RES1   0.0000
   249 H138      8.0903    7.7671    1.9156   H         1 RES1   0.0000
   250 H139      7.5902    6.2015    1.2890   H         1 RES1   0.0000
   251 H140      8.5593    8.4939   -0.4813   H         1 RES1   0.0000
   252 H141      6.8648    8.2331   -0.0920   H         1 RES1   0.0000
   253 H142      7.7553    7.0238   -1.0216   H         1 RES1   0.0000
   254 H143      2.9599    3.3515    0.2449   H         1 RES1   0.0000
   255 H144      2.4547    4.4680    2.1568   H         1 RES1   0.0000
   256 H145      0.8125    3.8642    2.0047   H         1 RES1   0.0000
   257 H146      1.8773    3.6297    4.2370   H         1 RES1   0.0000
   258 H147      2.9092    2.3705    3.6192   H         1 RES1   0.0000
   259 H148     -0.1071    2.3556    3.8943   H         1 RES1   0.0000
   260 H149      1.0583    1.2136    4.5465   H         1 RES1   0.0000
   261 H150      0.6944    1.2129    2.8068   H         1 RES1   0.0000
   262 H151      1.5591    3.9625   -1.4054   H         1 RES1   0.0000
   263 H152     -0.6846    3.8896    0.5880   H         1 RES1   0.0000
   264 H153      0.4886    5.2050    0.3123   H         1 RES1   0.0000
   265 H154     -0.9402    5.9525   -1.6226   H         1 RES1   0.0000
   266 H155     -1.6708    5.9889   -0.0381   H         1 RES1   0.0000
   267 H156     -2.1523    3.7434   -2.0222   H         1 RES1   0.0000
   268 H157     -3.2323    5.1071   -1.7669   H         1 RES1   0.0000
   269 H158     -2.9315    3.9446   -0.4779   H         1 RES1   0.0000
   270 H159     -0.4548    1.4115   -4.3028   H         1 RES1   0.0000
   271 H160     -1.0144    2.8502   -5.1894   H         1 RES1   0.0000
   272 H161     -2.4419    1.6456   -2.7787   H         1 RES1   0.0000
   273 H162     -2.7014    1.0477   -4.4031   H         1 RES1   0.0000
   274 H163     -3.9428    2.8532   -5.1071   H         1 RES1   0.0000
   275 H164     -3.2431    3.9710   -3.9519   H         1 RES1   0.0000
   276 H165     -4.8008    3.4555   -2.3518   H         1 RES1   0.0000
   277 H166     -4.6141    1.7306   -2.6185   H         1 RES1   0.0000
   278 H167     -6.1850    1.8989   -4.5709   H         1 RES1   0.0000
   279 H168     -6.3307    3.6240   -4.2781   H         1 RES1   0.0000
   280 H169     -8.2333    2.5562   -3.3112   H         1 RES1   0.0000
   281 H170     -7.2353    3.1965   -2.0214   H         1 RES1   0.0000
   282 H171     -6.3976    0.4768   -2.4991   H         1 RES1   0.0000
   283 H172     -8.1434    0.4617   -2.4005   H         1 RES1   0.0000
   284 H173     -6.4656    1.8625   -0.3043   H         1 RES1   0.0000
   285 H174     -6.7892    0.1153   -0.2307   H         1 RES1   0.0000
   286 H175     -9.1904    0.5264   -0.1232   H         1 RES1   0.0000
   287 H176     -8.9407    2.2602   -0.2911   H         1 RES1   0.0000
   288 H177     -7.8951    0.5741    2.0397   H         1 RES1   0.0000
   289 H178     -9.3227    1.5966    2.0779   H         1 RES1   0.0000
   290 H179     -7.7344    2.3255    1.8801   H         1 RES1   0.0000
   291 H180      0.3712    5.0713   -2.8008   H         1 RES1   0.0000
   292 H181     -1.1334    4.9965   -3.7333   H         1 RES1   0.0000
   293 H182      0.7251    4.0878   -5.5822   H         1 RES1   0.0000
   294 H183      1.6696    5.2267   -4.6494   H         1 RES1   0.0000
   295 H184     -0.7744    5.7006   -6.3421   H         1 RES1   0.0000
   296 H185      0.7596    6.5484   -6.3145   H         1 RES1   0.0000
   297 H186     -1.5907    6.8527   -4.4051   H         1 RES1   0.0000
   298 H187     -0.9959    7.9800   -5.5948   H         1 RES1   0.0000
   299 H188      1.0530    8.3609   -4.2532   H         1 RES1   0.0000
   300 H189      0.4810    7.2255   -3.0392   H         1 RES1   0.0000
   301 H190     -1.6860    8.6798   -3.0026   H         1 RES1   0.0000
   302 H191     -0.7408    9.8778   -3.8669   H         1 RES1   0.0000
   303 H192     -0.5824   10.5714   -1.6503   H         1 RES1   0.0000
   304 H193      0.9483    9.7601   -1.9490   H         1 RES1   0.0000
   305 H194      0.4063    8.9443    0.1329   H         1 RES1   0.0000
   306 H195     -0.2082    7.6676   -0.8939   H         1 RES1   0.0000
   307 H196     -1.7793    9.8871    0.4829   H         1 RES1   0.0000
   308 H197     -1.7141    8.1965    0.9577   H         1 RES1   0.0000
   309 H198     -3.1037    9.3629   -1.4886   H         1 RES1   0.0000
   310 H199     -3.8353    8.6009   -0.0911   H         1 RES1   0.0000
   311 H200     -2.9107    7.6274   -1.2315   H         1 RES1   0.0000
   312 C101    -10.1273   -5.4247    4.2719   C.3       1 RES1   0.0000
   313 C102     -9.3655   -4.2692    3.6429   C.3       1 RES1   0.0000
   314 C103     -8.7316   -3.3729    4.7033   C.3       1 RES1   0.0000
   315 C104     -8.1215   -2.1000    4.1224   C.3       1 RES1   0.0000
   316 C105     -6.9327   -2.3280    3.1864   C.3       1 RES1   0.0000
   317 C106     -5.5580   -2.4014    3.8601   C.3       1 RES1   0.0000
   318 C107     -5.1469   -3.7046    4.5443   C.3       1 RES1   0.0000
   319 C108     -3.6642   -3.6717    4.9603   C.3       1 RES1   0.0000
   320 C109     -2.6437   -4.3759    4.0512   C.3       1 RES1   0.0000
   321 C110     -2.6021   -3.8574    2.6071   C.3       1 RES1   0.0000
   322 N5       -1.3924   -4.2073    1.8468   N.am      1 RES1   0.0000
   323 C111     -0.8954   -5.5801    1.9578   C.3       1 RES1   0.0000
   324 C112     -1.8866   -6.7454    1.8508   C.3       1 RES1   0.0000
   325 C113     -2.6026   -6.9230    0.5159   C.3       1 RES1   0.0000
   326 C114     -3.1052   -8.3568    0.3258   C.3       1 RES1   0.0000
   327 C115     -1.9746   -9.3386    0.0308   C.3       1 RES1   0.0000
   328 C116     -2.4913  -10.7652   -0.1176   C.3       1 RES1   0.0000
   329 C117     -1.4097  -11.7681   -0.5212   C.3       1 RES1   0.0000
   330 C118     -0.3164  -11.9596    0.5386   C.3       1 RES1   0.0000
   331 C119      0.9669  -11.1729    0.2678   C.3       1 RES1   0.0000
   332 C120      1.8004  -11.7653   -0.8617   C.3       1 RES1   0.0000
   333 C121     -0.7339   -3.2380    1.1957   C.2       1 RES1   0.0000
   334 O7       -1.1917   -2.0806    1.0763   O.2       1 RES1   0.0000
   335 C122      0.6926   -3.5005    0.6702   C.3       1 RES1   0.0000
   336 C123      1.6271   -3.6946    1.8986   C.3       1 RES1   0.0000
   337 C124      1.1436   -3.1454    3.2412   C.3       1 RES1   0.0000
   338 C125      0.9752   -1.6315    3.2730   C.3       1 RES1   0.0000
   339 O8        1.0479   -2.3897   -0.1772   O.3       1 RES1   0.0000
   340 C126      2.1566   -2.5824   -1.0999   C.3       1 RES1   0.0000
   341 C127      3.4749   -2.3083   -0.3400   C.3       1 RES1   0.0000
   342 C128      4.7330   -1.7614   -1.0224   C.3       1 RES1   0.0000
   343 C129      4.6058   -0.3412   -1.5440   C.3       1 RES1   0.0000
   344 C130      1.9285   -1.5475   -2.2241   C.2       1 RES1   0.0000
   345 O9        1.2223   -0.5698   -1.9394   O.2       1 RES1   0.0000
   346 N6        2.5077   -1.6987   -3.4221   N.am      1 RES1   0.0000
   347 C131      2.2508   -0.7500   -4.5210   C.3       1 RES1   0.0000
   348 C132      2.2531    0.7639   -4.2364   C.3       1 RES1   0.0000
   349 C133      3.5803    1.5469   -4.2664   C.3       1 RES1   0.0000
   350 C134      3.5109    2.7112   -3.2702   C.3       1 RES1   0.0000
   351 C135      4.7392    3.6235   -3.2717   C.3       1 RES1   0.0000
   352 C136      4.6936    4.6592   -2.1386   C.3       1 RES1   0.0000
   353 C137      3.7751    5.8456   -2.4525   C.3       1 RES1   0.0000
   354 C138      3.0612    6.4858   -1.2560   C.3       1 RES1   0.0000
   355 C139      3.9418    7.2921   -0.2988   C.3       1 RES1   0.0000
   356 C140      4.6070    6.4549    0.7850   C.3       1 RES1   0.0000
   357 C141      3.4743   -2.7382   -3.7609   C.3       1 RES1   0.0000
   358 C142      3.0263   -3.7623   -4.8122   C.3       1 RES1   0.0000
   359 C143      4.1976   -4.4708   -5.5306   C.3       1 RES1   0.0000
   360 C144      5.5293   -4.5904   -4.7887   C.3       1 RES1   0.0000
   361 C145      5.5303   -5.4130   -3.5025   C.3       1 RES1   0.0000
   362 C146      6.9364   -5.4148   -2.8942   C.3       1 RES1   0.0000
   363 C147      7.0015   -5.8897   -1.4402   C.3       1 RES1   0.0000
   364 C148      6.4980   -4.8650   -0.4150   C.3       1 RES1   0.0000
   365 C149      7.5794   -3.9617    0.1870   C.3       1 RES1   0.0000
   366 C150      8.2820   -3.0318   -0.7941   C.3       1 RES1   0.0000
   367 H201    -10.5288   -6.0829    3.5065   H         1 RES1   0.0000
   368 H202    -10.9543   -5.0552    4.8702   H         1 RES1   0.0000
   369 H203     -9.4700   -6.0049    4.9151   H         1 RES1   0.0000
   370 H204    -10.0432   -3.6741    3.0271   H         1 RES1   0.0000
   371 H205     -8.5929   -4.6743    2.9886   H         1 RES1   0.0000
   372 H206     -7.9720   -3.9344    5.2463   H         1 RES1   0.0000
   373 H207     -9.4998   -3.0839    5.4233   H         1 RES1   0.0000
   374 H208     -7.8229   -1.4371    4.9376   H         1 RES1   0.0000
   375 H209     -8.9059   -1.5814    3.5655   H         1 RES1   0.0000
   376 H210     -6.8935   -1.4798    2.4943   H         1 RES1   0.0000
   377 H211     -7.1025   -3.2185    2.5868   H         1 RES1   0.0000
   378 H212     -5.5128   -1.6040    4.6066   H         1 RES1   0.0000
   379 H213     -4.8096   -2.1937    3.0933   H         1 RES1   0.0000
   380 H214     -5.3479   -4.5499    3.8901   H         1 RES1   0.0000
   381 H215     -5.7515   -3.8440    5.4397   H         1 RES1   0.0000
   382 H216     -3.5709   -4.1575    5.9338   H         1 RES1   0.0000
   383 H217     -3.3588   -2.6303    5.0982   H         1 RES1   0.0000
   384 H218     -2.8738   -5.4366    4.0633   H         1 RES1   0.0000
   385 H219     -1.6663   -4.2523    4.5145   H         1 RES1   0.0000
   386 H220     -2.6299   -2.7674    2.6402   H         1 RES1   0.0000
   387 H221     -3.4801   -4.2240    2.0715   H         1 RES1   0.0000
   388 H222     -0.3864   -5.6872    2.9216   H         1 RES1   0.0000
   389 H223     -0.1578   -5.7337    1.1736   H         1 RES1   0.0000
   390 H224     -2.6275   -6.7243    2.6461   H         1 RES1   0.0000
   391 H225     -1.2665   -7.6269    2.0275   H         1 RES1   0.0000
   392 H226     -1.9251   -6.6894   -0.3088   H         1 RES1   0.0000
   393 H227     -3.4553   -6.2468    0.4620   H         1 RES1   0.0000
   394 H228     -3.8079   -8.3786   -0.5094   H         1 RES1   0.0000
   395 H229     -3.6533   -8.6818    1.2104   H         1 RES1   0.0000
   396 H230     -1.2387   -9.3142    0.8352   H         1 RES1   0.0000
   397 H231     -1.4762   -9.0329   -0.8929   H         1 RES1   0.0000
   398 H232     -3.2806  -10.7783   -0.8723   H         1 RES1   0.0000
   399 H233     -2.9339  -11.0817    0.8288   H         1 RES1   0.0000
   400 H234     -0.9613  -11.4515   -1.4648   H         1 RES1   0.0000
   401 H235     -1.8997  -12.7246   -0.7047   H         1 RES1   0.0000
   402 H236     -0.0544  -13.0154    0.6004   H         1 RES1   0.0000
   403 H237     -0.7123  -11.6712    1.5147   H         1 RES1   0.0000
   404 H238      1.5695  -11.1717    1.1793   H         1 RES1   0.0000
   405 H239      0.7234  -10.1366    0.0286   H         1 RES1   0.0000
   406 H240      2.0460  -12.8009   -0.6463   H         1 RES1   0.0000
   407 H241      2.7307  -11.2126   -0.9787   H         1 RES1   0.0000
   408 H242      1.2639  -11.7361   -1.8067   H         1 RES1   0.0000
   409 H243      0.7172   -4.4011    0.0392   H         1 RES1   0.0000
   410 H244      1.8357   -4.7600    2.0091   H         1 RES1   0.0000
   411 H245      2.5659   -3.1996    1.6878   H         1 RES1   0.0000
   412 H246      1.8994   -3.4245    3.9759   H         1 RES1   0.0000
   413 H247      0.2149   -3.6191    3.5533   H         1 RES1   0.0000
   414 H248      1.9380   -1.1349    3.2564   H         1 RES1   0.0000
   415 H249      0.4691   -1.3444    4.1894   H         1 RES1   0.0000
   416 H250      0.3910   -1.2667    2.4213   H         1 RES1   0.0000
   417 H251      2.1014   -3.5975   -1.5120   H         1 RES1   0.0000
   418 H252      3.1865   -1.5515    0.3939   H         1 RES1   0.0000
   419 H253      3.7629   -3.2304    0.1603   H         1 RES1   0.0000
   420 H254      5.1014   -2.4182   -1.8038   H         1 RES1   0.0000
   421 H255      5.4992   -1.7714   -0.2450   H         1 RES1   0.0000
   422 H256      3.8814   -0.2627   -2.3375   H         1 RES1   0.0000
   423 H257      5.5628   -0.0085   -1.9356   H         1 RES1   0.0000
   424 H258      4.2958    0.3317   -0.7519   H         1 RES1   0.0000
   425 H259      1.2532   -0.9901   -4.9022   H         1 RES1   0.0000
   426 H260      2.9780   -0.9717   -5.3019   H         1 RES1   0.0000
   427 H261      1.7584    0.9358   -3.2807   H         1 RES1   0.0000
   428 H262      1.6225    1.1912   -5.0158   H         1 RES1   0.0000
   429 H263      3.7379    1.9429   -5.2707   H         1 RES1   0.0000
   430 H264      4.4392    0.9201   -4.0328   H         1 RES1   0.0000
   431 H265      3.3816    2.2944   -2.2653   H         1 RES1   0.0000
   432 H266      2.6203    3.2979   -3.5020   H         1 RES1   0.0000
   433 H267      4.8098    4.1399   -4.2294   H         1 RES1   0.0000
   434 H268      5.6365    3.0132   -3.1599   H         1 RES1   0.0000
   435 H269      5.7052    5.0186   -1.9496   H         1 RES1   0.0000
   436 H270      4.3467    4.1620   -1.2276   H         1 RES1   0.0000
   437 H271      3.0011    5.5051   -3.1437   H         1 RES1   0.0000
   438 H272      4.3463    6.6168   -2.9694   H         1 RES1   0.0000
   439 H273      2.5319    5.7193   -0.6806   H         1 RES1   0.0000
   440 H274      2.3085    7.1658   -1.6619   H         1 RES1   0.0000
   441 H275      3.3187    8.0487    0.1848   H         1 RES1   0.0000
   442 H276      4.7001    7.8184   -0.8779   H         1 RES1   0.0000
   443 H277      3.8588    5.9570    1.4024   H         1 RES1   0.0000
   444 H278      5.1979    7.0912    1.4361   H         1 RES1   0.0000
   445 H279      5.2631    5.7052    0.3543   H         1 RES1   0.0000
   446 H280      3.7350   -3.2868   -2.8640   H         1 RES1   0.0000
   447 H281      4.3666   -2.2242   -4.1247   H         1 RES1   0.0000
   448 H282      2.4104   -3.2785   -5.5708   H         1 RES1   0.0000
   449 H283      2.4019   -4.5147   -4.3330   H         1 RES1   0.0000
   450 H284      4.4054   -3.9417   -6.4610   H         1 RES1   0.0000
   451 H285      3.8595   -5.4709   -5.8028   H         1 RES1   0.0000
   452 H286      5.9208   -3.5955   -4.5675   H         1 RES1   0.0000
   453 H287      6.2384   -5.0507   -5.4800   H         1 RES1   0.0000
   454 H288      5.2188   -6.4348   -3.7156   H         1 RES1   0.0000
   455 H289      4.8192   -5.0012   -2.7850   H         1 RES1   0.0000
   456 H290      7.3448   -4.4070   -2.9587   H         1 RES1   0.0000
   457 H291      7.5707   -6.0626   -3.5000   H         1 RES1   0.0000
   458 H292      8.0356   -6.1450   -1.2066   H         1 RES1   0.0000
   459 H293      6.4169   -6.8077   -1.3496   H         1 RES1   0.0000
   460 H294      6.0315   -5.3982    0.4174   H         1 RES1   0.0000
   461 H295      5.7270   -4.2472   -0.8766   H         1 RES1   0.0000
   462 H296      8.3294   -4.5861    0.6728   H         1 RES1   0.0000
   463 H297      7.1114   -3.3559    0.9709   H         1 RES1   0.0000
   464 H298      8.9045   -3.5911   -1.4828   H         1 RES1   0.0000
   465 H299      8.9268   -2.3445   -0.2522   H         1 RES1   0.0000
   466 H300      7.5693   -2.4418   -1.3667   H         1 RES1   0.0000
@<TRIPOS>BOND
     1     1    24    1
     2     1    29    1
     3     1    35    1
     4     1   179    1
     5     1   184    1
     6     1   190    1
     7     1   334    1
     8     1   339    1
     9     1   345    1
    10     2     3    1
    11     2    57    1
    12     2    58    1
    13     2    59    1
    14     3     4    1
    15     3    60    1
    16     3    61    1
    17     4     5    1
    18     4    62    1
    19     4    63    1
    20     5     6    1
    21     5    64    1
    22     5    65    1
    23     6     7    1
    24     6    66    1
    25     6    67    1
    26     7     8    1
    27     7    68    1
    28     7    69    1
    29     8     9    1
    30     8    70    1
    31     8    71    1
    32     9    10    1
    33     9    72    1
    34     9    73    1
    35    10    11    1
    36    10    74    1
    37    10    75    1
    38    11    12    1
    39    11    76    1
    40    11    77    1
    41    12    13    1
    42    12    23    1
    43    13    14    1
    44    13    78    1
    45    13    79    1
    46    14    15    1
    47    14    80    1
    48    14    81    1
    49    15    16    1
    50    15    82    1
    51    15    83    1
    52    16    17    1
    53    16    84    1
    54    16    85    1
    55    17    18    1
    56    17    86    1
    57    17    87    1
    58    18    19    1
    59    18    88    1
    60    18    89    1
    61    19    20    1
    62    19    90    1
    63    19    91    1
    64    20    21    1
    65    20    92    1
    66    20    93    1
    67    21    22    1
    68    21    94    1
    69    21    95    1
    70    22    96    1
    71    22    97    1
    72    22    98    1
    73    23    24    2
    74    23    25    1
    75    25    26    1
    76    25    29    1
    77    25    99    1
    78    26    27    1
    79    26   100    1
    80    26   101    1
    81    27    28    1
    82    27   102    1
    83    27   103    1
    84    28   104    1
    85    28   105    1
    86    28   106    1
    87    29    30    1
    88    30    31    1
    89    30    34    1
    90    30   107    1
    91    31    32    1
    92    31   108    1
    93    31   109    1
    94    32    33    1
    95    32   110    1
    96    32   111    1
    97    33   112    1
    98    33   113    1
    99    33   114    1
   100    34    35    2
   101    34    36    1
   102    36    37    1
   103    36    47    1
   104    37    38    1
   105    37   115    1
   106    37   116    1
   107    38    39    1
   108    38   117    1
   109    38   118    1
   110    39    40    1
   111    39   119    1
   112    39   120    1
   113    40    41    1
   114    40   121    1
   115    40   122    1
   116    41    42    1
   117    41   123    1
   118    41   124    1
   119    42    43    1
   120    42   125    1
   121    42   126    1
   122    43    44    1
   123    43   127    1
   124    43   128    1
   125    44    45    1
   126    44   129    1
   127    44   130    1
   128    45    46    1
   129    45   131    1
   130    45   132    1
   131    46   133    1
   132    46   134    1
   133    46   135    1
   134    47    48    1
   135    47   136    1
   136    47   137    1
   137    48    49    1
   138    48   138    1
   139    48   139    1
   140    49    50    1
   141    49   140    1
   142    49   141    1
   143    50    51    1
   144    50   142    1
   145    50   143    1
   146    51    52    1
   147    51   144    1
   148    51   145    1
   149    52    53    1
   150    52   146    1
   151    52   147    1
   152    53    54    1
   153    53   148    1
   154    53   149    1
   155    54    55    1
   156    54   150    1
   157    54   151    1
   158    55    56    1
   159    55   152    1
   160    55   153    1
   161    56   154    1
   162    56   155    1
   163    56   156    1
   164   157   158    1
   165   157   212    1
   166   157   213    1
   167   157   214    1
   168   158   159    1
   169   158   215    1
   170   158   216    1
   171   159   160    1
   172   159   217    1
   173   159   218    1
   174   160   161    1
   175   160   219    1
   176   160   220    1
   177   161   162    1
   178   161   221    1
   179   161   222    1
   180   162   163    1
   181   162   223    1
   182   162   224    1
   183   163   164    1
   184   163   225    1
   185   163   226    1
   186   164   165    1
   187   164   227    1
   188   164   228    1
   189   165   166    1
   190   165   229    1
   191   165   230    1
   192   166   167    1
   193   166   231    1
   194   166   232    1
   195   167   168    1
   196   167   178    1
   197   168   169    1
   198   168   233    1
   199   168   234    1
   200   169   170    1
   201   169   235    1
   202   169   236    1
   203   170   171    1
   204   170   237    1
   205   170   238    1
   206   171   172    1
   207   171   239    1
   208   171   240    1
   209   172   173    1
   210   172   241    1
   211   172   242    1
   212   173   174    1
   213   173   243    1
   214   173   244    1
   215   174   175    1
   216   174   245    1
   217   174   246    1
   218   175   176    1
   219   175   247    1
   220   175   248    1
   221   176   177    1
   222   176   249    1
   223   176   250    1
   224   177   251    1
   225   177   252    1
   226   177   253    1
   227   178   179    2
   228   178   180    1
   229   180   181    1
   230   180   184    1
   231   180   254    1
   232   181   182    1
   233   181   255    1
   234   181   256    1
   235   182   183    1
   236   182   257    1
   237   182   258    1
   238   183   259    1
   239   183   260    1
   240   183   261    1
   241   184   185    1
   242   185   186    1
   243   185   189    1
   244   185   262    1
   245   186   187    1
   246   186   263    1
   247   186   264    1
   248   187   188    1
   249   187   265    1
   250   187   266    1
   251   188   267    1
   252   188   268    1
   253   188   269    1
   254   189   190    2
   255   189   191    1
   256   191   192    1
   257   191   202    1
   258   192   193    1
   259   192   270    1
   260   192   271    1
   261   193   194    1
   262   193   272    1
   263   193   273    1
   264   194   195    1
   265   194   274    1
   266   194   275    1
   267   195   196    1
   268   195   276    1
   269   195   277    1
   270   196   197    1
   271   196   278    1
   272   196   279    1
   273   197   198    1
   274   197   280    1
   275   197   281    1
   276   198   199    1
   277   198   282    1
   278   198   283    1
   279   199   200    1
   280   199   284    1
   281   199   285    1
   282   200   201    1
   283   200   286    1
   284   200   287    1
   285   201   288    1
   286   201   289    1
   287   201   290    1
   288   202   203    1
   289   202   291    1
   290   202   292    1
   291   203   204    1
   292   203   293    1
   293   203   294    1
   294   204   205    1
   295   204   295    1
   296   204   296    1
   297   205   206    1
   298   205   297    1
   299   205   298    1
   300   206   207    1
   301   206   299    1
   302   206   300    1
   303   207   208    1
   304   207   301    1
   305   207   302    1
   306   208   209    1
   307   208   303    1
   308   208   304    1
   309   209   210    1
   310   209   305    1
   311   209   306    1
   312   210   211    1
   313   210   307    1
   314   210   308    1
   315   211   309    1
   316   211   310    1
   317   211   311    1
   318   312   313    1
   319   312   367    1
   320   312   368    1
   321   312   369    1
   322   313   314    1
   323   313   370    1
   324   313   371    1
   325   314   315    1
   326   314   372    1
   327   314   373    1
   328   315   316    1
   329   315   374    1
   330   315   375    1
   331   316   317    1
   332   316   376    1
   333   316   377    1
   334   317   318    1
   335   317   378    1
   336   317   379    1
   337   318   319    1
   338   318   380    1
   339   318   381    1
   340   319   320    1
   341   319   382    1
   342   319   383    1
   343   320   321    1
   344   320   384    1
   345   320   385    1
   346   321   322    1
   347   321   386    1
   348   321   387    1
   349   322   323    1
   350   322   333    1
   351   323   324    1
   352   323   388    1
   353   323   389    1
   354   324   325    1
   355   324   390    1
   356   324   391    1
   357   325   326    1
   358   325   392    1
   359   325   393    1
   360   326   327    1
   361   326   394    1
   362   326   395    1
   363   327   328    1
   364   327   396    1
   365   327   397    1
   366   328   329    1
   367   328   398    1
   368   328   399    1
   369   329   330    1
   370   329   400    1
   371   329   401    1
   372   330   331    1
   373   330   402    1
   374   330   403    1
   375   331   332    1
   376   331   404    1
   377   331   405    1
   378   332   406    1
   379   332   407    1
   380   332   408    1
   381   333   334    2
   382   333   335    1
   383   335   336    1
   384   335   339    1
   385   335   409    1
   386   336   337    1
   387   336   410    1
   388   336   411    1
   389   337   338    1
   390   337   412    1
   391   337   413    1
   392   338   414    1
   393   338   415    1
   394   338   416    1
   395   339   340    1
   396   340   341    1
   397   340   344    1
   398   340   417    1
   399   341   342    1
   400   341   418    1
   401   341   419    1
   402   342   343    1
   403   342   420    1
   404   342   421    1
   405   343   422    1
   406   343   423    1
   407   343   424    1
   408   344   345    2
   409   344   346    1
   410   346   347    1
   411   346   357    1
   412   347   348    1
   413   347   425    1
   414   347   426    1
   415   348   349    1
   416   348   427    1
   417   348   428    1
   418   349   350    1
   419   349   429    1
   420   349   430    1
   421   350   351    1
   422   350   431    1
   423   350   432    1
   424   351   352    1
   425   351   433    1
   426   351   434    1
   427   352   353    1
   428   352   435    1
   429   352   436    1
   430   353   354    1
   431   353   437    1
   432   353   438    1
   433   354   355    1
   434   354   439    1
   435   354   440    1
   436   355   356    1
   437   355   441    1
   438   355   442    1
   439   356   443    1
   440   356   444    1
   441   356   445    1
   442   357   358    1
   443   357   446    1
   444   357   447    1
   445   358   359    1
   446   358   448    1
   447   358   449    1
   448   359   360    1
   449   359   450    1
   450   359   451    1
   451   360   361    1
   452   360   452    1
   453   360   453    1
   454   361   362    1
   455   361   454    1
   456   361   455    1
   457   362   363    1
   458   362   456    1
   459   362   457    1
   460   363   364    1
   461   363   458    1
   462   363   459    1
   463   364   365    1
   464   364   460    1
   465   364   461    1
   466   365   366    1
   467   365   462    1
   468   365   463    1
   469   366   464    1
   470   366   465    1
   471   366   466    1
@<TRIPOS>SUBSTRUCTURE
     1 RES1      466 GROUP             0 ****  ****    0  
