@<TRIPOS>MOLECULE
ICIGOT_geomtry_0_nunpairedes_0_charge_1 Charge: 1 Unpaired_Electrons: 3 XTB_Unpaired_Electrons: 0 XTB_Charge: 1
    87    97     1     0     0
SMALL
NoCharges
****
Generated from Architector

@<TRIPOS>ATOM
     1 Nd1      -0.3509    0.0387   -0.0916   Nd        1 RES1   0.0000
     2 C1       -2.0957    2.1250   -4.6778   C.3       1 RES1   0.0000
     3 C2       -0.9205    1.4696   -5.4083   C.3       1 RES1   0.0000
     4 C3       -1.4655    0.3946   -6.3634   C.3       1 RES1   0.0000
     5 C4       -0.1938    2.5067   -6.2808   C.3       1 RES1   0.0000
     6 C5        0.8798    3.2623   -5.5203   C.3       1 RES1   0.0000
     7 C6        2.0084    2.3467   -5.0393   C.3       1 RES1   0.0000
     8 C7        2.9079    1.9075   -6.1955   C.3       1 RES1   0.0000
     9 C8        2.8358    3.1061   -3.9944   C.3       1 RES1   0.0000
    10 C9        1.4160    1.1391   -4.3827   C.ar      1 RES1   0.0000
    11 N1        2.1881    0.3720   -3.6331   N.ar      1 RES1   0.0000
    12 C10       1.6153   -0.3969   -2.7264   C.ar      1 RES1   0.0000
    13 C11       2.4492   -1.1651   -1.7727   C.ar      1 RES1   0.0000
    14 C12       3.5882   -1.8864   -2.1147   C.ar      1 RES1   0.0000
    15 C13       4.2796   -2.5363   -1.1056   C.ar      1 RES1   0.0000
    16 C14       3.8882   -2.3694    0.2099   C.ar      1 RES1   0.0000
    17 C15       2.7976   -1.5415    0.4810   C.ar      1 RES1   0.0000
    18 C16       2.4936   -0.9887    1.8156   C.ar      1 RES1   0.0000
    19 C17       3.2454   -1.2768    2.9520   C.ar      1 RES1   0.0000
    20 C18       3.0876   -0.4889    4.0782   C.ar      1 RES1   0.0000
    21 C19       2.1931    0.5650    4.0454   C.ar      1 RES1   0.0000
    22 C20       1.4349    0.7518    2.8918   C.ar      1 RES1   0.0000
    23 C21       0.5230    1.8940    2.7119   C.ar      1 RES1   0.0000
    24 N2       -0.2610    1.8646    1.6316   N.ar      1 RES1   0.0000
    25 N3       -1.0031    2.9132    1.3611   N.ar      1 RES1   0.0000
    26 C22      -0.9572    3.9893    2.1325   C.ar      1 RES1   0.0000
    27 C23      -0.1438    3.9757    3.2984   C.ar      1 RES1   0.0000
    28 N4        0.5851    2.9069    3.5657   N.ar      1 RES1   0.0000
    29 C24      -0.0243    5.1495    4.2172   C.3       1 RES1   0.0000
    30 C25       0.0672    4.7015    5.6769   C.3       1 RES1   0.0000
    31 C26       1.2735    5.8798    3.8391   C.3       1 RES1   0.0000
    32 C27      -1.2264    6.0769    4.0447   C.3       1 RES1   0.0000
    33 C28      -1.5063    6.3940    2.5867   C.3       1 RES1   0.0000
    34 C29      -1.8308    5.1496    1.7526   C.3       1 RES1   0.0000
    35 C30      -3.2894    4.7325    1.9896   C.3       1 RES1   0.0000
    36 C31      -1.6679    5.5139    0.2725   C.3       1 RES1   0.0000
    37 N5        1.5725   -0.0177    1.8108   N.ar      1 RES1   0.0000
    38 N6        2.0621   -1.0112   -0.5050   N.ar      1 RES1   0.0000
    39 N7        0.3038   -0.3346   -2.4566   N.ar      1 RES1   0.0000
    40 N8       -0.4712    0.2423   -3.3448   N.ar      1 RES1   0.0000
    41 C32       0.0163    0.8857   -4.3878   C.ar      1 RES1   0.0000
    42 H1       -2.7786    2.5578   -5.4028   H         1 RES1   0.0000
    43 H2       -1.7523    2.9182   -4.0202   H         1 RES1   0.0000
    44 H3       -2.6340    1.3894   -4.0899   H         1 RES1   0.0000
    45 H4       -2.1129    0.8946   -7.0830   H         1 RES1   0.0000
    46 H5       -2.0472   -0.3689   -5.8567   H         1 RES1   0.0000
    47 H6       -0.6571   -0.0917   -6.9077   H         1 RES1   0.0000
    48 H7       -0.9308    3.2141   -6.6632   H         1 RES1   0.0000
    49 H8        0.2500    2.0024   -7.1386   H         1 RES1   0.0000
    50 H9        0.4320    3.7401   -4.6485   H         1 RES1   0.0000
    51 H10       1.3010    4.0416   -6.1553   H         1 RES1   0.0000
    52 H11       3.3348    2.7829   -6.6768   H         1 RES1   0.0000
    53 H12       2.3380    1.3477   -6.9303   H         1 RES1   0.0000
    54 H13       3.7074    1.2792   -5.8172   H         1 RES1   0.0000
    55 H14       3.2429    4.0103   -4.4419   H         1 RES1   0.0000
    56 H15       3.6495    2.4913   -3.6224   H         1 RES1   0.0000
    57 H16       2.2058    3.3887   -3.1519   H         1 RES1   0.0000
    58 H17       3.9094   -1.9483   -3.1383   H         1 RES1   0.0000
    59 H18       5.1492   -3.1366   -1.3254   H         1 RES1   0.0000
    60 H19       4.4533   -2.8605    0.9845   H         1 RES1   0.0000
    61 H20       3.9569   -2.0831    2.9543   H         1 RES1   0.0000
    62 H21       3.6901   -0.6554    4.9569   H         1 RES1   0.0000
    63 H22       2.0945    1.2352    4.8809   H         1 RES1   0.0000
    64 H23       0.9261    4.0560    5.8310   H         1 RES1   0.0000
    65 H24      -0.8318    4.1621    5.9650   H         1 RES1   0.0000
    66 H25       0.1643    5.5793    6.3121   H         1 RES1   0.0000
    67 H26       2.1302    5.2308    3.9947   H         1 RES1   0.0000
    68 H27       1.3721    6.7628    4.4652   H         1 RES1   0.0000
    69 H28       1.2628    6.1895    2.7982   H         1 RES1   0.0000
    70 H29      -1.0290    7.0021    4.5862   H         1 RES1   0.0000
    71 H30      -2.0981    5.5982    4.4908   H         1 RES1   0.0000
    72 H31      -0.6492    6.8998    2.1434   H         1 RES1   0.0000
    73 H32      -2.3552    7.0751    2.5287   H         1 RES1   0.0000
    74 H33      -3.4659    4.4761    3.0310   H         1 RES1   0.0000
    75 H34      -3.5459    3.8811    1.3668   H         1 RES1   0.0000
    76 H35      -3.9347    5.5669    1.7262   H         1 RES1   0.0000
    77 H36      -0.6421    5.8055    0.0558   H         1 RES1   0.0000
    78 H37      -2.3193    6.3588    0.0587   H         1 RES1   0.0000
    79 H38      -1.9442    4.6942   -0.3834   H         1 RES1   0.0000
    80 N9       -1.9021   -1.7306    0.6777   N.3       1 RES1   0.0000
    81 O1       -2.8745   -2.3727    0.8926   O.2       1 RES1   0.0000
    82 O2       -1.4877   -0.8752    1.4839   O.co2     1 RES1   0.0000
    83 O3       -1.2159   -1.8954   -0.3469   O.co2     1 RES1   0.0000
    84 N10      -1.6404    1.8867   -1.1590   N.3       1 RES1   0.0000
    85 O4       -2.2321    2.8242   -1.5863   O.2       1 RES1   0.0000
    86 O5       -2.2121    0.8778   -0.7322   O.co2     1 RES1   0.0000
    87 O6       -0.3885    1.8912   -1.1403   O.co2     1 RES1   0.0000
@<TRIPOS>BOND
     1     1    24    1
     2     1    37    1
     3     1    38    1
     4     1    39    1
     5     1    82    1
     6     1    83    1
     7     1    86    1
     8     1    87    1
     9     2     3    1
    10     2    42    1
    11     2    43    1
    12     2    44    1
    13     3     4    1
    14     3     5    1
    15     3    41    1
    16     4    45    1
    17     4    46    1
    18     4    47    1
    19     5     6    1
    20     5    48    1
    21     5    49    1
    22     6     7    1
    23     6    50    1
    24     6    51    1
    25     7     8    1
    26     7     9    1
    27     7    10    1
    28     8    52    1
    29     8    53    1
    30     8    54    1
    31     9    55    1
    32     9    56    1
    33     9    57    1
    34    10    11    1
    35    10    41    2
    36    11    12    2
    37    12    13    1
    38    12    39    1
    39    13    14    1
    40    13    38    2
    41    14    15    2
    42    14    58    1
    43    15    16    1
    44    15    59    1
    45    16    17    2
    46    16    60    1
    47    17    18    1
    48    17    38    1
    49    18    19    1
    50    18    37    2
    51    19    20    2
    52    19    61    1
    53    20    21    1
    54    20    62    1
    55    21    22    2
    56    21    63    1
    57    22    23    1
    58    22    37    1
    59    23    24    1
    60    23    28    2
    61    24    25    2
    62    25    26    1
    63    26    27    2
    64    26    34    1
    65    27    28    1
    66    27    29    1
    67    29    30    1
    68    29    31    1
    69    29    32    1
    70    30    64    1
    71    30    65    1
    72    30    66    1
    73    31    67    1
    74    31    68    1
    75    31    69    1
    76    32    33    1
    77    32    70    1
    78    32    71    1
    79    33    34    1
    80    33    72    1
    81    33    73    1
    82    34    35    1
    83    34    36    1
    84    35    74    1
    85    35    75    1
    86    35    76    1
    87    36    77    1
    88    36    78    1
    89    36    79    1
    90    39    40    2
    91    40    41    1
    92    80    81    2
    93    80    82    1
    94    80    83    1
    95    84    85    2
    96    84    86    1
    97    84    87    1
@<TRIPOS>SUBSTRUCTURE
     1 RES1       87 GROUP             0 ****  ****    0  
