@<TRIPOS>MOLECULE
ICIGOT_geomtry_0_nunpairedes_0_charge_3 Charge: 3 Unpaired_Electrons: 0 XTB_Unpaired_Electrons: 0 XTB_Charge: 3
    93   100     1     0     0
SMALL
NoCharges
****
Generated from Architector

@<TRIPOS>ATOM
     1 Lu1       0.0329    0.0289   -0.0135   Lu        1 RES1   0.0000
     2 O1       -1.3608    1.6721   -0.1497   O.2       1 RES1   0.0000
     3 C1       -2.5430    1.4549    0.2121   C.2       1 RES1   0.0000
     4 C2       -3.0155   -0.0115    0.1073   C.3       1 RES1   0.0000
     5 O2       -2.0385   -0.7566   -0.6279   O.3       1 RES1   0.0000
     6 C3       -2.2269   -0.7880   -2.0533   C.3       1 RES1   0.0000
     7 C4       -0.9818   -0.2598   -2.7891   C.2       1 RES1   0.0000
     8 O3       -0.0377    0.2316   -2.1207   O.2       1 RES1   0.0000
     9 N1       -0.9372   -0.3714   -4.0981   N.am      1 RES1   0.0000
    10 C5        0.2079    0.2083   -4.8063   C.3       1 RES1   0.0000
    11 C6        0.2897   -0.2965   -6.2382   C.3       1 RES1   0.0000
    12 C7       -0.9904    0.0450   -7.0111   C.3       1 RES1   0.0000
    13 C8       -2.2430   -0.1291   -6.1383   C.3       1 RES1   0.0000
    14 C9       -1.9450   -1.0142   -4.9306   C.3       1 RES1   0.0000
    15 N2       -3.3283    2.3863    0.6999   N.am      1 RES1   0.0000
    16 C10      -4.7321    2.2189    1.0592   C.3       1 RES1   0.0000
    17 C11      -5.5935    2.9570    0.0287   C.3       1 RES1   0.0000
    18 C12      -5.2042    4.4315    0.0189   C.3       1 RES1   0.0000
    19 C13      -3.7223    4.5795   -0.3032   C.3       1 RES1   0.0000
    20 C14      -2.8887    3.7850    0.7012   C.3       1 RES1   0.0000
    21 H1       -3.9992   -0.1175   -0.3609   H         1 RES1   0.0000
    22 H2       -3.0343   -0.4502    1.1151   H         1 RES1   0.0000
    23 H3       -3.0955   -0.1896   -2.3525   H         1 RES1   0.0000
    24 H4       -2.3976   -1.8334   -2.3438   H         1 RES1   0.0000
    25 H5        1.1146   -0.0446   -4.2528   H         1 RES1   0.0000
    26 H6        0.1142    1.2999   -4.8056   H         1 RES1   0.0000
    27 H7        0.4886   -1.3713   -6.2602   H         1 RES1   0.0000
    28 H8        1.1400    0.1818   -6.7230   H         1 RES1   0.0000
    29 H9       -1.0465   -0.5975   -7.8889   H         1 RES1   0.0000
    30 H10      -0.9551    1.0770   -7.3560   H         1 RES1   0.0000
    31 H11      -3.0417   -0.5951   -6.7113   H         1 RES1   0.0000
    32 H12      -2.6216    0.8348   -5.7877   H         1 RES1   0.0000
    33 H13      -1.5524   -1.9810   -5.2671   H         1 RES1   0.0000
    34 H14      -2.8581   -1.1953   -4.3658   H         1 RES1   0.0000
    35 H15      -4.8777    2.6706    2.0468   H         1 RES1   0.0000
    36 H16      -4.9961    1.1624    1.1278   H         1 RES1   0.0000
    37 H17      -6.6439    2.8381    0.2882   H         1 RES1   0.0000
    38 H18      -5.4391    2.5157   -0.9598   H         1 RES1   0.0000
    39 H19      -5.4171    4.8716    0.9943   H         1 RES1   0.0000
    40 H20      -5.7994    4.9612   -0.7196   H         1 RES1   0.0000
    41 H21      -3.4306    5.6262   -0.2571   H         1 RES1   0.0000
    42 H22      -3.5195    4.2229   -1.3149   H         1 RES1   0.0000
    43 H23      -3.0244    4.1861    1.7094   H         1 RES1   0.0000
    44 H24      -1.8317    3.8213    0.4349   H         1 RES1   0.0000
    45 O4        1.5903    1.4033    0.5609   O.2       1 RES1   0.0000
    46 C15       2.8322    1.2582    0.3924   C.2       1 RES1   0.0000
    47 C16       3.2691   -0.0844   -0.2220   C.3       1 RES1   0.0000
    48 O5        2.1825   -1.0037   -0.0438   O.3       1 RES1   0.0000
    49 C17       2.3977   -2.1057    0.8441   C.3       1 RES1   0.0000
    50 C18       1.0824   -2.3740    1.6009   C.2       1 RES1   0.0000
    51 O6        0.0997   -1.6133    1.3886   O.2       1 RES1   0.0000
    52 N3        1.0300   -3.3567    2.4703   N.am      1 RES1   0.0000
    53 C19      -0.1368   -3.4754    3.3543   C.3       1 RES1   0.0000
    54 C20      -0.0756   -4.7409    4.2010   C.3       1 RES1   0.0000
    55 C21       1.2255   -4.8172    5.0091   C.3       1 RES1   0.0000
    56 C22       2.4387   -4.3861    4.1707   C.3       1 RES1   0.0000
    57 C23       2.0760   -4.3419    2.6881   C.3       1 RES1   0.0000
    58 N4        3.7189    2.1584    0.7351   N.am      1 RES1   0.0000
    59 C24       5.1518    2.0798    0.4833   C.3       1 RES1   0.0000
    60 C25       5.9073    1.9760    1.8114   C.3       1 RES1   0.0000
    61 C26       5.5729    3.1903    2.6721   C.3       1 RES1   0.0000
    62 C27       4.0627    3.2766    2.8762   C.3       1 RES1   0.0000
    63 C28       3.3454    3.3313    1.5224   C.3       1 RES1   0.0000
    64 H25       4.1822   -0.4719    0.2350   H         1 RES1   0.0000
    65 H26       3.4092    0.0375   -1.3061   H         1 RES1   0.0000
    66 H27       3.1776   -1.8862    1.5855   H         1 RES1   0.0000
    67 H28       2.7074   -2.9792    0.2522   H         1 RES1   0.0000
    68 H29      -1.0482   -3.4616    2.7518   H         1 RES1   0.0000
    69 H30      -0.1627   -2.5998    4.0138   H         1 RES1   0.0000
    70 H31      -0.2025   -5.6318    3.5813   H         1 RES1   0.0000
    71 H32      -0.9186   -4.7278    4.8904   H         1 RES1   0.0000
    72 H33       1.3524   -5.8409    5.3573   H         1 RES1   0.0000
    73 H34       1.1653   -4.1789    5.8892   H         1 RES1   0.0000
    74 H35       3.2564   -5.0927    4.2888   H         1 RES1   0.0000
    75 H36       2.8106   -3.4075    4.4864   H         1 RES1   0.0000
    76 H37       1.6875   -5.3174    2.3759   H         1 RES1   0.0000
    77 H38       2.9532   -4.1159    2.0854   H         1 RES1   0.0000
    78 H39       5.4360    3.0119   -0.0150   H         1 RES1   0.0000
    79 H40       5.3926    1.2557   -0.1881   H         1 RES1   0.0000
    80 H41       6.9760    1.9353    1.6083   H         1 RES1   0.0000
    81 H42       5.6325    1.0518    2.3277   H         1 RES1   0.0000
    82 H43       5.9342    4.0964    2.1815   H         1 RES1   0.0000
    83 H44       6.0777    3.1104    3.6330   H         1 RES1   0.0000
    84 H45       3.8198    4.1728    3.4448   H         1 RES1   0.0000
    85 H46       3.7157    2.4138    3.4520   H         1 RES1   0.0000
    86 H47       3.6514    4.2264    0.9766   H         1 RES1   0.0000
    87 H48       2.2623    3.3490    1.6528   H         1 RES1   0.0000
    88 O7       -0.5724    0.8894    2.3419   O.3       1 RES1   0.0000
    89 H49      -1.0366    0.5364    3.1179   H         1 RES1   0.0000
    90 H50      -0.2168    1.7514    2.6149   H         1 RES1   0.0000
    91 O8        0.2318   -2.3962   -1.2983   O.3       1 RES1   0.0000
    92 H51       0.8741   -2.7106   -1.9499   H         1 RES1   0.0000
    93 H52      -0.1643   -3.1922   -0.9179   H         1 RES1   0.0000
@<TRIPOS>BOND
     1     1     2    1
     2     1     5    1
     3     1     8    1
     4     1    45    1
     5     1    48    1
     6     1    51    1
     7     1    88    1
     8     1    91    1
     9     2     3    2
    10     3     4    1
    11     3    15    1
    12     4     5    1
    13     4    21    1
    14     4    22    1
    15     5     6    1
    16     6     7    1
    17     6    23    1
    18     6    24    1
    19     7     8    2
    20     7     9    1
    21     9    10    1
    22     9    14    1
    23    10    11    1
    24    10    25    1
    25    10    26    1
    26    11    12    1
    27    11    27    1
    28    11    28    1
    29    12    13    1
    30    12    29    1
    31    12    30    1
    32    13    14    1
    33    13    31    1
    34    13    32    1
    35    14    33    1
    36    14    34    1
    37    15    16    1
    38    15    20    1
    39    16    17    1
    40    16    35    1
    41    16    36    1
    42    17    18    1
    43    17    37    1
    44    17    38    1
    45    18    19    1
    46    18    39    1
    47    18    40    1
    48    19    20    1
    49    19    41    1
    50    19    42    1
    51    20    43    1
    52    20    44    1
    53    45    46    2
    54    46    47    1
    55    46    58    1
    56    47    48    1
    57    47    64    1
    58    47    65    1
    59    48    49    1
    60    49    50    1
    61    49    66    1
    62    49    67    1
    63    50    51    2
    64    50    52    1
    65    52    53    1
    66    52    57    1
    67    53    54    1
    68    53    68    1
    69    53    69    1
    70    54    55    1
    71    54    70    1
    72    54    71    1
    73    55    56    1
    74    55    72    1
    75    55    73    1
    76    56    57    1
    77    56    74    1
    78    56    75    1
    79    57    76    1
    80    57    77    1
    81    58    59    1
    82    58    63    1
    83    59    60    1
    84    59    78    1
    85    59    79    1
    86    60    61    1
    87    60    80    1
    88    60    81    1
    89    61    62    1
    90    61    82    1
    91    61    83    1
    92    62    63    1
    93    62    84    1
    94    62    85    1
    95    63    86    1
    96    63    87    1
    97    88    89    1
    98    88    90    1
    99    91    92    1
   100    91    93    1
@<TRIPOS>SUBSTRUCTURE
     1 RES1       93 GROUP             0 ****  ****    0  
