@<TRIPOS>MOLECULE
ICIGOT_geomtry_0_nunpairedes_0_charge_2 Charge: 2 Unpaired_Electrons: 0 XTB_Unpaired_Electrons: 0 XTB_Charge: 2
   243   247     1     0     0
SMALL
NoCharges
****
Generated from Architector

@<TRIPOS>ATOM
     1 Lu1      -0.1449   -0.1581   -0.1080   Lu        1 RES1   0.0000
     2 C1       -2.9015    0.6193   -4.9656   C.3       1 RES1   0.0000
     3 C2       -3.8057   -0.6023   -4.9083   C.3       1 RES1   0.0000
     4 C3       -4.1311   -1.0168   -3.4767   C.3       1 RES1   0.0000
     5 C4       -5.0600   -0.0554   -2.7362   C.3       1 RES1   0.0000
     6 C5       -5.4560   -0.6363   -1.3773   C.3       1 RES1   0.0000
     7 C6       -6.4530    0.2256   -0.6024   C.3       1 RES1   0.0000
     8 C7       -5.8247    1.5153   -0.0732   C.3       1 RES1   0.0000
     9 C8       -5.1676    1.4773    1.3218   C.3       1 RES1   0.0000
    10 N1       -3.9550    0.6895    1.5259   N.am      1 RES1   0.0000
    11 C9       -4.0516   -0.4652    2.4319   C.3       1 RES1   0.0000
    12 C10      -4.5612   -1.7501    1.7928   C.3       1 RES1   0.0000
    13 C11      -3.5067   -2.4168    0.9110   C.3       1 RES1   0.0000
    14 C12      -4.0997   -3.6387    0.2016   C.3       1 RES1   0.0000
    15 C13      -3.7719   -3.7629   -1.2875   C.3       1 RES1   0.0000
    16 C14      -2.3281   -4.0672   -1.6862   C.3       1 RES1   0.0000
    17 C15      -2.2401   -4.3245   -3.1936   C.3       1 RES1   0.0000
    18 C16      -0.9640   -5.0598   -3.5799   C.3       1 RES1   0.0000
    19 C17      -2.7364    1.0313    1.1233   C.2       1 RES1   0.0000
    20 O1       -1.7792    0.2305    1.2685   O.2       1 RES1   0.0000
    21 C18      -2.3448    2.4681    0.6769   C.3       1 RES1   0.0000
    22 C19      -3.0745    3.1635   -0.4708   C.3       1 RES1   0.0000
    23 O2       -0.9677    2.3214    0.3262   O.3       1 RES1   0.0000
    24 C20      -0.0472    3.3614    0.6644   C.3       1 RES1   0.0000
    25 C21       0.3984    4.0677   -0.6213   C.3       1 RES1   0.0000
    26 C22       1.1313    2.6145    1.3325   C.2       1 RES1   0.0000
    27 O3        1.1435    1.3642    1.2305   O.2       1 RES1   0.0000
    28 N2        2.0694    3.2721    2.0018   N.am      1 RES1   0.0000
    29 C23       3.0688    2.5060    2.7491   C.3       1 RES1   0.0000
    30 C24       2.9616    2.6840    4.2698   C.3       1 RES1   0.0000
    31 C25       2.0887    1.6572    4.9944   C.3       1 RES1   0.0000
    32 C26       0.6213    1.5687    4.5746   C.3       1 RES1   0.0000
    33 C27      -0.2071    2.8259    4.8440   C.3       1 RES1   0.0000
    34 C28      -1.6940    2.5164    4.6550   C.3       1 RES1   0.0000
    35 C29      -2.6389    3.6833    4.9531   C.3       1 RES1   0.0000
    36 C30      -2.5454    4.8465    3.9725   C.3       1 RES1   0.0000
    37 C31       2.1699    4.7242    2.1008   C.3       1 RES1   0.0000
    38 C32       3.5130    5.3089    1.6397   C.3       1 RES1   0.0000
    39 C33       3.7961    5.2448    0.1312   C.3       1 RES1   0.0000
    40 C34       5.2456    4.8609   -0.1923   C.3       1 RES1   0.0000
    41 C35       5.4112    3.3567   -0.4104   C.3       1 RES1   0.0000
    42 C36       6.8808    2.9765   -0.5882   C.3       1 RES1   0.0000
    43 C37       7.1024    1.5091   -0.9639   C.3       1 RES1   0.0000
    44 C38       6.7944    1.2187   -2.4294   C.3       1 RES1   0.0000
    45 H1       -2.7535    0.9355   -5.9929   H         1 RES1   0.0000
    46 H2       -1.9291    0.3826   -4.5389   H         1 RES1   0.0000
    47 H3       -3.3207    1.4548   -4.4112   H         1 RES1   0.0000
    48 H4       -3.3072   -1.4388   -5.4074   H         1 RES1   0.0000
    49 H5       -4.7353   -0.4178   -5.4494   H         1 RES1   0.0000
    50 H6       -3.1966   -1.1085   -2.9121   H         1 RES1   0.0000
    51 H7       -4.6192   -1.9915   -3.5238   H         1 RES1   0.0000
    52 H8       -5.9484    0.1234   -3.3437   H         1 RES1   0.0000
    53 H9       -4.5488    0.9005   -2.6102   H         1 RES1   0.0000
    54 H10      -4.5454   -0.7630   -0.7937   H         1 RES1   0.0000
    55 H11      -5.9018   -1.6207   -1.5434   H         1 RES1   0.0000
    56 H12      -6.8961   -0.3466    0.2148   H         1 RES1   0.0000
    57 H13      -7.2672    0.4921   -1.2800   H         1 RES1   0.0000
    58 H14      -6.6068    2.2730    0.0111   H         1 RES1   0.0000
    59 H15      -5.1309    1.8555   -0.8309   H         1 RES1   0.0000
    60 H16      -5.9176    1.0905    2.0127   H         1 RES1   0.0000
    61 H17      -4.9437    2.5077    1.6107   H         1 RES1   0.0000
    62 H18      -4.6997   -0.1704    3.2626   H         1 RES1   0.0000
    63 H19      -3.0493   -0.6443    2.8294   H         1 RES1   0.0000
    64 H20      -5.4673   -1.5382    1.2287   H         1 RES1   0.0000
    65 H21      -4.8203   -2.4501    2.5909   H         1 RES1   0.0000
    66 H22      -2.6782   -2.6946    1.5617   H         1 RES1   0.0000
    67 H23      -3.0989   -1.7138    0.1768   H         1 RES1   0.0000
    68 H24      -5.1874   -3.5642    0.2640   H         1 RES1   0.0000
    69 H25      -3.8159   -4.5441    0.7298   H         1 RES1   0.0000
    70 H26      -4.0607   -2.8391   -1.7738   H         1 RES1   0.0000
    71 H27      -4.3997   -4.5602   -1.6971   H         1 RES1   0.0000
    72 H28      -1.9843   -4.9727   -1.1867   H         1 RES1   0.0000
    73 H29      -1.6628   -3.2389   -1.4099   H         1 RES1   0.0000
    74 H30      -2.3063   -3.3824   -3.7395   H         1 RES1   0.0000
    75 H31      -3.0899   -4.9394   -3.4975   H         1 RES1   0.0000
    76 H32      -0.0818   -4.5034   -3.2729   H         1 RES1   0.0000
    77 H33      -0.9264   -5.2018   -4.6569   H         1 RES1   0.0000
    78 H34      -0.9296   -6.0411   -3.1106   H         1 RES1   0.0000
    79 H35      -2.4143    3.0788    1.5972   H         1 RES1   0.0000
    80 H36      -3.1382    2.5211   -1.3466   H         1 RES1   0.0000
    81 H37      -2.4994    4.0424   -0.7523   H         1 RES1   0.0000
    82 H38      -4.0605    3.5067   -0.1855   H         1 RES1   0.0000
    83 H39      -0.5153    4.0482    1.3851   H         1 RES1   0.0000
    84 H40       1.0986    3.4364   -1.1645   H         1 RES1   0.0000
    85 H41       0.8622    5.0256   -0.4226   H         1 RES1   0.0000
    86 H42      -0.4558    4.2345   -1.2709   H         1 RES1   0.0000
    87 H43       4.0596    2.8171    2.4094   H         1 RES1   0.0000
    88 H44       2.9200    1.4586    2.4898   H         1 RES1   0.0000
    89 H45       2.6012    3.6842    4.4927   H         1 RES1   0.0000
    90 H46       3.9648    2.6110    4.6936   H         1 RES1   0.0000
    91 H47       2.1253    1.8989    6.0577   H         1 RES1   0.0000
    92 H48       2.5339    0.6668    4.8761   H         1 RES1   0.0000
    93 H49       0.1739    0.7492    5.1431   H         1 RES1   0.0000
    94 H50       0.5410    1.3007    3.5180   H         1 RES1   0.0000
    95 H51       0.1003    3.6309    4.1729   H         1 RES1   0.0000
    96 H52      -0.0458    3.1625    5.8703   H         1 RES1   0.0000
    97 H53      -1.9537    1.6979    5.3319   H         1 RES1   0.0000
    98 H54      -1.8561    2.1517    3.6344   H         1 RES1   0.0000
    99 H55      -2.4377    4.0499    5.9606   H         1 RES1   0.0000
   100 H56      -3.6637    3.3026    4.9440   H         1 RES1   0.0000
   101 H57      -1.5587    5.3024    3.9871   H         1 RES1   0.0000
   102 H58      -3.2718    5.6104    4.2364   H         1 RES1   0.0000
   103 H59      -2.7665    4.5208    2.9559   H         1 RES1   0.0000
   104 H60       2.0298    5.0107    3.1479   H         1 RES1   0.0000
   105 H61       1.3713    5.1799    1.5265   H         1 RES1   0.0000
   106 H62       4.3205    4.8301    2.1885   H         1 RES1   0.0000
   107 H63       3.5130    6.3563    1.9437   H         1 RES1   0.0000
   108 H64       3.5868    6.2207   -0.3049   H         1 RES1   0.0000
   109 H65       3.1425    4.5230   -0.3557   H         1 RES1   0.0000
   110 H66       5.9067    5.1982    0.6081   H         1 RES1   0.0000
   111 H67       5.5635    5.3664   -1.1050   H         1 RES1   0.0000
   112 H68       4.8358    3.0736   -1.2952   H         1 RES1   0.0000
   113 H69       5.0029    2.8028    0.4395   H         1 RES1   0.0000
   114 H70       7.3997    3.1853    0.3503   H         1 RES1   0.0000
   115 H71       7.3276    3.6076   -1.3586   H         1 RES1   0.0000
   116 H72       6.4997    0.8683   -0.3129   H         1 RES1   0.0000
   117 H73       8.1498    1.2617   -0.7839   H         1 RES1   0.0000
   118 H74       5.7694    1.4798   -2.6873   H         1 RES1   0.0000
   119 H75       6.9549    0.1651   -2.6512   H         1 RES1   0.0000
   120 H76       7.4556    1.8004   -3.0662   H         1 RES1   0.0000
   121 C39      -7.1726   -5.1820    2.0858   C.3       1 RES1   0.0000
   122 C40      -6.0331   -6.1848    1.9258   C.3       1 RES1   0.0000
   123 C41      -5.9003   -6.6734    0.4829   C.3       1 RES1   0.0000
   124 C42      -4.7715   -7.6827    0.2255   C.3       1 RES1   0.0000
   125 C43      -3.3655   -7.0954    0.0300   C.3       1 RES1   0.0000
   126 C44      -2.5617   -6.8852    1.3166   C.3       1 RES1   0.0000
   127 C45      -1.1424   -6.3120    1.0938   C.3       1 RES1   0.0000
   128 C46      -1.0483   -4.8333    1.4922   C.3       1 RES1   0.0000
   129 N3        0.3040   -4.2626    1.5810   N.am      1 RES1   0.0000
   130 C47       1.3069   -5.0765    2.2539   C.3       1 RES1   0.0000
   131 C48       0.9153   -5.5780    3.6529   C.3       1 RES1   0.0000
   132 C49       0.8872   -4.5420    4.7777   C.3       1 RES1   0.0000
   133 C50      -0.3335   -3.6216    4.8073   C.3       1 RES1   0.0000
   134 C51      -0.3232   -2.7805    6.0862   C.3       1 RES1   0.0000
   135 C52      -1.4781   -1.7840    6.2304   C.3       1 RES1   0.0000
   136 C53      -2.8120   -2.3925    6.6788   C.3       1 RES1   0.0000
   137 C54      -3.6617   -2.9543    5.5446   C.3       1 RES1   0.0000
   138 C55       0.5200   -3.0366    1.1212   C.2       1 RES1   0.0000
   139 O4       -0.3761   -2.3179    0.6244   O.2       1 RES1   0.0000
   140 C56       1.9282   -2.3972    1.1988   C.3       1 RES1   0.0000
   141 C57       2.1703   -1.8279    2.5974   C.3       1 RES1   0.0000
   142 O5        1.9129   -1.2713    0.3195   O.3       1 RES1   0.0000
   143 C58       2.8794   -1.1796   -0.7317   C.3       1 RES1   0.0000
   144 C59       3.4925    0.2158   -0.5902   C.3       1 RES1   0.0000
   145 C60       2.0683   -1.2382   -2.0500   C.2       1 RES1   0.0000
   146 O6        0.8227   -1.2500   -1.9431   O.2       1 RES1   0.0000
   147 N4        2.6909   -1.1656   -3.2138   N.am      1 RES1   0.0000
   148 C61       4.0958   -1.4953   -3.3808   C.3       1 RES1   0.0000
   149 C62       4.3526   -3.0079   -3.3324   C.3       1 RES1   0.0000
   150 C63       3.9534   -3.7761   -4.5957   C.3       1 RES1   0.0000
   151 C64       2.4968   -4.2449   -4.6103   C.3       1 RES1   0.0000
   152 C65       1.9336   -4.4920   -6.0126   C.3       1 RES1   0.0000
   153 C66       2.4746   -5.7342   -6.7261   C.3       1 RES1   0.0000
   154 C67       3.8631   -5.6073   -7.3575   C.3       1 RES1   0.0000
   155 C68       3.9708   -4.4875   -8.3858   C.3       1 RES1   0.0000
   156 C69       1.9082   -0.8675   -4.4109   C.3       1 RES1   0.0000
   157 C70       1.7765    0.6349   -4.7002   C.3       1 RES1   0.0000
   158 C71       3.0916    1.3417   -5.0404   C.3       1 RES1   0.0000
   159 C72       2.8989    2.6119   -5.8765   C.3       1 RES1   0.0000
   160 C73       2.2847    3.8150   -5.1572   C.3       1 RES1   0.0000
   161 C74       3.2144    4.4573   -4.1213   C.3       1 RES1   0.0000
   162 C75       2.9540    5.9546   -3.9323   C.3       1 RES1   0.0000
   163 C76       1.5641    6.2675   -3.3930   C.3       1 RES1   0.0000
   164 H77      -7.2494   -4.8570    3.1216   H         1 RES1   0.0000
   165 H78      -7.0048   -4.3045    1.4633   H         1 RES1   0.0000
   166 H79      -8.1230   -5.6236    1.7964   H         1 RES1   0.0000
   167 H80      -5.1083   -5.7164    2.2661   H         1 RES1   0.0000
   168 H81      -6.2217   -7.0465    2.5683   H         1 RES1   0.0000
   169 H82      -6.8448   -7.1579    0.2243   H         1 RES1   0.0000
   170 H83      -5.7859   -5.8204   -0.1894   H         1 RES1   0.0000
   171 H84      -4.7588   -8.4244    1.0246   H         1 RES1   0.0000
   172 H85      -5.0245   -8.2068   -0.6988   H         1 RES1   0.0000
   173 H86      -2.7952   -7.7873   -0.5936   H         1 RES1   0.0000
   174 H87      -3.4640   -6.1709   -0.5263   H         1 RES1   0.0000
   175 H88      -3.1044   -6.2508    2.0179   H         1 RES1   0.0000
   176 H89      -2.4660   -7.8643    1.7848   H         1 RES1   0.0000
   177 H90      -0.4461   -6.8977    1.6875   H         1 RES1   0.0000
   178 H91      -0.8579   -6.4385    0.0485   H         1 RES1   0.0000
   179 H92      -1.5666   -4.2372    0.7483   H         1 RES1   0.0000
   180 H93      -1.5229   -4.6947    2.4687   H         1 RES1   0.0000
   181 H94       1.4990   -5.9476    1.6193   H         1 RES1   0.0000
   182 H95       2.2353   -4.5211    2.3484   H         1 RES1   0.0000
   183 H96      -0.0408   -6.0959    3.6258   H         1 RES1   0.0000
   184 H97       1.6726   -6.3181    3.9164   H         1 RES1   0.0000
   185 H98       0.8894   -5.0927    5.7203   H         1 RES1   0.0000
   186 H99       1.8068   -3.9529    4.7684   H         1 RES1   0.0000
   187 H100     -0.3589   -2.9544    3.9406   H         1 RES1   0.0000
   188 H101     -1.2285   -4.2427    4.7887   H         1 RES1   0.0000
   189 H102     -0.3327   -3.4439    6.9527   H         1 RES1   0.0000
   190 H103      0.6181   -2.2238    6.1181   H         1 RES1   0.0000
   191 H104     -1.1796   -1.0524    6.9859   H         1 RES1   0.0000
   192 H105     -1.6205   -1.2440    5.2903   H         1 RES1   0.0000
   193 H106     -2.6194   -3.1656    7.4240   H         1 RES1   0.0000
   194 H107     -3.3948   -1.6112    7.1720   H         1 RES1   0.0000
   195 H108     -3.2169   -3.8375    5.0952   H         1 RES1   0.0000
   196 H109     -4.6433   -3.2316    5.9205   H         1 RES1   0.0000
   197 H110     -3.7906   -2.1992    4.7718   H         1 RES1   0.0000
   198 H111      2.7058   -3.1002    0.8780   H         1 RES1   0.0000
   199 H112      1.3873   -1.0957    2.8036   H         1 RES1   0.0000
   200 H113      2.1494   -2.5859    3.3697   H         1 RES1   0.0000
   201 H114      3.1372   -1.3326    2.6233   H         1 RES1   0.0000
   202 H115      3.6283   -1.9766   -0.6379   H         1 RES1   0.0000
   203 H116      2.6787    0.9354   -0.6641   H         1 RES1   0.0000
   204 H117      3.9674    0.3101    0.3826   H         1 RES1   0.0000
   205 H118      4.2253    0.4458   -1.3520   H         1 RES1   0.0000
   206 H119      4.4154   -1.0894   -4.3393   H         1 RES1   0.0000
   207 H120      4.6915   -1.0183   -2.6041   H         1 RES1   0.0000
   208 H121      5.4205   -3.1508   -3.1688   H         1 RES1   0.0000
   209 H122      3.8324   -3.4270   -2.4696   H         1 RES1   0.0000
   210 H123      4.1601   -3.1621   -5.4736   H         1 RES1   0.0000
   211 H124      4.5900   -4.6564   -4.6647   H         1 RES1   0.0000
   212 H125      2.4120   -5.1664   -4.0303   H         1 RES1   0.0000
   213 H126      1.8663   -3.5014   -4.1203   H         1 RES1   0.0000
   214 H127      0.8536   -4.6200   -5.9133   H         1 RES1   0.0000
   215 H128      2.0906   -3.6083   -6.6324   H         1 RES1   0.0000
   216 H129      2.4819   -6.5667   -6.0174   H         1 RES1   0.0000
   217 H130      1.7731   -5.9948   -7.5222   H         1 RES1   0.0000
   218 H131      4.6216   -5.4656   -6.5878   H         1 RES1   0.0000
   219 H132      4.0813   -6.5543   -7.8556   H         1 RES1   0.0000
   220 H133      3.8435   -3.5080   -7.9296   H         1 RES1   0.0000
   221 H134      4.9515   -4.5101   -8.8530   H         1 RES1   0.0000
   222 H135      3.2206   -4.6046   -9.1641   H         1 RES1   0.0000
   223 H136      2.3786   -1.3686   -5.2550   H         1 RES1   0.0000
   224 H137      0.9099   -1.2825   -4.2567   H         1 RES1   0.0000
   225 H138      1.1046    0.7166   -5.5573   H         1 RES1   0.0000
   226 H139      1.2983    1.1313   -3.8559   H         1 RES1   0.0000
   227 H140      3.6361    1.5888   -4.1282   H         1 RES1   0.0000
   228 H141      3.7158    0.6651   -5.6292   H         1 RES1   0.0000
   229 H142      3.8737    2.9126   -6.2661   H         1 RES1   0.0000
   230 H143      2.2716    2.3651   -6.7353   H         1 RES1   0.0000
   231 H144      2.0617    4.5642   -5.9198   H         1 RES1   0.0000
   232 H145      1.3403    3.5287   -4.6940   H         1 RES1   0.0000
   233 H146      3.1138    3.9490   -3.1584   H         1 RES1   0.0000
   234 H147      4.2494    4.3413   -4.4536   H         1 RES1   0.0000
   235 H148      3.7011    6.3584   -3.2435   H         1 RES1   0.0000
   236 H149      3.0922    6.4573   -4.8909   H         1 RES1   0.0000
   237 H150      1.4192    5.7918   -2.4273   H         1 RES1   0.0000
   238 H151      1.4407    7.3402   -3.2647   H         1 RES1   0.0000
   239 H152      0.7934    5.9135   -4.0717   H         1 RES1   0.0000
   240 N5       -0.7009    1.2715   -1.9438   N.3       1 RES1   0.0000
   241 O7       -1.0416    2.1289   -2.6929   O.2       1 RES1   0.0000
   242 O8        0.4750    1.1970   -1.5498   O.co2     1 RES1   0.0000
   243 O9       -1.4932    0.4076   -1.5419   O.co2     1 RES1   0.0000
@<TRIPOS>BOND
     1     1    20    1
     2     1    23    1
     3     1    27    1
     4     1   139    1
     5     1   142    1
     6     1   146    1
     7     1   242    1
     8     1   243    1
     9     2     3    1
    10     2    45    1
    11     2    46    1
    12     2    47    1
    13     3     4    1
    14     3    48    1
    15     3    49    1
    16     4     5    1
    17     4    50    1
    18     4    51    1
    19     5     6    1
    20     5    52    1
    21     5    53    1
    22     6     7    1
    23     6    54    1
    24     6    55    1
    25     7     8    1
    26     7    56    1
    27     7    57    1
    28     8     9    1
    29     8    58    1
    30     8    59    1
    31     9    10    1
    32     9    60    1
    33     9    61    1
    34    10    11    1
    35    10    19    1
    36    11    12    1
    37    11    62    1
    38    11    63    1
    39    12    13    1
    40    12    64    1
    41    12    65    1
    42    13    14    1
    43    13    66    1
    44    13    67    1
    45    14    15    1
    46    14    68    1
    47    14    69    1
    48    15    16    1
    49    15    70    1
    50    15    71    1
    51    16    17    1
    52    16    72    1
    53    16    73    1
    54    17    18    1
    55    17    74    1
    56    17    75    1
    57    18    76    1
    58    18    77    1
    59    18    78    1
    60    19    20    2
    61    19    21    1
    62    21    22    1
    63    21    23    1
    64    21    79    1
    65    22    80    1
    66    22    81    1
    67    22    82    1
    68    23    24    1
    69    24    25    1
    70    24    26    1
    71    24    83    1
    72    25    84    1
    73    25    85    1
    74    25    86    1
    75    26    27    2
    76    26    28    1
    77    28    29    1
    78    28    37    1
    79    29    30    1
    80    29    87    1
    81    29    88    1
    82    30    31    1
    83    30    89    1
    84    30    90    1
    85    31    32    1
    86    31    91    1
    87    31    92    1
    88    32    33    1
    89    32    93    1
    90    32    94    1
    91    33    34    1
    92    33    95    1
    93    33    96    1
    94    34    35    1
    95    34    97    1
    96    34    98    1
    97    35    36    1
    98    35    99    1
    99    35   100    1
   100    36   101    1
   101    36   102    1
   102    36   103    1
   103    37    38    1
   104    37   104    1
   105    37   105    1
   106    38    39    1
   107    38   106    1
   108    38   107    1
   109    39    40    1
   110    39   108    1
   111    39   109    1
   112    40    41    1
   113    40   110    1
   114    40   111    1
   115    41    42    1
   116    41   112    1
   117    41   113    1
   118    42    43    1
   119    42   114    1
   120    42   115    1
   121    43    44    1
   122    43   116    1
   123    43   117    1
   124    44   118    1
   125    44   119    1
   126    44   120    1
   127   121   122    1
   128   121   164    1
   129   121   165    1
   130   121   166    1
   131   122   123    1
   132   122   167    1
   133   122   168    1
   134   123   124    1
   135   123   169    1
   136   123   170    1
   137   124   125    1
   138   124   171    1
   139   124   172    1
   140   125   126    1
   141   125   173    1
   142   125   174    1
   143   126   127    1
   144   126   175    1
   145   126   176    1
   146   127   128    1
   147   127   177    1
   148   127   178    1
   149   128   129    1
   150   128   179    1
   151   128   180    1
   152   129   130    1
   153   129   138    1
   154   130   131    1
   155   130   181    1
   156   130   182    1
   157   131   132    1
   158   131   183    1
   159   131   184    1
   160   132   133    1
   161   132   185    1
   162   132   186    1
   163   133   134    1
   164   133   187    1
   165   133   188    1
   166   134   135    1
   167   134   189    1
   168   134   190    1
   169   135   136    1
   170   135   191    1
   171   135   192    1
   172   136   137    1
   173   136   193    1
   174   136   194    1
   175   137   195    1
   176   137   196    1
   177   137   197    1
   178   138   139    2
   179   138   140    1
   180   140   141    1
   181   140   142    1
   182   140   198    1
   183   141   199    1
   184   141   200    1
   185   141   201    1
   186   142   143    1
   187   143   144    1
   188   143   145    1
   189   143   202    1
   190   144   203    1
   191   144   204    1
   192   144   205    1
   193   145   146    2
   194   145   147    1
   195   147   148    1
   196   147   156    1
   197   148   149    1
   198   148   206    1
   199   148   207    1
   200   149   150    1
   201   149   208    1
   202   149   209    1
   203   150   151    1
   204   150   210    1
   205   150   211    1
   206   151   152    1
   207   151   212    1
   208   151   213    1
   209   152   153    1
   210   152   214    1
   211   152   215    1
   212   153   154    1
   213   153   216    1
   214   153   217    1
   215   154   155    1
   216   154   218    1
   217   154   219    1
   218   155   220    1
   219   155   221    1
   220   155   222    1
   221   156   157    1
   222   156   223    1
   223   156   224    1
   224   157   158    1
   225   157   225    1
   226   157   226    1
   227   158   159    1
   228   158   227    1
   229   158   228    1
   230   159   160    1
   231   159   229    1
   232   159   230    1
   233   160   161    1
   234   160   231    1
   235   160   232    1
   236   161   162    1
   237   161   233    1
   238   161   234    1
   239   162   163    1
   240   162   235    1
   241   162   236    1
   242   163   237    1
   243   163   238    1
   244   163   239    1
   245   240   241    2
   246   240   242    1
   247   240   243    1
@<TRIPOS>SUBSTRUCTURE
     1 RES1      243 GROUP             0 ****  ****    0  
