@<TRIPOS>MOLECULE
YEMSEP_geometry_0_nunpairedes_0_charge_2 Charge: 2 Unpaired_Electrons: 0 XTB_Unpaired_Electrons: 0 XTB_Charge: 2
   119   129     1     0     0
SMALL
NoCharges
****
Generated from Architector

@<TRIPOS>ATOM
     1 Lu1      -0.1264    0.2852    0.0703   Lu        1 RES1   0.0000
     2 C1       -4.0121   -1.6600   -3.2239   C.3       1 RES1   0.0000
     3 C2       -3.5751   -0.3895   -3.9518   C.3       1 RES1   0.0000
     4 N1       -2.8462    0.4887   -3.0497   N.am      1 RES1   0.0000
     5 C3       -1.7084    0.1372   -2.4548   C.2       1 RES1   0.0000
     6 O1       -1.2892    0.8088   -1.4819   O.2       1 RES1   0.0000
     7 C4       -0.7717   -0.9809   -2.8421   C.ar      1 RES1   0.0000
     8 C5       -0.5785   -1.5313   -4.1042   C.ar      1 RES1   0.0000
     9 C6        0.4725   -2.4149   -4.2689   C.ar      1 RES1   0.0000
    10 C7        1.2922   -2.7425   -3.1989   C.ar      1 RES1   0.0000
    11 C8        1.0429   -2.1836   -1.9474   C.ar      1 RES1   0.0000
    12 C9        1.7972   -2.3274   -0.6147   C.2       1 RES1   0.0000
    13 O2        1.3024   -1.6366    0.2852   O.2       1 RES1   0.0000
    14 N2        2.8971   -3.0801   -0.3933   N.am      1 RES1   0.0000
    15 C10       3.4200   -4.0345   -1.3667   C.3       1 RES1   0.0000
    16 C11       4.4624   -3.4369   -2.3170   C.3       1 RES1   0.0000
    17 C12       3.6012   -3.0347    0.8611   C.ar      1 RES1   0.0000
    18 C13       4.9116   -3.5201    0.9336   C.ar      1 RES1   0.0000
    19 C14       5.6186   -3.5074    2.1203   C.ar      1 RES1   0.0000
    20 C15       5.0741   -2.9861    3.2840   C.ar      1 RES1   0.0000
    21 C16       5.8521   -2.9180    4.5540   C.3       1 RES1   0.0000
    22 C17       3.7678   -2.5204    3.2188   C.ar      1 RES1   0.0000
    23 C18       3.0364   -2.5560    2.0475   C.ar      1 RES1   0.0000
    24 N3        0.0276   -1.3132   -1.8182   N.ar      1 RES1   0.0000
    25 C19      -3.5117    1.6775   -2.5982   C.ar      1 RES1   0.0000
    26 C20      -2.7824    2.8177   -2.2628   C.ar      1 RES1   0.0000
    27 C21      -3.4300    3.9605   -1.8393   C.ar      1 RES1   0.0000
    28 C22      -4.8172    4.0264   -1.7913   C.ar      1 RES1   0.0000
    29 C23      -5.5188    5.2811   -1.4044   C.3       1 RES1   0.0000
    30 C24      -5.5395    2.8877   -2.1357   C.ar      1 RES1   0.0000
    31 C25      -4.9034    1.7208   -2.5099   C.ar      1 RES1   0.0000
    32 H1       -4.5486   -2.3156   -3.9076   H         1 RES1   0.0000
    33 H2       -4.6649   -1.3918   -2.3916   H         1 RES1   0.0000
    34 H3       -3.1477   -2.1938   -2.8282   H         1 RES1   0.0000
    35 H4       -4.4478    0.1621   -4.2972   H         1 RES1   0.0000
    36 H5       -2.9684   -0.6000   -4.8320   H         1 RES1   0.0000
    37 H6       -1.1682   -1.2513   -4.9558   H         1 RES1   0.0000
    38 H7        0.6576   -2.8404   -5.2431   H         1 RES1   0.0000
    39 H8        2.1099   -3.4081   -3.3795   H         1 RES1   0.0000
    40 H9        2.5788   -4.4711   -1.9049   H         1 RES1   0.0000
    41 H10       3.8797   -4.8509   -0.8075   H         1 RES1   0.0000
    42 H11       4.0720   -2.5857   -2.8699   H         1 RES1   0.0000
    43 H12       4.7844   -4.2000   -3.0246   H         1 RES1   0.0000
    44 H13       5.3317   -3.0893   -1.7625   H         1 RES1   0.0000
    45 H14       5.4357   -3.9218    0.0838   H         1 RES1   0.0000
    46 H15       6.6140   -3.9243    2.1415   H         1 RES1   0.0000
    47 H16       6.8375   -3.3560    4.4278   H         1 RES1   0.0000
    48 H17       5.3312   -3.4416    5.3536   H         1 RES1   0.0000
    49 H18       5.9676   -1.8797    4.8628   H         1 RES1   0.0000
    50 H19       3.3063   -2.1405    4.1186   H         1 RES1   0.0000
    51 H20       2.0185   -2.2136    2.0857   H         1 RES1   0.0000
    52 H21      -1.7053    2.8373   -2.3348   H         1 RES1   0.0000
    53 H22      -2.8412    4.8136   -1.5406   H         1 RES1   0.0000
    54 H23      -4.8048    6.0561   -1.1441   H         1 RES1   0.0000
    55 H24      -6.1779    5.1033   -0.5570   H         1 RES1   0.0000
    56 H25      -6.1357    5.6317   -2.2310   H         1 RES1   0.0000
    57 H26      -6.6183    2.9245   -2.1037   H         1 RES1   0.0000
    58 H27      -5.5077    0.8512   -2.7163   H         1 RES1   0.0000
    59 C26      -0.6893   -2.5439    5.0810   C.3       1 RES1   0.0000
    60 C27      -1.8987   -1.7133    4.6608   C.3       1 RES1   0.0000
    61 N4       -2.0014   -1.6552    3.2101   N.am      1 RES1   0.0000
    62 C28      -1.1063   -1.0075    2.4583   C.2       1 RES1   0.0000
    63 O3       -1.1092   -1.1687    1.2202   O.2       1 RES1   0.0000
    64 C29      -0.0774    0.0224    2.9708   C.ar      1 RES1   0.0000
    65 C30      -0.0988    0.8143    4.1158   C.ar      1 RES1   0.0000
    66 C31       0.7771    1.8869    4.2006   C.ar      1 RES1   0.0000
    67 C32       1.6619    2.1873    3.1723   C.ar      1 RES1   0.0000
    68 C33       1.6975    1.3323    2.0709   C.ar      1 RES1   0.0000
    69 C34       2.4096    1.4642    0.7068   C.2       1 RES1   0.0000
    70 O4        1.8706    0.7733   -0.1844   O.2       1 RES1   0.0000
    71 N5        3.4620    2.2384    0.4233   N.am      1 RES1   0.0000
    72 C35       4.1275    3.0259    1.4582   C.3       1 RES1   0.0000
    73 C36       3.6882    4.4928    1.4322   C.3       1 RES1   0.0000
    74 C37       3.9878    2.3643   -0.9132   C.ar      1 RES1   0.0000
    75 C38       5.0635    3.2301   -1.1446   C.ar      1 RES1   0.0000
    76 C39       5.6112    3.3907   -2.4020   C.ar      1 RES1   0.0000
    77 C40       5.1221    2.7043   -3.5021   C.ar      1 RES1   0.0000
    78 C41       5.6947    2.8859   -4.8644   C.3       1 RES1   0.0000
    79 C42       4.0622    1.8368   -3.2808   C.ar      1 RES1   0.0000
    80 C43       3.5046    1.6647   -2.0288   C.ar      1 RES1   0.0000
    81 N6        0.8488    0.2936    2.0424   N.ar      1 RES1   0.0000
    82 C44      -3.0184   -2.4751    2.6098   C.ar      1 RES1   0.0000
    83 C45      -3.4667   -3.6047    3.2946   C.ar      1 RES1   0.0000
    84 C46      -4.5085   -4.3658    2.8036   C.ar      1 RES1   0.0000
    85 C47      -5.1110   -4.0643    1.5905   C.ar      1 RES1   0.0000
    86 C48      -6.2031   -4.9213    1.0442   C.3       1 RES1   0.0000
    87 C49      -4.6465   -2.9495    0.8974   C.ar      1 RES1   0.0000
    88 C50      -3.6294   -2.1539    1.3949   C.ar      1 RES1   0.0000
    89 H28      -0.6326   -2.6111    6.1648   H         1 RES1   0.0000
    90 H29       0.2308   -2.0977    4.7084   H         1 RES1   0.0000
    91 H30      -0.7730   -3.5487    4.6683   H         1 RES1   0.0000
    92 H31      -1.8633   -0.7023    5.0555   H         1 RES1   0.0000
    93 H32      -2.8150   -2.1596    5.0396   H         1 RES1   0.0000
    94 H33      -0.8160    0.6924    4.9026   H         1 RES1   0.0000
    95 H34       0.7203    2.5215    5.0725   H         1 RES1   0.0000
    96 H35       2.2326    3.0955    3.2304   H         1 RES1   0.0000
    97 H36       5.2022    2.9516    1.2931   H         1 RES1   0.0000
    98 H37       3.9349    2.5707    2.4287   H         1 RES1   0.0000
    99 H38       3.9481    4.9582    0.4831   H         1 RES1   0.0000
   100 H39       4.1834    5.0416    2.2320   H         1 RES1   0.0000
   101 H40       2.6107    4.5782    1.5583   H         1 RES1   0.0000
   102 H41       5.5191    3.8238   -0.3734   H         1 RES1   0.0000
   103 H42       6.4433    4.0661   -2.5282   H         1 RES1   0.0000
   104 H43       6.5077    3.6046   -4.8466   H         1 RES1   0.0000
   105 H44       4.9249    3.2398   -5.5483   H         1 RES1   0.0000
   106 H45       6.0665    1.9384   -5.2514   H         1 RES1   0.0000
   107 H46       3.6657    1.2766   -4.1154   H         1 RES1   0.0000
   108 H47       2.6849    0.9719   -1.9671   H         1 RES1   0.0000
   109 H48      -3.0234   -3.9274    4.2223   H         1 RES1   0.0000
   110 H49      -4.8652   -5.2012    3.3869   H         1 RES1   0.0000
   111 H50      -6.4452   -5.7170    1.7424   H         1 RES1   0.0000
   112 H51      -5.8903   -5.3687    0.1018   H         1 RES1   0.0000
   113 H52      -7.1012   -4.3384    0.8486   H         1 RES1   0.0000
   114 H53      -5.1131   -2.6946   -0.0437   H         1 RES1   0.0000
   115 H54      -3.3275   -1.2759    0.8404   H         1 RES1   0.0000
   116 N7       -1.1230    2.5139    0.7678   N.3       1 RES1   0.0000
   117 O5       -1.6964    3.5322    0.9819   O.2       1 RES1   0.0000
   118 O6       -0.0221    2.4919    0.1960   O.co2     1 RES1   0.0000
   119 O7       -1.5670    1.4219    1.1713   O.co2     1 RES1   0.0000
@<TRIPOS>BOND
     1     1     6    1
     2     1    13    1
     3     1    24    1
     4     1    63    1
     5     1    70    1
     6     1    81    1
     7     1   118    1
     8     1   119    1
     9     2     3    1
    10     2    32    1
    11     2    33    1
    12     2    34    1
    13     3     4    1
    14     3    35    1
    15     3    36    1
    16     4     5    1
    17     4    25    1
    18     5     6    2
    19     5     7    1
    20     7     8    1
    21     7    24    2
    22     8     9    2
    23     8    37    1
    24     9    10    1
    25     9    38    1
    26    10    11    2
    27    10    39    1
    28    11    12    1
    29    11    24    1
    30    12    13    2
    31    12    14    1
    32    14    15    1
    33    14    17    1
    34    15    16    1
    35    15    40    1
    36    15    41    1
    37    16    42    1
    38    16    43    1
    39    16    44    1
    40    17    18    1
    41    17    23    2
    42    18    19    2
    43    18    45    1
    44    19    20    1
    45    19    46    1
    46    20    21    1
    47    20    22    2
    48    21    47    1
    49    21    48    1
    50    21    49    1
    51    22    23    1
    52    22    50    1
    53    23    51    1
    54    25    26    1
    55    25    31    2
    56    26    27    2
    57    26    52    1
    58    27    28    1
    59    27    53    1
    60    28    29    1
    61    28    30    2
    62    29    54    1
    63    29    55    1
    64    29    56    1
    65    30    31    1
    66    30    57    1
    67    31    58    1
    68    59    60    1
    69    59    89    1
    70    59    90    1
    71    59    91    1
    72    60    61    1
    73    60    92    1
    74    60    93    1
    75    61    62    1
    76    61    82    1
    77    62    63    2
    78    62    64    1
    79    64    65    1
    80    64    81    2
    81    65    66    2
    82    65    94    1
    83    66    67    1
    84    66    95    1
    85    67    68    2
    86    67    96    1
    87    68    69    1
    88    68    81    1
    89    69    70    2
    90    69    71    1
    91    71    72    1
    92    71    74    1
    93    72    73    1
    94    72    97    1
    95    72    98    1
    96    73    99    1
    97    73   100    1
    98    73   101    1
    99    74    75    1
   100    74    80    2
   101    75    76    2
   102    75   102    1
   103    76    77    1
   104    76   103    1
   105    77    78    1
   106    77    79    2
   107    78   104    1
   108    78   105    1
   109    78   106    1
   110    79    80    1
   111    79   107    1
   112    80   108    1
   113    82    83    1
   114    82    88    2
   115    83    84    2
   116    83   109    1
   117    84    85    1
   118    84   110    1
   119    85    86    1
   120    85    87    2
   121    86   111    1
   122    86   112    1
   123    86   113    1
   124    87    88    1
   125    87   114    1
   126    88   115    1
   127   116   117    2
   128   116   118    1
   129   116   119    1
@<TRIPOS>SUBSTRUCTURE
     1 RES1      119 GROUP             0 ****  ****    0  
