@<TRIPOS>MOLECULE
ICIGOT_geomtry_0_nunpairedes_0_charge_3 Charge: 3 Unpaired_Electrons: 0 XTB_Unpaired_Electrons: 0 XTB_Charge: 3
   233   236     1     0     0
SMALL
NoCharges
****
Generated from Architector

@<TRIPOS>ATOM
     1 Lu1      -0.0107   -0.3497    0.0203   Lu        1 RES1   0.0000
     2 C1       -1.2531    5.4230   -1.5017   C.3       1 RES1   0.0000
     3 C2       -0.4313    5.4236   -0.2158   C.3       1 RES1   0.0000
     4 C3        1.0566    5.6317   -0.4855   C.3       1 RES1   0.0000
     5 C4        1.8462    6.1698    0.7113   C.3       1 RES1   0.0000
     6 C5        1.5450    5.5460    2.0735   C.3       1 RES1   0.0000
     7 C6        1.8546    4.0561    2.1928   C.3       1 RES1   0.0000
     8 C7        1.6879    3.5979    3.6432   C.3       1 RES1   0.0000
     9 C8        2.0642    2.1206    3.8280   C.3       1 RES1   0.0000
    10 N1        0.9669    1.1683    3.9952   N.am      1 RES1   0.0000
    11 C9        0.2877    1.2075    5.2871   C.3       1 RES1   0.0000
    12 C10      -1.0068    2.0330    5.1944   C.3       1 RES1   0.0000
    13 C11      -1.8933    1.8517    6.4273   C.3       1 RES1   0.0000
    14 C12      -2.7858    0.6069    6.3700   C.3       1 RES1   0.0000
    15 C13      -4.2001    0.8697    5.8444   C.3       1 RES1   0.0000
    16 C14      -4.2997    1.1530    4.3453   C.3       1 RES1   0.0000
    17 C15      -5.7536    1.0815    3.8827   C.3       1 RES1   0.0000
    18 C16      -5.8965    1.3056    2.3846   C.3       1 RES1   0.0000
    19 C17       0.6296    0.3456    3.0184   C.2       1 RES1   0.0000
    20 O1        0.9706    0.5190    1.8211   O.2       1 RES1   0.0000
    21 C18      -0.1677   -0.9309    3.3590   C.3       1 RES1   0.0000
    22 O2       -0.5505   -1.5608    2.1340   O.3       1 RES1   0.0000
    23 C19      -0.4347   -2.9809    1.9899   C.3       1 RES1   0.0000
    24 C20       0.5262   -3.2557    0.8162   C.2       1 RES1   0.0000
    25 O3        0.9801   -2.2510    0.2172   O.2       1 RES1   0.0000
    26 N2        0.8853   -4.4858    0.5139   N.am      1 RES1   0.0000
    27 C21       2.0173   -4.6899   -0.3892   C.3       1 RES1   0.0000
    28 C22       3.3620   -4.3040    0.2393   C.3       1 RES1   0.0000
    29 C23       3.6126   -4.9262    1.6213   C.3       1 RES1   0.0000
    30 C24       3.3351   -3.9439    2.7586   C.3       1 RES1   0.0000
    31 C25       3.5711   -4.5290    4.1524   C.3       1 RES1   0.0000
    32 C26       2.5172   -5.5191    4.6498   C.3       1 RES1   0.0000
    33 C27       1.1809   -4.8633    4.9907   C.3       1 RES1   0.0000
    34 C28       0.2121   -5.8105    5.6907   C.3       1 RES1   0.0000
    35 C29       0.1110   -5.6456    0.9215   C.3       1 RES1   0.0000
    36 C30      -1.2168   -5.7366    0.1398   C.3       1 RES1   0.0000
    37 C31      -1.2248   -6.7319   -1.0281   C.3       1 RES1   0.0000
    38 C32      -0.4927   -6.2973   -2.3020   C.3       1 RES1   0.0000
    39 C33      -1.0772   -5.0462   -2.9606   C.3       1 RES1   0.0000
    40 C34      -0.3922   -4.7406   -4.2943   C.3       1 RES1   0.0000
    41 C35      -1.1191   -3.6759   -5.1142   C.3       1 RES1   0.0000
    42 C36      -1.2052   -2.3336   -4.4035   C.3       1 RES1   0.0000
    43 H1       -2.1877    4.8830   -1.3703   H         1 RES1   0.0000
    44 H2       -0.7065    4.9767   -2.3328   H         1 RES1   0.0000
    45 H3       -1.5010    6.4409   -1.7801   H         1 RES1   0.0000
    46 H4       -0.5546    4.4757    0.3168   H         1 RES1   0.0000
    47 H5       -0.8103    6.2153    0.4342   H         1 RES1   0.0000
    48 H6        1.1704    6.3457   -1.3044   H         1 RES1   0.0000
    49 H7        1.4943    4.6880   -0.8283   H         1 RES1   0.0000
    50 H8        1.6526    7.2378    0.7952   H         1 RES1   0.0000
    51 H9        2.9084    6.0644    0.4884   H         1 RES1   0.0000
    52 H10       0.5050    5.7325    2.3462   H         1 RES1   0.0000
    53 H11       2.1698    6.0696    2.7970   H         1 RES1   0.0000
    54 H12       2.8893    3.8810    1.8887   H         1 RES1   0.0000
    55 H13       1.2108    3.4606    1.5337   H         1 RES1   0.0000
    56 H14       0.6674    3.7878    3.9696   H         1 RES1   0.0000
    57 H15       2.3385    4.2088    4.2726   H         1 RES1   0.0000
    58 H16       2.6911    2.0034    4.7136   H         1 RES1   0.0000
    59 H17       2.6440    1.7971    2.9648   H         1 RES1   0.0000
    60 H18       0.9489    1.6801    6.0159   H         1 RES1   0.0000
    61 H19       0.0784    0.1984    5.6411   H         1 RES1   0.0000
    62 H20      -1.5593    1.7544    4.2946   H         1 RES1   0.0000
    63 H21      -0.7515    3.0890    5.1128   H         1 RES1   0.0000
    64 H22      -2.5235    2.7345    6.5366   H         1 RES1   0.0000
    65 H23      -1.2499    1.8132    7.3064   H         1 RES1   0.0000
    66 H24      -2.8802    0.1995    7.3764   H         1 RES1   0.0000
    67 H25      -2.3109   -0.1679    5.7580   H         1 RES1   0.0000
    68 H26      -4.6340    1.7056    6.3936   H         1 RES1   0.0000
    69 H27      -4.8117   -0.0068    6.0696   H         1 RES1   0.0000
    70 H28      -3.7055    0.4166    3.7899   H         1 RES1   0.0000
    71 H29      -3.9003    2.1449    4.1225   H         1 RES1   0.0000
    72 H30      -6.3331    1.8372    4.4118   H         1 RES1   0.0000
    73 H31      -6.1672    0.1078    4.1480   H         1 RES1   0.0000
    74 H32      -5.5883    2.3133    2.1226   H         1 RES1   0.0000
    75 H33      -6.9301    1.1810    2.0775   H         1 RES1   0.0000
    76 H34      -5.2825    0.6036    1.8190   H         1 RES1   0.0000
    77 H35      -1.0696   -0.7012    3.9421   H         1 RES1   0.0000
    78 H36       0.4802   -1.5864    3.9515   H         1 RES1   0.0000
    79 H37      -1.4309   -3.4080    1.8096   H         1 RES1   0.0000
    80 H38      -0.0329   -3.4389    2.9008   H         1 RES1   0.0000
    81 H39       1.8571   -4.1099   -1.3044   H         1 RES1   0.0000
    82 H40       2.0424   -5.7500   -0.6347   H         1 RES1   0.0000
    83 H41       3.4379   -3.2172    0.3026   H         1 RES1   0.0000
    84 H42       4.1279   -4.6442   -0.4594   H         1 RES1   0.0000
    85 H43       4.6586   -5.2223    1.6896   H         1 RES1   0.0000
    86 H44       3.0139   -5.8295    1.7395   H         1 RES1   0.0000
    87 H45       2.3176   -3.5529    2.6788   H         1 RES1   0.0000
    88 H46       4.0123   -3.0986    2.6359   H         1 RES1   0.0000
    89 H47       3.6348   -3.7053    4.8672   H         1 RES1   0.0000
    90 H48       4.5414   -5.0233    4.1516   H         1 RES1   0.0000
    91 H49       2.8994   -5.9897    5.5551   H         1 RES1   0.0000
    92 H50       2.3583   -6.3096    3.9154   H         1 RES1   0.0000
    93 H51       0.7093   -4.5066    4.0679   H         1 RES1   0.0000
    94 H52       1.3592   -3.9951    5.6312   H         1 RES1   0.0000
    95 H53       0.0547   -6.7125    5.1024   H         1 RES1   0.0000
    96 H54      -0.7519   -5.3268    5.8483   H         1 RES1   0.0000
    97 H55       0.6047   -6.1038    6.6604   H         1 RES1   0.0000
    98 H56      -0.0812   -5.6001    1.9944   H         1 RES1   0.0000
    99 H57       0.7076   -6.5381    0.7384   H         1 RES1   0.0000
   100 H58      -1.4746   -4.7432   -0.2356   H         1 RES1   0.0000
   101 H59      -2.0030   -6.0437    0.8295   H         1 RES1   0.0000
   102 H60      -2.2689   -6.9261   -1.2869   H         1 RES1   0.0000
   103 H61      -0.8008   -7.6783   -0.6877   H         1 RES1   0.0000
   104 H62      -0.5633   -7.1253   -3.0113   H         1 RES1   0.0000
   105 H63       0.5677   -6.1391   -2.1039   H         1 RES1   0.0000
   106 H64      -0.9650   -4.1846   -2.2920   H         1 RES1   0.0000
   107 H65      -2.1439   -5.2052   -3.1367   H         1 RES1   0.0000
   108 H66      -0.3490   -5.6576   -4.8838   H         1 RES1   0.0000
   109 H67       0.6363   -4.4197   -4.1086   H         1 RES1   0.0000
   110 H68      -2.1265   -4.0239   -5.3453   H         1 RES1   0.0000
   111 H69      -0.5935   -3.5510   -6.0602   H         1 RES1   0.0000
   112 H70      -1.8062   -2.4201   -3.5045   H         1 RES1   0.0000
   113 H71      -1.6611   -1.5879   -5.0505   H         1 RES1   0.0000
   114 H72      -0.2176   -1.9884   -4.1058   H         1 RES1   0.0000
   115 C37      -3.8275   -2.6115    3.8173   C.3       1 RES1   0.0000
   116 C38      -4.9997   -2.4970    2.8442   C.3       1 RES1   0.0000
   117 C39      -4.8882   -3.4813    1.6822   C.3       1 RES1   0.0000
   118 C40      -6.0941   -3.4906    0.7365   C.3       1 RES1   0.0000
   119 C41      -6.3754   -2.1972   -0.0400   C.3       1 RES1   0.0000
   120 C42      -5.1248   -1.6437   -0.7357   C.3       1 RES1   0.0000
   121 C43      -5.3558   -1.0217   -2.1081   C.3       1 RES1   0.0000
   122 C44      -4.0405   -0.6489   -2.7998   C.3       1 RES1   0.0000
   123 N3       -3.3296    0.5614   -2.3655   N.am      1 RES1   0.0000
   124 C45      -4.1223    1.7890   -2.4045   C.3       1 RES1   0.0000
   125 C46      -4.5227    2.1861   -0.9754   C.3       1 RES1   0.0000
   126 C47      -5.6336    3.2383   -0.9337   C.3       1 RES1   0.0000
   127 C48      -5.1079    4.6736   -1.0172   C.3       1 RES1   0.0000
   128 C49      -4.8782    5.3575    0.3351   C.3       1 RES1   0.0000
   129 C50      -3.9074    4.6704    1.2981   C.3       1 RES1   0.0000
   130 C51      -3.5110    5.6382    2.4107   C.3       1 RES1   0.0000
   131 C52      -2.6353    5.0039    3.4819   C.3       1 RES1   0.0000
   132 C53      -2.0511    0.5081   -2.0187   C.2       1 RES1   0.0000
   133 O4       -1.4808   -0.5362   -1.6163   O.2       1 RES1   0.0000
   134 C54      -1.1450    1.7300   -2.2143   C.3       1 RES1   0.0000
   135 O5       -0.0694    1.6650   -1.2624   O.3       1 RES1   0.0000
   136 C55       1.2217    2.0257   -1.7624   C.3       1 RES1   0.0000
   137 C56       1.9756    0.7443   -2.1524   C.2       1 RES1   0.0000
   138 O6        1.5386   -0.3177   -1.6489   O.2       1 RES1   0.0000
   139 N4        2.9853    0.8048   -2.9968   N.am      1 RES1   0.0000
   140 C57       3.5210   -0.4268   -3.5716   C.3       1 RES1   0.0000
   141 C58       2.6625   -0.9899   -4.7149   C.3       1 RES1   0.0000
   142 C59       2.2528    0.0081   -5.8065   C.3       1 RES1   0.0000
   143 C60       0.8966    0.6562   -5.5217   C.3       1 RES1   0.0000
   144 C61       0.4422    1.6378   -6.6056   C.3       1 RES1   0.0000
   145 C62       1.0812    3.0258   -6.5344   C.3       1 RES1   0.0000
   146 C63       0.5261    3.8914   -5.4040   C.3       1 RES1   0.0000
   147 C64       1.1297    5.2917   -5.4064   C.3       1 RES1   0.0000
   148 C65       3.6003    2.0621   -3.3913   C.3       1 RES1   0.0000
   149 C66       4.4373    2.7359   -2.2923   C.3       1 RES1   0.0000
   150 C67       5.8814    2.2357   -2.1632   C.3       1 RES1   0.0000
   151 C68       6.0741    0.8672   -1.5044   C.3       1 RES1   0.0000
   152 C69       5.5199    0.7842   -0.0833   C.3       1 RES1   0.0000
   153 C70       5.8504   -0.5574    0.5710   C.3       1 RES1   0.0000
   154 C71       5.3682   -0.6387    2.0174   C.3       1 RES1   0.0000
   155 C72       3.8614   -0.4513    2.1382   C.3       1 RES1   0.0000
   156 H73      -3.9708   -1.9465    4.6656   H         1 RES1   0.0000
   157 H74      -2.8745   -2.3625    3.3426   H         1 RES1   0.0000
   158 H75      -3.7565   -3.6265    4.2012   H         1 RES1   0.0000
   159 H76      -5.0760   -1.4743    2.4714   H         1 RES1   0.0000
   160 H77      -5.9171   -2.7130    3.3912   H         1 RES1   0.0000
   161 H78      -4.7968   -4.4859    2.0985   H         1 RES1   0.0000
   162 H79      -3.9710   -3.2929    1.1118   H         1 RES1   0.0000
   163 H80      -6.9859   -3.7401    1.3110   H         1 RES1   0.0000
   164 H81      -5.9397   -4.2936    0.0132   H         1 RES1   0.0000
   165 H82      -6.7850   -1.4399    0.6301   H         1 RES1   0.0000
   166 H83      -7.1483   -2.4212   -0.7773   H         1 RES1   0.0000
   167 H84      -4.4095   -2.4610   -0.8760   H         1 RES1   0.0000
   168 H85      -4.7074   -0.8738   -0.0867   H         1 RES1   0.0000
   169 H86      -6.0298   -0.1701   -2.0393   H         1 RES1   0.0000
   170 H87      -5.8336   -1.7568   -2.7569   H         1 RES1   0.0000
   171 H88      -4.2455   -0.4857   -3.8630   H         1 RES1   0.0000
   172 H89      -3.3364   -1.4767   -2.7135   H         1 RES1   0.0000
   173 H90      -5.0260    1.5778   -2.9779   H         1 RES1   0.0000
   174 H91      -3.5901    2.5911   -2.9121   H         1 RES1   0.0000
   175 H92      -3.6518    2.5542   -0.4344   H         1 RES1   0.0000
   176 H93      -4.8643    1.2905   -0.4580   H         1 RES1   0.0000
   177 H94      -6.2050    3.1196   -0.0128   H         1 RES1   0.0000
   178 H95      -6.3206    3.0470   -1.7559   H         1 RES1   0.0000
   179 H96      -5.8257    5.2879   -1.5618   H         1 RES1   0.0000
   180 H97      -4.1848    4.6856   -1.6014   H         1 RES1   0.0000
   181 H98      -5.8382    5.4763    0.8410   H         1 RES1   0.0000
   182 H99      -4.4965    6.3590    0.1287   H         1 RES1   0.0000
   183 H100     -3.0089    4.3490    0.7632   H         1 RES1   0.0000
   184 H101     -4.3780    3.7861    1.7324   H         1 RES1   0.0000
   185 H102     -4.4136    6.0261    2.8815   H         1 RES1   0.0000
   186 H103     -2.9833    6.4835    1.9673   H         1 RES1   0.0000
   187 H104     -3.1720    4.2128    4.0016   H         1 RES1   0.0000
   188 H105     -2.3506    5.7514    4.2170   H         1 RES1   0.0000
   189 H106     -1.7227    4.5875    3.0529   H         1 RES1   0.0000
   190 H107     -1.6600    2.6886   -2.1058   H         1 RES1   0.0000
   191 H108     -0.7594    1.6402   -3.2411   H         1 RES1   0.0000
   192 H109      1.7364    2.5224   -0.9312   H         1 RES1   0.0000
   193 H110      1.1188    2.7276   -2.5953   H         1 RES1   0.0000
   194 H111      3.5911   -1.1813   -2.7824   H         1 RES1   0.0000
   195 H112      4.5163   -0.2047   -3.9526   H         1 RES1   0.0000
   196 H113      1.7664   -1.4474   -4.2940   H         1 RES1   0.0000
   197 H114      3.2523   -1.7884   -5.1657   H         1 RES1   0.0000
   198 H115      2.1660   -0.5315   -6.7502   H         1 RES1   0.0000
   199 H116      3.0246    0.7656   -5.9397   H         1 RES1   0.0000
   200 H117      0.9226    1.1611   -4.5526   H         1 RES1   0.0000
   201 H118      0.1538   -0.1408   -5.4514   H         1 RES1   0.0000
   202 H119     -0.6430    1.7548   -6.5446   H         1 RES1   0.0000
   203 H120      0.6594    1.1967   -7.5772   H         1 RES1   0.0000
   204 H121      0.8804    3.5422   -7.4731   H         1 RES1   0.0000
   205 H122      2.1648    2.9403   -6.4359   H         1 RES1   0.0000
   206 H123      0.7244    3.4169   -4.4334   H         1 RES1   0.0000
   207 H124     -0.5592    3.9662   -5.5122   H         1 RES1   0.0000
   208 H125      2.2169    5.2471   -5.3676   H         1 RES1   0.0000
   209 H126      0.7749    5.8693   -4.5539   H         1 RES1   0.0000
   210 H127      0.8470    5.8186   -6.3138   H         1 RES1   0.0000
   211 H128      2.8316    2.7601   -3.7254   H         1 RES1   0.0000
   212 H129      4.2438    1.8578   -4.2444   H         1 RES1   0.0000
   213 H130      3.9356    2.6579   -1.3273   H         1 RES1   0.0000
   214 H131      4.4900    3.7954   -2.5465   H         1 RES1   0.0000
   215 H132      6.4359    2.9751   -1.5803   H         1 RES1   0.0000
   216 H133      6.3352    2.2115   -3.1555   H         1 RES1   0.0000
   217 H134      7.1472    0.6649   -1.4733   H         1 RES1   0.0000
   218 H135      5.6152    0.0843   -2.1080   H         1 RES1   0.0000
   219 H136      4.4325    0.9107   -0.1137   H         1 RES1   0.0000
   220 H137      5.9432    1.5921    0.5187   H         1 RES1   0.0000
   221 H138      6.9316   -0.7026    0.5515   H         1 RES1   0.0000
   222 H139      5.3976   -1.3652   -0.0117   H         1 RES1   0.0000
   223 H140      5.8707    0.1285    2.6083   H         1 RES1   0.0000
   224 H141      5.6615   -1.6040    2.4301   H         1 RES1   0.0000
   225 H142      3.6032    0.5680    1.8696   H         1 RES1   0.0000
   226 H143      3.5343   -0.6340    3.1590   H         1 RES1   0.0000
   227 H144      3.3152   -1.1158    1.4665   H         1 RES1   0.0000
   228 O7       -2.5130   -0.8516    0.7510   O.3       1 RES1   0.0000
   229 H145     -2.8719   -1.1089    1.6172   H         1 RES1   0.0000
   230 H146     -3.0051   -1.3856    0.1104   H         1 RES1   0.0000
   231 O8       -1.4227    1.6056    1.0311   O.3       1 RES1   0.0000
   232 H147     -1.0494    2.4898    1.1722   H         1 RES1   0.0000
   233 H148     -2.3435    1.6778    1.3221   H         1 RES1   0.0000
@<TRIPOS>BOND
     1     1    20    1
     2     1    22    1
     3     1    25    1
     4     1   133    1
     5     1   135    1
     6     1   138    1
     7     1   228    1
     8     1   231    1
     9     2     3    1
    10     2    43    1
    11     2    44    1
    12     2    45    1
    13     3     4    1
    14     3    46    1
    15     3    47    1
    16     4     5    1
    17     4    48    1
    18     4    49    1
    19     5     6    1
    20     5    50    1
    21     5    51    1
    22     6     7    1
    23     6    52    1
    24     6    53    1
    25     7     8    1
    26     7    54    1
    27     7    55    1
    28     8     9    1
    29     8    56    1
    30     8    57    1
    31     9    10    1
    32     9    58    1
    33     9    59    1
    34    10    11    1
    35    10    19    1
    36    11    12    1
    37    11    60    1
    38    11    61    1
    39    12    13    1
    40    12    62    1
    41    12    63    1
    42    13    14    1
    43    13    64    1
    44    13    65    1
    45    14    15    1
    46    14    66    1
    47    14    67    1
    48    15    16    1
    49    15    68    1
    50    15    69    1
    51    16    17    1
    52    16    70    1
    53    16    71    1
    54    17    18    1
    55    17    72    1
    56    17    73    1
    57    18    74    1
    58    18    75    1
    59    18    76    1
    60    19    20    2
    61    19    21    1
    62    21    22    1
    63    21    77    1
    64    21    78    1
    65    22    23    1
    66    23    24    1
    67    23    79    1
    68    23    80    1
    69    24    25    2
    70    24    26    1
    71    26    27    1
    72    26    35    1
    73    27    28    1
    74    27    81    1
    75    27    82    1
    76    28    29    1
    77    28    83    1
    78    28    84    1
    79    29    30    1
    80    29    85    1
    81    29    86    1
    82    30    31    1
    83    30    87    1
    84    30    88    1
    85    31    32    1
    86    31    89    1
    87    31    90    1
    88    32    33    1
    89    32    91    1
    90    32    92    1
    91    33    34    1
    92    33    93    1
    93    33    94    1
    94    34    95    1
    95    34    96    1
    96    34    97    1
    97    35    36    1
    98    35    98    1
    99    35    99    1
   100    36    37    1
   101    36   100    1
   102    36   101    1
   103    37    38    1
   104    37   102    1
   105    37   103    1
   106    38    39    1
   107    38   104    1
   108    38   105    1
   109    39    40    1
   110    39   106    1
   111    39   107    1
   112    40    41    1
   113    40   108    1
   114    40   109    1
   115    41    42    1
   116    41   110    1
   117    41   111    1
   118    42   112    1
   119    42   113    1
   120    42   114    1
   121   115   116    1
   122   115   156    1
   123   115   157    1
   124   115   158    1
   125   116   117    1
   126   116   159    1
   127   116   160    1
   128   117   118    1
   129   117   161    1
   130   117   162    1
   131   118   119    1
   132   118   163    1
   133   118   164    1
   134   119   120    1
   135   119   165    1
   136   119   166    1
   137   120   121    1
   138   120   167    1
   139   120   168    1
   140   121   122    1
   141   121   169    1
   142   121   170    1
   143   122   123    1
   144   122   171    1
   145   122   172    1
   146   123   124    1
   147   123   132    1
   148   124   125    1
   149   124   173    1
   150   124   174    1
   151   125   126    1
   152   125   175    1
   153   125   176    1
   154   126   127    1
   155   126   177    1
   156   126   178    1
   157   127   128    1
   158   127   179    1
   159   127   180    1
   160   128   129    1
   161   128   181    1
   162   128   182    1
   163   129   130    1
   164   129   183    1
   165   129   184    1
   166   130   131    1
   167   130   185    1
   168   130   186    1
   169   131   187    1
   170   131   188    1
   171   131   189    1
   172   132   133    2
   173   132   134    1
   174   134   135    1
   175   134   190    1
   176   134   191    1
   177   135   136    1
   178   136   137    1
   179   136   192    1
   180   136   193    1
   181   137   138    2
   182   137   139    1
   183   139   140    1
   184   139   148    1
   185   140   141    1
   186   140   194    1
   187   140   195    1
   188   141   142    1
   189   141   196    1
   190   141   197    1
   191   142   143    1
   192   142   198    1
   193   142   199    1
   194   143   144    1
   195   143   200    1
   196   143   201    1
   197   144   145    1
   198   144   202    1
   199   144   203    1
   200   145   146    1
   201   145   204    1
   202   145   205    1
   203   146   147    1
   204   146   206    1
   205   146   207    1
   206   147   208    1
   207   147   209    1
   208   147   210    1
   209   148   149    1
   210   148   211    1
   211   148   212    1
   212   149   150    1
   213   149   213    1
   214   149   214    1
   215   150   151    1
   216   150   215    1
   217   150   216    1
   218   151   152    1
   219   151   217    1
   220   151   218    1
   221   152   153    1
   222   152   219    1
   223   152   220    1
   224   153   154    1
   225   153   221    1
   226   153   222    1
   227   154   155    1
   228   154   223    1
   229   154   224    1
   230   155   225    1
   231   155   226    1
   232   155   227    1
   233   228   229    1
   234   228   230    1
   235   231   232    1
   236   231   233    1
@<TRIPOS>SUBSTRUCTURE
     1 RES1      233 GROUP             0 ****  ****    0  
