@<TRIPOS>MOLECULE
ICIGOT_geomtry_0_nunpairedes_0_charge_2 Charge: 2 Unpaired_Electrons: 0 XTB_Unpaired_Electrons: 0 XTB_Charge: 2
   233   239     1     0     0
SMALL
NoCharges
****
Generated from Architector

@<TRIPOS>ATOM
     1 Lu1      -0.2868   -0.0662   -0.0361   Lu        1 RES1   0.0000
     2 C1        1.2405   -9.1798    6.1018   C.3       1 RES1   0.0000
     3 C2        1.3331   -8.0391    5.0967   C.3       1 RES1   0.0000
     4 C3        0.1020   -7.9844    4.1980   C.3       1 RES1   0.0000
     5 C4        0.1835   -6.9106    3.1108   C.3       1 RES1   0.0000
     6 C5        0.4847   -5.5007    3.6267   C.3       1 RES1   0.0000
     7 C6       -0.5149   -5.0486    4.6868   C.3       1 RES1   0.0000
     8 C7       -0.2915   -3.6257    5.2058   C.3       1 RES1   0.0000
     9 C8        0.5528   -3.5074    6.4809   C.3       1 RES1   0.0000
    10 C9        2.0386   -3.8545    6.3903   C.3       1 RES1   0.0000
    11 C10       2.8358   -3.0408    5.3660   C.3       1 RES1   0.0000
    12 C11       2.6771   -1.5259    5.5463   C.3       1 RES1   0.0000
    13 C12       3.5645   -0.6884    4.6035   C.3       1 RES1   0.0000
    14 N1        2.8392    0.2733    3.7794   N.am      1 RES1   0.0000
    15 C13       2.7663    1.6330    4.3211   C.3       1 RES1   0.0000
    16 C14       4.1306    2.3203    4.4739   C.3       1 RES1   0.0000
    17 C15       4.1314    3.4567    5.5130   C.3       1 RES1   0.0000
    18 C16       3.7125    4.8455    5.0078   C.3       1 RES1   0.0000
    19 C17       4.8824    5.6217    4.3704   C.3       1 RES1   0.0000
    20 C18       4.4824    6.5215    3.1912   C.3       1 RES1   0.0000
    21 C19       3.8106    7.8619    3.5306   C.3       1 RES1   0.0000
    22 C20       2.3768    8.0367    3.0152   C.3       1 RES1   0.0000
    23 C21       2.2530    8.0937    1.4898   C.3       1 RES1   0.0000
    24 C22       0.9685    8.7361    0.9487   C.3       1 RES1   0.0000
    25 C23      -0.3516    7.9869    1.1622   C.3       1 RES1   0.0000
    26 C24      -0.9792    8.1630    2.5376   C.3       1 RES1   0.0000
    27 C25       2.1640   -0.0928    2.6970   C.2       1 RES1   0.0000
    28 O1        1.4988    0.6641    1.9570   O.2       1 RES1   0.0000
    29 C26       2.1980   -1.5674    2.3042   C.3       1 RES1   0.0000
    30 O2        1.6432   -1.7006    1.0061   O.3       1 RES1   0.0000
    31 C27       2.5750   -2.1187    0.0162   C.3       1 RES1   0.0000
    32 C28       2.6599   -3.6351   -0.1343   C.3       1 RES1   0.0000
    33 C29       3.6884   -3.9171   -1.2209   C.3       1 RES1   0.0000
    34 C30       3.2895   -3.2585   -2.5433   C.3       1 RES1   0.0000
    35 N2        2.6424   -1.9583   -2.4188   N.am      1 RES1   0.0000
    36 C31       2.4018   -1.2447   -3.6672   C.3       1 RES1   0.0000
    37 C32       1.3966   -1.9144   -4.6079   C.3       1 RES1   0.0000
    38 C33       0.0132   -2.1730   -4.0034   C.3       1 RES1   0.0000
    39 C34      -0.1410   -3.5337   -3.3161   C.3       1 RES1   0.0000
    40 C35      -1.6051   -3.9760   -3.2114   C.3       1 RES1   0.0000
    41 C36      -2.4084   -3.2155   -2.1563   C.3       1 RES1   0.0000
    42 C37       2.1735   -1.4554   -1.2951   C.2       1 RES1   0.0000
    43 O3        1.4904   -0.4043   -1.2469   O.2       1 RES1   0.0000
    44 H1        2.0967   -9.1677    6.7731   H         1 RES1   0.0000
    45 H2        1.2153  -10.1422    5.5958   H         1 RES1   0.0000
    46 H3        0.3352   -9.0905    6.7003   H         1 RES1   0.0000
    47 H4        2.2268   -8.1628    4.4811   H         1 RES1   0.0000
    48 H5        1.4320   -7.1023    5.6461   H         1 RES1   0.0000
    49 H6       -0.7851   -7.8170    4.8106   H         1 RES1   0.0000
    50 H7       -0.0224   -8.9523    3.7081   H         1 RES1   0.0000
    51 H8       -0.7696   -6.8881    2.5765   H         1 RES1   0.0000
    52 H9        0.9617   -7.1921    2.3952   H         1 RES1   0.0000
    53 H10       0.4420   -4.8100    2.7757   H         1 RES1   0.0000
    54 H11       1.4974   -5.4755    4.0287   H         1 RES1   0.0000
    55 H12      -0.4918   -5.7361    5.5313   H         1 RES1   0.0000
    56 H13      -1.5123   -5.1072    4.2469   H         1 RES1   0.0000
    57 H14      -1.2675   -3.2140    5.4631   H         1 RES1   0.0000
    58 H15       0.1165   -2.9987    4.4059   H         1 RES1   0.0000
    59 H16       0.1070   -4.1604    7.2337   H         1 RES1   0.0000
    60 H17       0.4606   -2.4839    6.8537   H         1 RES1   0.0000
    61 H18       2.1491   -4.9100    6.1456   H         1 RES1   0.0000
    62 H19       2.4762   -3.7088    7.3787   H         1 RES1   0.0000
    63 H20       2.5151   -3.3439    4.3681   H         1 RES1   0.0000
    64 H21       3.8915   -3.3062    5.4647   H         1 RES1   0.0000
    65 H22       2.9171   -1.2784    6.5826   H         1 RES1   0.0000
    66 H23       1.6362   -1.2544    5.3869   H         1 RES1   0.0000
    67 H24       4.1685   -1.3372    3.9683   H         1 RES1   0.0000
    68 H25       4.2552   -0.1148    5.2155   H         1 RES1   0.0000
    69 H26       2.2889    1.5599    5.3046   H         1 RES1   0.0000
    70 H27       2.1174    2.2008    3.6601   H         1 RES1   0.0000
    71 H28       4.4730    2.6754    3.5034   H         1 RES1   0.0000
    72 H29       4.8565    1.5861    4.8130   H         1 RES1   0.0000
    73 H30       5.1392    3.5409    5.9203   H         1 RES1   0.0000
    74 H31       3.4888    3.1574    6.3425   H         1 RES1   0.0000
    75 H32       3.3225    5.4172    5.8497   H         1 RES1   0.0000
    76 H33       2.8922    4.7430    4.2953   H         1 RES1   0.0000
    77 H34       5.6257    4.9062    4.0126   H         1 RES1   0.0000
    78 H35       5.3747    6.2224    5.1326   H         1 RES1   0.0000
    79 H36       3.8215    5.9498    2.5534   H         1 RES1   0.0000
    80 H37       5.3842    6.7254    2.6184   H         1 RES1   0.0000
    81 H38       4.4019    8.6708    3.1065   H         1 RES1   0.0000
    82 H39       3.8029    8.0016    4.6111   H         1 RES1   0.0000
    83 H40       1.9949    8.9762    3.4194   H         1 RES1   0.0000
    84 H41       1.7475    7.2347    3.4030   H         1 RES1   0.0000
    85 H42       2.3485    7.0893    1.0742   H         1 RES1   0.0000
    86 H43       3.0859    8.6812    1.1031   H         1 RES1   0.0000
    87 H44       1.1024    8.8526   -0.1282   H         1 RES1   0.0000
    88 H45       0.8651    9.7376    1.3625   H         1 RES1   0.0000
    89 H46      -0.2164    6.9218    0.9552   H         1 RES1   0.0000
    90 H47      -1.0679    8.3585    0.4242   H         1 RES1   0.0000
    91 H48      -0.3523    7.7536    3.3204   H         1 RES1   0.0000
    92 H49      -1.9454    7.6671    2.5715   H         1 RES1   0.0000
    93 H50      -1.1372    9.2150    2.7501   H         1 RES1   0.0000
    94 H51       1.5845   -2.1418    3.0096   H         1 RES1   0.0000
    95 H52       3.2119   -1.9704    2.3267   H         1 RES1   0.0000
    96 H53       3.5698   -1.7164    0.2676   H         1 RES1   0.0000
    97 H54       1.6814   -4.0370   -0.4004   H         1 RES1   0.0000
    98 H55       2.9574   -4.1021    0.8051   H         1 RES1   0.0000
    99 H56       3.7774   -4.9900   -1.3960   H         1 RES1   0.0000
   100 H57       4.6638   -3.5540   -0.8918   H         1 RES1   0.0000
   101 H58       2.5891   -3.9102   -3.0783   H         1 RES1   0.0000
   102 H59       4.1740   -3.1362   -3.1781   H         1 RES1   0.0000
   103 H60       3.3613   -1.1399   -4.1854   H         1 RES1   0.0000
   104 H61       2.0381   -0.2518   -3.3900   H         1 RES1   0.0000
   105 H62       1.8041   -2.8507   -4.9901   H         1 RES1   0.0000
   106 H63       1.2994   -1.2402   -5.4611   H         1 RES1   0.0000
   107 H64      -0.7096   -2.1366   -4.8172   H         1 RES1   0.0000
   108 H65      -0.2370   -1.3828   -3.2934   H         1 RES1   0.0000
   109 H66       0.2921   -3.4962   -2.3148   H         1 RES1   0.0000
   110 H67       0.3871   -4.2925   -3.9000   H         1 RES1   0.0000
   111 H68      -1.6447   -5.0421   -2.9745   H         1 RES1   0.0000
   112 H69      -2.0702   -3.8518   -4.1908   H         1 RES1   0.0000
   113 H70      -2.2041   -3.6173   -1.1644   H         1 RES1   0.0000
   114 H71      -3.4742   -3.3322   -2.3441   H         1 RES1   0.0000
   115 H72      -2.1719   -2.1491   -2.1698   H         1 RES1   0.0000
   116 C38       8.4439    7.4284   -0.7173   C.3       1 RES1   0.0000
   117 C39       7.2339    6.8217   -1.4194   C.3       1 RES1   0.0000
   118 C40       7.6657    5.8423   -2.5095   C.3       1 RES1   0.0000
   119 C41       6.5291    5.3297   -3.3987   C.3       1 RES1   0.0000
   120 C42       5.5010    4.4253   -2.7125   C.3       1 RES1   0.0000
   121 C43       6.1134    3.1245   -2.1928   C.3       1 RES1   0.0000
   122 C44       5.1253    2.2192   -1.4418   C.3       1 RES1   0.0000
   123 C45       5.1448    2.3971    0.0835   C.3       1 RES1   0.0000
   124 C46       4.9410    3.8305    0.5724   C.3       1 RES1   0.0000
   125 C47       3.5029    4.3405    0.4355   C.3       1 RES1   0.0000
   126 C48       2.6361    3.8364    1.5949   C.3       1 RES1   0.0000
   127 C49       1.2542    4.5040    1.7167   C.3       1 RES1   0.0000
   128 N3        0.2071    3.5202    1.8995   N.am      1 RES1   0.0000
   129 C50      -0.4266    3.3731    3.2020   C.3       1 RES1   0.0000
   130 C51      -1.4920    4.4479    3.4143   C.3       1 RES1   0.0000
   131 C52      -1.9655    4.5257    4.8701   C.3       1 RES1   0.0000
   132 C53      -2.9669    3.4468    5.3007   C.3       1 RES1   0.0000
   133 C54      -4.4068    3.6764    4.8143   C.3       1 RES1   0.0000
   134 C55      -4.8030    2.9418    3.5265   C.3       1 RES1   0.0000
   135 C56      -5.3896    1.5422    3.7450   C.3       1 RES1   0.0000
   136 C57      -4.4556    0.5274    4.4034   C.3       1 RES1   0.0000
   137 C58      -3.2974    0.1152    3.4984   C.3       1 RES1   0.0000
   138 C59      -2.2727   -0.8280    4.1410   C.3       1 RES1   0.0000
   139 C60      -1.5058   -0.2727    5.3508   C.3       1 RES1   0.0000
   140 C61      -2.1559   -0.5521    6.7026   C.3       1 RES1   0.0000
   141 C62      -0.0749    2.6863    0.9196   C.2       1 RES1   0.0000
   142 O4       -0.8771    1.7356    1.0149   O.2       1 RES1   0.0000
   143 C63       0.6323    2.9004   -0.4212   C.3       1 RES1   0.0000
   144 O5        0.1143    2.0126   -1.3862   O.3       1 RES1   0.0000
   145 C64      -0.9790    2.5454   -2.1398   C.3       1 RES1   0.0000
   146 C65      -0.5352    3.5796   -3.1678   C.3       1 RES1   0.0000
   147 C66      -1.7503    3.9367   -4.0125   C.3       1 RES1   0.0000
   148 C67      -2.2614    2.6915   -4.7217   C.3       1 RES1   0.0000
   149 N4       -2.3279    1.4907   -3.8896   N.am      1 RES1   0.0000
   150 C68      -3.0719    0.3899   -4.4977   C.3       1 RES1   0.0000
   151 C69      -2.4944   -0.0234   -5.8501   C.3       1 RES1   0.0000
   152 C70      -3.0708   -1.3592   -6.3125   C.3       1 RES1   0.0000
   153 C71      -2.3044   -1.8884   -7.5239   C.3       1 RES1   0.0000
   154 C72      -2.9203   -3.1541   -8.1250   C.3       1 RES1   0.0000
   155 C73      -2.8813   -4.3429   -7.1720   C.3       1 RES1   0.0000
   156 C74      -1.6383    1.3195   -2.7759   C.2       1 RES1   0.0000
   157 O6       -1.5095    0.2412   -2.1611   O.2       1 RES1   0.0000
   158 H73       8.1339    8.1211    0.0623   H         1 RES1   0.0000
   159 H74       9.0656    7.9721   -1.4250   H         1 RES1   0.0000
   160 H75       9.0560    6.6523   -0.2616   H         1 RES1   0.0000
   161 H76       6.6369    7.6207   -1.8626   H         1 RES1   0.0000
   162 H77       6.6106    6.3158   -0.6785   H         1 RES1   0.0000
   163 H78       8.1946    5.0058   -2.0484   H         1 RES1   0.0000
   164 H79       8.3813    6.3520   -3.1582   H         1 RES1   0.0000
   165 H80       6.9690    4.7767   -4.2324   H         1 RES1   0.0000
   166 H81       6.0061    6.1945   -3.8166   H         1 RES1   0.0000
   167 H82       4.7252    4.1811   -3.4451   H         1 RES1   0.0000
   168 H83       5.0207    4.9750   -1.9059   H         1 RES1   0.0000
   169 H84       6.9526    3.3500   -1.5353   H         1 RES1   0.0000
   170 H85       6.5226    2.5870   -3.0505   H         1 RES1   0.0000
   171 H86       5.3920    1.1768   -1.6367   H         1 RES1   0.0000
   172 H87       4.1124    2.3658   -1.8309   H         1 RES1   0.0000
   173 H88       6.1165    2.0601    0.4503   H         1 RES1   0.0000
   174 H89       4.3821    1.7469    0.5249   H         1 RES1   0.0000
   175 H90       5.6133    4.4838    0.0219   H         1 RES1   0.0000
   176 H91       5.2429    3.9008    1.6189   H         1 RES1   0.0000
   177 H92       3.1018    4.0392   -0.5338   H         1 RES1   0.0000
   178 H93       3.5179    5.4309    0.4439   H         1 RES1   0.0000
   179 H94       3.1867    4.0109    2.5155   H         1 RES1   0.0000
   180 H95       2.5037    2.7569    1.5103   H         1 RES1   0.0000
   181 H96       1.0432    5.1003    0.8263   H         1 RES1   0.0000
   182 H97       1.2222    5.1818    2.5677   H         1 RES1   0.0000
   183 H98       0.3459    3.4630    3.9696   H         1 RES1   0.0000
   184 H99      -0.8590    2.3718    3.2503   H         1 RES1   0.0000
   185 H100     -2.3407    4.2683    2.7567   H         1 RES1   0.0000
   186 H101     -1.0567    5.4077    3.1350   H         1 RES1   0.0000
   187 H102     -2.4188    5.5062    5.0306   H         1 RES1   0.0000
   188 H103     -1.0848    4.4682    5.5164   H         1 RES1   0.0000
   189 H104     -2.9732    3.4324    6.3914   H         1 RES1   0.0000
   190 H105     -2.6148    2.4742    4.9678   H         1 RES1   0.0000
   191 H106     -4.5544    4.7493    4.6751   H         1 RES1   0.0000
   192 H107     -5.1020    3.3694    5.5968   H         1 RES1   0.0000
   193 H108     -3.9510    2.8715    2.8497   H         1 RES1   0.0000
   194 H109     -5.5725    3.5299    3.0209   H         1 RES1   0.0000
   195 H110     -5.6995    1.1473    2.7749   H         1 RES1   0.0000
   196 H111     -6.2846    1.6352    4.3630   H         1 RES1   0.0000
   197 H112     -5.0321   -0.3642    4.6554   H         1 RES1   0.0000
   198 H113     -4.0825    0.9496    5.3309   H         1 RES1   0.0000
   199 H114     -2.7756    1.0029    3.1280   H         1 RES1   0.0000
   200 H115     -3.7134   -0.3922    2.6231   H         1 RES1   0.0000
   201 H116     -1.5398   -1.0795    3.3575   H         1 RES1   0.0000
   202 H117     -2.7705   -1.7566    4.4272   H         1 RES1   0.0000
   203 H118     -1.3553    0.8027    5.2326   H         1 RES1   0.0000
   204 H119     -0.5131   -0.7286    5.3615   H         1 RES1   0.0000
   205 H120     -3.1049   -0.0398    6.8065   H         1 RES1   0.0000
   206 H121     -1.5056   -0.2135    7.5058   H         1 RES1   0.0000
   207 H122     -2.3359   -1.6160    6.8398   H         1 RES1   0.0000
   208 H123      1.6897    2.6402   -0.3389   H         1 RES1   0.0000
   209 H124      0.5525    3.9417   -0.7420   H         1 RES1   0.0000
   210 H125     -1.7351    2.9705   -1.4585   H         1 RES1   0.0000
   211 H126      0.2508    3.1480   -3.7924   H         1 RES1   0.0000
   212 H127     -0.1432    4.4718   -2.6798   H         1 RES1   0.0000
   213 H128     -1.4890    4.6804   -4.7667   H         1 RES1   0.0000
   214 H129     -2.5327    4.3620   -3.3828   H         1 RES1   0.0000
   215 H130     -1.5903    2.4667   -5.5561   H         1 RES1   0.0000
   216 H131     -3.2559    2.8691   -5.1407   H         1 RES1   0.0000
   217 H132     -4.1105    0.7050   -4.6242   H         1 RES1   0.0000
   218 H133     -3.0372   -0.4523   -3.8088   H         1 RES1   0.0000
   219 H134     -1.4080   -0.1108   -5.7594   H         1 RES1   0.0000
   220 H135     -2.7121    0.7266   -6.6095   H         1 RES1   0.0000
   221 H136     -4.1238   -1.2433   -6.5691   H         1 RES1   0.0000
   222 H137     -3.0113   -2.0756   -5.4929   H         1 RES1   0.0000
   223 H138     -1.2704   -2.1001   -7.2309   H         1 RES1   0.0000
   224 H139     -2.2820   -1.1105   -8.2913   H         1 RES1   0.0000
   225 H140     -2.3608   -3.4091   -9.0283   H         1 RES1   0.0000
   226 H141     -3.9539   -2.9529   -8.4193   H         1 RES1   0.0000
   227 H142     -1.8620   -4.5298   -6.8412   H         1 RES1   0.0000
   228 H143     -3.2487   -5.2327   -7.6732   H         1 RES1   0.0000
   229 H144     -3.5108   -4.1651   -6.3055   H         1 RES1   0.0000
   230 N5       -1.9499   -1.7112    0.5593   N.3       1 RES1   0.0000
   231 O7       -2.6748   -2.5290    1.0055   O.2       1 RES1   0.0000
   232 O8       -0.7998   -2.0112    0.1592   O.co2     1 RES1   0.0000
   233 O9       -2.2582   -0.5201    0.4607   O.co2     1 RES1   0.0000
@<TRIPOS>BOND
     1     1    28    1
     2     1    30    1
     3     1    43    1
     4     1   142    1
     5     1   144    1
     6     1   157    1
     7     1   232    1
     8     1   233    1
     9     2     3    1
    10     2    44    1
    11     2    45    1
    12     2    46    1
    13     3     4    1
    14     3    47    1
    15     3    48    1
    16     4     5    1
    17     4    49    1
    18     4    50    1
    19     5     6    1
    20     5    51    1
    21     5    52    1
    22     6     7    1
    23     6    53    1
    24     6    54    1
    25     7     8    1
    26     7    55    1
    27     7    56    1
    28     8     9    1
    29     8    57    1
    30     8    58    1
    31     9    10    1
    32     9    59    1
    33     9    60    1
    34    10    11    1
    35    10    61    1
    36    10    62    1
    37    11    12    1
    38    11    63    1
    39    11    64    1
    40    12    13    1
    41    12    65    1
    42    12    66    1
    43    13    14    1
    44    13    67    1
    45    13    68    1
    46    14    15    1
    47    14    27    1
    48    15    16    1
    49    15    69    1
    50    15    70    1
    51    16    17    1
    52    16    71    1
    53    16    72    1
    54    17    18    1
    55    17    73    1
    56    17    74    1
    57    18    19    1
    58    18    75    1
    59    18    76    1
    60    19    20    1
    61    19    77    1
    62    19    78    1
    63    20    21    1
    64    20    79    1
    65    20    80    1
    66    21    22    1
    67    21    81    1
    68    21    82    1
    69    22    23    1
    70    22    83    1
    71    22    84    1
    72    23    24    1
    73    23    85    1
    74    23    86    1
    75    24    25    1
    76    24    87    1
    77    24    88    1
    78    25    26    1
    79    25    89    1
    80    25    90    1
    81    26    91    1
    82    26    92    1
    83    26    93    1
    84    27    28    2
    85    27    29    1
    86    29    30    1
    87    29    94    1
    88    29    95    1
    89    30    31    1
    90    31    32    1
    91    31    42    1
    92    31    96    1
    93    32    33    1
    94    32    97    1
    95    32    98    1
    96    33    34    1
    97    33    99    1
    98    33   100    1
    99    34    35    1
   100    34   101    1
   101    34   102    1
   102    35    36    1
   103    35    42    1
   104    36    37    1
   105    36   103    1
   106    36   104    1
   107    37    38    1
   108    37   105    1
   109    37   106    1
   110    38    39    1
   111    38   107    1
   112    38   108    1
   113    39    40    1
   114    39   109    1
   115    39   110    1
   116    40    41    1
   117    40   111    1
   118    40   112    1
   119    41   113    1
   120    41   114    1
   121    41   115    1
   122    42    43    2
   123   116   117    1
   124   116   158    1
   125   116   159    1
   126   116   160    1
   127   117   118    1
   128   117   161    1
   129   117   162    1
   130   118   119    1
   131   118   163    1
   132   118   164    1
   133   119   120    1
   134   119   165    1
   135   119   166    1
   136   120   121    1
   137   120   167    1
   138   120   168    1
   139   121   122    1
   140   121   169    1
   141   121   170    1
   142   122   123    1
   143   122   171    1
   144   122   172    1
   145   123   124    1
   146   123   173    1
   147   123   174    1
   148   124   125    1
   149   124   175    1
   150   124   176    1
   151   125   126    1
   152   125   177    1
   153   125   178    1
   154   126   127    1
   155   126   179    1
   156   126   180    1
   157   127   128    1
   158   127   181    1
   159   127   182    1
   160   128   129    1
   161   128   141    1
   162   129   130    1
   163   129   183    1
   164   129   184    1
   165   130   131    1
   166   130   185    1
   167   130   186    1
   168   131   132    1
   169   131   187    1
   170   131   188    1
   171   132   133    1
   172   132   189    1
   173   132   190    1
   174   133   134    1
   175   133   191    1
   176   133   192    1
   177   134   135    1
   178   134   193    1
   179   134   194    1
   180   135   136    1
   181   135   195    1
   182   135   196    1
   183   136   137    1
   184   136   197    1
   185   136   198    1
   186   137   138    1
   187   137   199    1
   188   137   200    1
   189   138   139    1
   190   138   201    1
   191   138   202    1
   192   139   140    1
   193   139   203    1
   194   139   204    1
   195   140   205    1
   196   140   206    1
   197   140   207    1
   198   141   142    2
   199   141   143    1
   200   143   144    1
   201   143   208    1
   202   143   209    1
   203   144   145    1
   204   145   146    1
   205   145   156    1
   206   145   210    1
   207   146   147    1
   208   146   211    1
   209   146   212    1
   210   147   148    1
   211   147   213    1
   212   147   214    1
   213   148   149    1
   214   148   215    1
   215   148   216    1
   216   149   150    1
   217   149   156    1
   218   150   151    1
   219   150   217    1
   220   150   218    1
   221   151   152    1
   222   151   219    1
   223   151   220    1
   224   152   153    1
   225   152   221    1
   226   152   222    1
   227   153   154    1
   228   153   223    1
   229   153   224    1
   230   154   155    1
   231   154   225    1
   232   154   226    1
   233   155   227    1
   234   155   228    1
   235   155   229    1
   236   156   157    2
   237   230   231    2
   238   230   232    1
   239   230   233    1
@<TRIPOS>SUBSTRUCTURE
     1 RES1      233 GROUP             0 ****  ****    0  
