@<TRIPOS>MOLECULE
YEMSEP_geometry_0_nunpairedes_0_charge_3 Charge: 3 Unpaired_Electrons: 0 XTB_Unpaired_Electrons: 0 XTB_Charge: 3
   197   200     1     0     0
SMALL
NoCharges
****
Generated from Architector

@<TRIPOS>ATOM
     1 Lu1       0.0337    0.1507    0.4255   Lu        1 RES1   0.0000
     2 C1       -3.4670   -1.2474   -4.6065   C.3       1 RES1   0.0000
     3 C2       -2.3331   -0.2732   -4.9227   C.3       1 RES1   0.0000
     4 C3       -1.5680    0.2013   -3.6832   C.3       1 RES1   0.0000
     5 C4       -1.3770   -0.8971   -5.9485   C.3       1 RES1   0.0000
     6 C5       -0.5780   -2.0992   -5.4108   C.3       1 RES1   0.0000
     7 C6        0.9202   -1.7919   -5.3869   C.3       1 RES1   0.0000
     8 C7        1.7703   -2.7970   -4.6045   C.3       1 RES1   0.0000
     9 C8        1.5851   -4.2179   -5.1424   C.3       1 RES1   0.0000
    10 C9        3.2505   -2.3753   -4.6195   C.3       1 RES1   0.0000
    11 C10       3.7172   -1.5739   -3.3994   C.3       1 RES1   0.0000
    12 C11       3.1242   -0.1686   -3.3173   C.3       1 RES1   0.0000
    13 C12       3.9563    0.8201   -2.4994   C.3       1 RES1   0.0000
    14 N1        4.1426    0.5470   -1.0641   N.am      1 RES1   0.0000
    15 C13       5.4989    0.6320   -0.5483   C.3       1 RES1   0.0000
    16 C14       3.1041    0.4809   -0.2464   C.2       1 RES1   0.0000
    17 O1        1.9201    0.3880   -0.6440   O.2       1 RES1   0.0000
    18 C15       3.3397    0.6061    1.2667   C.3       1 RES1   0.0000
    19 O2        2.0666    0.7023    1.9061   O.3       1 RES1   0.0000
    20 C16       1.8733    1.7969    2.8082   C.3       1 RES1   0.0000
    21 C17       0.4483    2.3193    2.5488   C.2       1 RES1   0.0000
    22 O3       -0.0562    1.9898    1.4473   O.2       1 RES1   0.0000
    23 N2       -0.1873    3.1063    3.3917   N.am      1 RES1   0.0000
    24 C18      -1.4944    3.6271    3.0315   C.3       1 RES1   0.0000
    25 C19       0.3081    3.5348    4.6899   C.3       1 RES1   0.0000
    26 C20       0.1719    2.4765    5.7901   C.3       1 RES1   0.0000
    27 C21      -1.2492    1.9590    6.0490   C.3       1 RES1   0.0000
    28 C22      -1.6892    0.7856    5.1623   C.3       1 RES1   0.0000
    29 C23      -1.3389   -0.6342    5.6612   C.3       1 RES1   0.0000
    30 C24      -1.9520   -0.9414    7.0257   C.3       1 RES1   0.0000
    31 C25       0.1679   -0.9670    5.5980   C.3       1 RES1   0.0000
    32 C26       0.9774   -0.6102    6.8501   C.3       1 RES1   0.0000
    33 C27       2.4619   -0.3416    6.5840   C.3       1 RES1   0.0000
    34 C28       3.3561   -1.5412    6.2295   C.3       1 RES1   0.0000
    35 C29       3.1789   -2.0363    4.7913   C.3       1 RES1   0.0000
    36 C30       3.1792   -2.6879    7.2197   C.3       1 RES1   0.0000
    37 H1       -4.0544   -0.9225   -3.7520   H         1 RES1   0.0000
    38 H2       -3.0965   -2.2486   -4.4045   H         1 RES1   0.0000
    39 H3       -4.1322   -1.2977   -5.4629   H         1 RES1   0.0000
    40 H4       -2.7842    0.6130   -5.3826   H         1 RES1   0.0000
    41 H5       -1.0092   -0.6114   -3.2257   H         1 RES1   0.0000
    42 H6       -2.2447    0.6316   -2.9452   H         1 RES1   0.0000
    43 H7       -0.8542    0.9637   -3.9946   H         1 RES1   0.0000
    44 H8       -0.6827   -0.1256   -6.2891   H         1 RES1   0.0000
    45 H9       -1.9683   -1.2025   -6.8106   H         1 RES1   0.0000
    46 H10      -0.7603   -2.9714   -6.0370   H         1 RES1   0.0000
    47 H11      -0.9152   -2.3574   -4.4009   H         1 RES1   0.0000
    48 H12       1.0685   -0.8031   -4.9486   H         1 RES1   0.0000
    49 H13       1.2787   -1.7586   -6.4158   H         1 RES1   0.0000
    50 H14       1.4340   -2.7935   -3.5589   H         1 RES1   0.0000
    51 H15       1.7567   -4.2447   -6.2150   H         1 RES1   0.0000
    52 H16       0.5760   -4.5819   -4.9534   H         1 RES1   0.0000
    53 H17       2.2855   -4.9048   -4.6705   H         1 RES1   0.0000
    54 H18       3.4458   -1.8005   -5.5232   H         1 RES1   0.0000
    55 H19       3.8659   -3.2711   -4.6832   H         1 RES1   0.0000
    56 H20       4.8028   -1.4977   -3.4552   H         1 RES1   0.0000
    57 H21       3.4738   -2.1237   -2.4887   H         1 RES1   0.0000
    58 H22       2.1052   -0.2056   -2.9319   H         1 RES1   0.0000
    59 H23       3.0974    0.2505   -4.3240   H         1 RES1   0.0000
    60 H24       3.5027    1.8143   -2.5811   H         1 RES1   0.0000
    61 H25       4.9506    0.8710   -2.9394   H         1 RES1   0.0000
    62 H26       6.2078    0.4771   -1.3589   H         1 RES1   0.0000
    63 H27       5.6841   -0.1284    0.2120   H         1 RES1   0.0000
    64 H28       5.6929    1.6215   -0.1239   H         1 RES1   0.0000
    65 H29       3.9388    1.5087    1.4344   H         1 RES1   0.0000
    66 H30       3.8811   -0.2653    1.6632   H         1 RES1   0.0000
    67 H31       2.5662    2.6196    2.5857   H         1 RES1   0.0000
    68 H32       2.0464    1.4588    3.8377   H         1 RES1   0.0000
    69 H33      -1.8493    3.1557    2.1189   H         1 RES1   0.0000
    70 H34      -1.4315    4.7033    2.8780   H         1 RES1   0.0000
    71 H35      -2.1989    3.4370    3.8356   H         1 RES1   0.0000
    72 H36      -0.2661    4.4203    4.9632   H         1 RES1   0.0000
    73 H37       1.3563    3.8238    4.5944   H         1 RES1   0.0000
    74 H38       0.5410    2.9496    6.7006   H         1 RES1   0.0000
    75 H39       0.8249    1.6388    5.5702   H         1 RES1   0.0000
    76 H40      -1.9550    2.7848    5.9463   H         1 RES1   0.0000
    77 H41      -1.3198    1.6489    7.0893   H         1 RES1   0.0000
    78 H42      -1.2748    0.9247    4.1585   H         1 RES1   0.0000
    79 H43      -2.7775    0.8291    5.0741   H         1 RES1   0.0000
    80 H44      -1.8358   -1.3171    4.9550   H         1 RES1   0.0000
    81 H45      -1.5664   -0.3012    7.8101   H         1 RES1   0.0000
    82 H46      -1.7358   -1.9682    7.3038   H         1 RES1   0.0000
    83 H47      -3.0315   -0.8205    6.9902   H         1 RES1   0.0000
    84 H48       0.6074   -0.4511    4.7352   H         1 RES1   0.0000
    85 H49       0.2671   -2.0416    5.4241   H         1 RES1   0.0000
    86 H50       0.8859   -1.4116    7.5792   H         1 RES1   0.0000
    87 H51       0.5644    0.2844    7.3134   H         1 RES1   0.0000
    88 H52       2.8695    0.1069    7.4916   H         1 RES1   0.0000
    89 H53       2.5677    0.4105    5.7917   H         1 RES1   0.0000
    90 H54       4.3857   -1.1737    6.3152   H         1 RES1   0.0000
    91 H55       2.2580   -2.6036    4.6781   H         1 RES1   0.0000
    92 H56       4.0095   -2.6889    4.5325   H         1 RES1   0.0000
    93 H57       3.1683   -1.2014    4.0886   H         1 RES1   0.0000
    94 H58       2.2164   -3.1761    7.0899   H         1 RES1   0.0000
    95 H59       3.2471   -2.3200    8.2395   H         1 RES1   0.0000
    96 H60       3.9564   -3.4326    7.0774   H         1 RES1   0.0000
    97 C31       1.5061    5.0007   -2.2949   C.3       1 RES1   0.0000
    98 C32       0.0555    5.4864   -2.3136   C.3       1 RES1   0.0000
    99 C33      -0.5197    5.4967   -0.8958   C.3       1 RES1   0.0000
   100 C34      -0.7796    4.6674   -3.3072   C.3       1 RES1   0.0000
   101 C35      -2.1894    5.2263   -3.5286   C.3       1 RES1   0.0000
   102 C36      -3.2693    4.5600   -2.6744   C.3       1 RES1   0.0000
   103 C37      -3.8593    3.2838   -3.2950   C.3       1 RES1   0.0000
   104 C38      -4.7820    3.6325   -4.4589   C.3       1 RES1   0.0000
   105 C39      -4.5767    2.5122   -2.1691   C.3       1 RES1   0.0000
   106 C40      -5.5275    1.4239   -2.6660   C.3       1 RES1   0.0000
   107 C41      -6.2135    0.5997   -1.5718   C.3       1 RES1   0.0000
   108 C42      -5.3577   -0.4980   -0.9224   C.3       1 RES1   0.0000
   109 N3       -4.2643    0.0294   -0.1218   N.am      1 RES1   0.0000
   110 C43      -4.6438    0.9809    0.9114   C.3       1 RES1   0.0000
   111 C44      -2.9900   -0.3067   -0.2040   C.2       1 RES1   0.0000
   112 O4       -2.1099    0.3308    0.4307   O.2       1 RES1   0.0000
   113 C45      -2.4942   -1.5484   -0.9549   C.3       1 RES1   0.0000
   114 O5       -1.0646   -1.4474   -1.0025   O.3       1 RES1   0.0000
   115 C46      -0.3509   -2.6401   -1.3370   C.3       1 RES1   0.0000
   116 C47       0.7065   -2.8530   -0.2486   C.2       1 RES1   0.0000
   117 O6        0.7991   -1.9621    0.6323   O.2       1 RES1   0.0000
   118 N4        1.4271   -3.9611   -0.2286   N.am      1 RES1   0.0000
   119 C48       1.6381   -4.7897   -1.4002   C.3       1 RES1   0.0000
   120 C49       2.1216   -4.3158    1.0085   C.3       1 RES1   0.0000
   121 C50       1.1390   -4.6534    2.1412   C.3       1 RES1   0.0000
   122 C51       0.6211   -6.0972    2.1967   C.3       1 RES1   0.0000
   123 C52      -0.1348   -6.6202    0.9735   C.3       1 RES1   0.0000
   124 C53      -1.3262   -5.7813    0.4981   C.3       1 RES1   0.0000
   125 C54      -1.7384   -6.2442   -0.9019   C.3       1 RES1   0.0000
   126 C55      -2.5070   -5.8783    1.4698   C.3       1 RES1   0.0000
   127 C56      -3.6263   -4.9052    1.0987   C.3       1 RES1   0.0000
   128 C57      -4.8090   -4.9142    2.0747   C.3       1 RES1   0.0000
   129 C58      -4.7788   -3.8448    3.1763   C.3       1 RES1   0.0000
   130 C59      -3.5787   -3.9904    4.1092   C.3       1 RES1   0.0000
   131 C60      -4.8474   -2.4262    2.6044   C.3       1 RES1   0.0000
   132 H61       2.1049    5.6354   -1.6451   H         1 RES1   0.0000
   133 H62       1.5724    3.9721   -1.9316   H         1 RES1   0.0000
   134 H63       1.9355    5.0511   -3.2926   H         1 RES1   0.0000
   135 H64       0.0560    6.5172   -2.6789   H         1 RES1   0.0000
   136 H65      -0.6938    4.4817   -0.5227   H         1 RES1   0.0000
   137 H66       0.1787    5.9907   -0.2220   H         1 RES1   0.0000
   138 H67      -1.4570    6.0453   -0.8611   H         1 RES1   0.0000
   139 H68      -0.2426    4.6613   -4.2580   H         1 RES1   0.0000
   140 H69      -0.8562    3.6277   -2.9768   H         1 RES1   0.0000
   141 H70      -2.1734    6.2967   -3.3300   H         1 RES1   0.0000
   142 H71      -2.4592    5.1083   -4.5754   H         1 RES1   0.0000
   143 H72      -2.8652    4.3226   -1.6877   H         1 RES1   0.0000
   144 H73      -4.0854    5.2669   -2.5252   H         1 RES1   0.0000
   145 H74      -3.0419    2.6640   -3.6821   H         1 RES1   0.0000
   146 H75      -5.6699    4.1449   -4.1004   H         1 RES1   0.0000
   147 H76      -4.2758    4.2903   -5.1599   H         1 RES1   0.0000
   148 H77      -5.0832    2.7427   -5.0032   H         1 RES1   0.0000
   149 H78      -3.8030    2.0869   -1.5204   H         1 RES1   0.0000
   150 H79      -5.1592    3.2277   -1.5814   H         1 RES1   0.0000
   151 H80      -6.3197    1.9129   -3.2312   H         1 RES1   0.0000
   152 H81      -5.0082    0.7605   -3.3553   H         1 RES1   0.0000
   153 H82      -6.6153    1.2666   -0.8110   H         1 RES1   0.0000
   154 H83      -7.0651    0.0910   -2.0267   H         1 RES1   0.0000
   155 H84      -6.0015   -1.0987   -0.2734   H         1 RES1   0.0000
   156 H85      -4.9531   -1.1484   -1.6946   H         1 RES1   0.0000
   157 H86      -5.4727    0.5694    1.4840   H         1 RES1   0.0000
   158 H87      -3.7856    1.1379    1.5602   H         1 RES1   0.0000
   159 H88      -4.9504    1.9390    0.5008   H         1 RES1   0.0000
   160 H89      -2.8093   -2.4214   -0.3575   H         1 RES1   0.0000
   161 H90      -2.8915   -1.6418   -1.9716   H         1 RES1   0.0000
   162 H91      -1.0165   -3.5099   -1.3772   H         1 RES1   0.0000
   163 H92       0.1398   -2.5106   -2.3111   H         1 RES1   0.0000
   164 H93       0.7182   -4.9567   -1.9553   H         1 RES1   0.0000
   165 H94       2.3777   -4.3212   -2.0539   H         1 RES1   0.0000
   166 H95       2.0367   -5.7536   -1.0944   H         1 RES1   0.0000
   167 H96       2.7536   -5.1772    0.8138   H         1 RES1   0.0000
   168 H97       2.7552   -3.4776    1.3134   H         1 RES1   0.0000
   169 H98       1.6646   -4.4665    3.0791   H         1 RES1   0.0000
   170 H99       0.2967   -3.9623    2.0905   H         1 RES1   0.0000
   171 H100      1.4677   -6.7622    2.3760   H         1 RES1   0.0000
   172 H101     -0.0229   -6.1677    3.0747   H         1 RES1   0.0000
   173 H102      0.5658   -6.7345    0.1494   H         1 RES1   0.0000
   174 H103     -0.4938   -7.6220    1.2080   H         1 RES1   0.0000
   175 H104     -1.0168   -4.7285    0.4579   H         1 RES1   0.0000
   176 H105     -2.2419   -7.2032   -0.8332   H         1 RES1   0.0000
   177 H106     -2.4218   -5.5460   -1.3805   H         1 RES1   0.0000
   178 H107     -0.8767   -6.3729   -1.5524   H         1 RES1   0.0000
   179 H108     -2.9021   -6.8941    1.4571   H         1 RES1   0.0000
   180 H109     -2.1605   -5.6736    2.4820   H         1 RES1   0.0000
   181 H110     -3.2111   -3.8919    1.0328   H         1 RES1   0.0000
   182 H111     -3.9989   -5.1737    0.1088   H         1 RES1   0.0000
   183 H112     -5.7344   -4.7827    1.5101   H         1 RES1   0.0000
   184 H113     -4.8691   -5.8961    2.5449   H         1 RES1   0.0000
   185 H114     -5.6839   -3.9983    3.7729   H         1 RES1   0.0000
   186 H115     -2.6510   -3.7174    3.6055   H         1 RES1   0.0000
   187 H116     -3.7050   -3.3541    4.9819   H         1 RES1   0.0000
   188 H117     -3.4962   -5.0162    4.4560   H         1 RES1   0.0000
   189 H118     -3.9417   -2.1687    2.0506   H         1 RES1   0.0000
   190 H119     -5.7009   -2.3342    1.9364   H         1 RES1   0.0000
   191 H120     -4.9638   -1.7100    3.4139   H         1 RES1   0.0000
   192 O7       -0.3346    1.7479   -1.3330   O.3       1 RES1   0.0000
   193 H121     -0.4902    2.6951   -1.1494   H         1 RES1   0.0000
   194 H122     -0.0523    1.7211   -2.2604   H         1 RES1   0.0000
   195 O8       -0.6915   -0.8150    2.5169   O.3       1 RES1   0.0000
   196 H123     -1.5321   -0.8473    3.0016   H         1 RES1   0.0000
   197 H124     -0.0762   -1.3393    3.0582   H         1 RES1   0.0000
@<TRIPOS>BOND
     1     1    17    1
     2     1    19    1
     3     1    22    1
     4     1   112    1
     5     1   114    1
     6     1   117    1
     7     1   192    1
     8     1   195    1
     9     2     3    1
    10     2    37    1
    11     2    38    1
    12     2    39    1
    13     3     4    1
    14     3     5    1
    15     3    40    1
    16     4    41    1
    17     4    42    1
    18     4    43    1
    19     5     6    1
    20     5    44    1
    21     5    45    1
    22     6     7    1
    23     6    46    1
    24     6    47    1
    25     7     8    1
    26     7    48    1
    27     7    49    1
    28     8     9    1
    29     8    10    1
    30     8    50    1
    31     9    51    1
    32     9    52    1
    33     9    53    1
    34    10    11    1
    35    10    54    1
    36    10    55    1
    37    11    12    1
    38    11    56    1
    39    11    57    1
    40    12    13    1
    41    12    58    1
    42    12    59    1
    43    13    14    1
    44    13    60    1
    45    13    61    1
    46    14    15    1
    47    14    16    1
    48    15    62    1
    49    15    63    1
    50    15    64    1
    51    16    17    2
    52    16    18    1
    53    18    19    1
    54    18    65    1
    55    18    66    1
    56    19    20    1
    57    20    21    1
    58    20    67    1
    59    20    68    1
    60    21    22    2
    61    21    23    1
    62    23    24    1
    63    23    25    1
    64    24    69    1
    65    24    70    1
    66    24    71    1
    67    25    26    1
    68    25    72    1
    69    25    73    1
    70    26    27    1
    71    26    74    1
    72    26    75    1
    73    27    28    1
    74    27    76    1
    75    27    77    1
    76    28    29    1
    77    28    78    1
    78    28    79    1
    79    29    30    1
    80    29    31    1
    81    29    80    1
    82    30    81    1
    83    30    82    1
    84    30    83    1
    85    31    32    1
    86    31    84    1
    87    31    85    1
    88    32    33    1
    89    32    86    1
    90    32    87    1
    91    33    34    1
    92    33    88    1
    93    33    89    1
    94    34    35    1
    95    34    36    1
    96    34    90    1
    97    35    91    1
    98    35    92    1
    99    35    93    1
   100    36    94    1
   101    36    95    1
   102    36    96    1
   103    97    98    1
   104    97   132    1
   105    97   133    1
   106    97   134    1
   107    98    99    1
   108    98   100    1
   109    98   135    1
   110    99   136    1
   111    99   137    1
   112    99   138    1
   113   100   101    1
   114   100   139    1
   115   100   140    1
   116   101   102    1
   117   101   141    1
   118   101   142    1
   119   102   103    1
   120   102   143    1
   121   102   144    1
   122   103   104    1
   123   103   105    1
   124   103   145    1
   125   104   146    1
   126   104   147    1
   127   104   148    1
   128   105   106    1
   129   105   149    1
   130   105   150    1
   131   106   107    1
   132   106   151    1
   133   106   152    1
   134   107   108    1
   135   107   153    1
   136   107   154    1
   137   108   109    1
   138   108   155    1
   139   108   156    1
   140   109   110    1
   141   109   111    1
   142   110   157    1
   143   110   158    1
   144   110   159    1
   145   111   112    2
   146   111   113    1
   147   113   114    1
   148   113   160    1
   149   113   161    1
   150   114   115    1
   151   115   116    1
   152   115   162    1
   153   115   163    1
   154   116   117    2
   155   116   118    1
   156   118   119    1
   157   118   120    1
   158   119   164    1
   159   119   165    1
   160   119   166    1
   161   120   121    1
   162   120   167    1
   163   120   168    1
   164   121   122    1
   165   121   169    1
   166   121   170    1
   167   122   123    1
   168   122   171    1
   169   122   172    1
   170   123   124    1
   171   123   173    1
   172   123   174    1
   173   124   125    1
   174   124   126    1
   175   124   175    1
   176   125   176    1
   177   125   177    1
   178   125   178    1
   179   126   127    1
   180   126   179    1
   181   126   180    1
   182   127   128    1
   183   127   181    1
   184   127   182    1
   185   128   129    1
   186   128   183    1
   187   128   184    1
   188   129   130    1
   189   129   131    1
   190   129   185    1
   191   130   186    1
   192   130   187    1
   193   130   188    1
   194   131   189    1
   195   131   190    1
   196   131   191    1
   197   192   193    1
   198   192   194    1
   199   195   196    1
   200   195   197    1
@<TRIPOS>SUBSTRUCTURE
     1 RES1      197 GROUP             0 ****  ****    0  
