@<TRIPOS>MOLECULE
dodecahedral_0_nunpairedes_0_charge_3 Charge: 3 Unpaired_Electrons: 0 XTB_Unpaired_Electrons: 0 XTB_Charge: 3
   281   284     1     0     0
SMALL
NoCharges
****
Generated from Architector

@<TRIPOS>ATOM
     1 Lu1      -0.0603    0.1641   -0.2011   Lu        1 RES1   0.0000
     2 C1       -4.2077    0.8622   -9.1703   C.3       1 RES1   0.0000
     3 C2       -3.7208    2.1671   -8.5527   C.3       1 RES1   0.0000
     4 C3       -2.3131    2.5314   -9.0174   C.3       1 RES1   0.0000
     5 C4       -1.7956    3.7947   -8.3367   C.3       1 RES1   0.0000
     6 C5       -0.3701    4.1329   -8.7725   C.3       1 RES1   0.0000
     7 C6        0.2295    5.3251   -8.0210   C.3       1 RES1   0.0000
     8 C7        0.4338    5.0103   -6.5429   C.3       1 RES1   0.0000
     9 C8        1.1564    6.0942   -5.7482   C.3       1 RES1   0.0000
    10 C9        1.0352    5.8335   -4.2419   C.3       1 RES1   0.0000
    11 C10      -0.2794    6.3809   -3.6871   C.3       1 RES1   0.0000
    12 C11      -0.5108    6.0238   -2.2138   C.3       1 RES1   0.0000
    13 C12      -1.5895    4.9627   -1.9645   C.3       1 RES1   0.0000
    14 N1       -1.3121    3.5757   -2.3685   N.am      1 RES1   0.0000
    15 C13      -2.1279    3.1096   -3.5062   C.3       1 RES1   0.0000
    16 C14      -1.7371    1.8244   -4.2467   C.3       1 RES1   0.0000
    17 C15      -0.3346    1.8494   -4.8557   C.3       1 RES1   0.0000
    18 C16      -0.1090    0.7548   -5.9077   C.3       1 RES1   0.0000
    19 C17       0.2793   -0.6128   -5.3420   C.3       1 RES1   0.0000
    20 C18       0.5719   -1.6356   -6.4468   C.3       1 RES1   0.0000
    21 C19       0.8565   -3.0481   -5.9238   C.3       1 RES1   0.0000
    22 C20      -0.4100   -3.8379   -5.6161   C.3       1 RES1   0.0000
    23 C21      -0.5880    2.7681   -1.6241   C.2       1 RES1   0.0000
    24 O1       -0.5601    1.5180   -1.7565   O.2       1 RES1   0.0000
    25 C22       0.3588    3.3645   -0.5721   C.3       1 RES1   0.0000
    26 O2        0.4808    2.4382    0.5131   O.3       1 RES1   0.0000
    27 C23       1.7379    2.4789    1.1761   C.3       1 RES1   0.0000
    28 C24       2.6576    1.4410    0.5546   C.2       1 RES1   0.0000
    29 O3        2.1632    0.7129   -0.3410   O.2       1 RES1   0.0000
    30 N2        3.9223    1.3810    0.9361   N.am      1 RES1   0.0000
    31 C25       4.8352    0.6317    0.0776   C.3       1 RES1   0.0000
    32 C26       4.6060   -0.8797    0.1812   C.3       1 RES1   0.0000
    33 C27       4.6539   -1.5548   -1.1908   C.3       1 RES1   0.0000
    34 C28       3.9314   -2.9017   -1.1788   C.3       1 RES1   0.0000
    35 C29       4.6648   -3.9881   -0.3804   C.3       1 RES1   0.0000
    36 C30       3.7277   -5.0085    0.2683   C.3       1 RES1   0.0000
    37 C31       2.8190   -5.7442   -0.7145   C.3       1 RES1   0.0000
    38 C32       1.8471   -6.6644    0.0137   C.3       1 RES1   0.0000
    39 C33       4.3746    1.7834    2.2660   C.3       1 RES1   0.0000
    40 C34       4.7467    3.2510    2.4790   C.3       1 RES1   0.0000
    41 C35       5.2299    3.4494    3.9225   C.3       1 RES1   0.0000
    42 C36       4.1858    3.0388    4.9706   C.3       1 RES1   0.0000
    43 C37       4.3060    3.8509    6.2627   C.3       1 RES1   0.0000
    44 C38       3.1849    3.5764    7.2705   C.3       1 RES1   0.0000
    45 C39       3.3442    2.2476    8.0138   C.3       1 RES1   0.0000
    46 C40       2.0072    1.6789    8.4846   C.3       1 RES1   0.0000
    47 C41       2.1243    0.2853    9.1067   C.3       1 RES1   0.0000
    48 C42       2.6748   -0.7634    8.1367   C.3       1 RES1   0.0000
    49 C43       2.3441   -2.1998    8.5475   C.3       1 RES1   0.0000
    50 C44       2.9677   -2.5987    9.8789   C.3       1 RES1   0.0000
    51 H1       -5.2128    0.6279   -8.8282   H         1 RES1   0.0000
    52 H2       -3.5491    0.0377   -8.9024   H         1 RES1   0.0000
    53 H3       -4.2283    0.9401  -10.2535   H         1 RES1   0.0000
    54 H4       -3.7311    2.0802   -7.4599   H         1 RES1   0.0000
    55 H5       -4.4083    2.9702   -8.8233   H         1 RES1   0.0000
    56 H6       -2.3189    2.6767  -10.0971   H         1 RES1   0.0000
    57 H7       -1.6332    1.7027   -8.8018   H         1 RES1   0.0000
    58 H8       -1.8328    3.6433   -7.2540   H         1 RES1   0.0000
    59 H9       -2.4531    4.6323   -8.5756   H         1 RES1   0.0000
    60 H10      -0.3761    4.3555   -9.8402   H         1 RES1   0.0000
    61 H11       0.2698    3.2576   -8.6244   H         1 RES1   0.0000
    62 H12      -0.4290    6.1882   -8.1256   H         1 RES1   0.0000
    63 H13       1.1915    5.5810   -8.4670   H         1 RES1   0.0000
    64 H14       1.0092    4.0828   -6.4726   H         1 RES1   0.0000
    65 H15      -0.5455    4.8492   -6.0882   H         1 RES1   0.0000
    66 H16       0.7259    7.0701   -5.9756   H         1 RES1   0.0000
    67 H17       2.2062    6.1212   -6.0425   H         1 RES1   0.0000
    68 H18       1.8635    6.3127   -3.7188   H         1 RES1   0.0000
    69 H19       1.1060    4.7571   -4.0533   H         1 RES1   0.0000
    70 H20      -1.1117    6.0270   -4.2925   H         1 RES1   0.0000
    71 H21      -0.2625    7.4642   -3.7956   H         1 RES1   0.0000
    72 H22      -0.8546    6.9138   -1.6847   H         1 RES1   0.0000
    73 H23       0.4409    5.7339   -1.7715   H         1 RES1   0.0000
    74 H24      -2.4815    5.2773   -2.5048   H         1 RES1   0.0000
    75 H25      -1.8447    4.9583   -0.9008   H         1 RES1   0.0000
    76 H26      -2.1206    3.9311   -4.2291   H         1 RES1   0.0000
    77 H27      -3.1566    2.9951   -3.1423   H         1 RES1   0.0000
    78 H28      -2.4585    1.7437   -5.0635   H         1 RES1   0.0000
    79 H29      -1.8647    0.9534   -3.6059   H         1 RES1   0.0000
    80 H30       0.4226    1.7715   -4.0690   H         1 RES1   0.0000
    81 H31      -0.2006    2.8082   -5.3521   H         1 RES1   0.0000
    82 H32       0.6937    1.0756   -6.5728   H         1 RES1   0.0000
    83 H33      -1.0078    0.6559   -6.5164   H         1 RES1   0.0000
    84 H34      -0.5172   -0.9877   -4.6918   H         1 RES1   0.0000
    85 H35       1.2017   -0.4839   -4.7593   H         1 RES1   0.0000
    86 H36       1.4371   -1.2853   -7.0112   H         1 RES1   0.0000
    87 H37      -0.2705   -1.6802   -7.1366   H         1 RES1   0.0000
    88 H38       1.4884   -2.9930   -5.0332   H         1 RES1   0.0000
    89 H39       1.4187   -3.5944   -6.6803   H         1 RES1   0.0000
    90 H40      -1.0591   -3.2953   -4.9319   H         1 RES1   0.0000
    91 H41      -0.1649   -4.7997   -5.1729   H         1 RES1   0.0000
    92 H42      -0.9620   -4.0246   -6.5319   H         1 RES1   0.0000
    93 H43       0.0270    4.3261   -0.1696   H         1 RES1   0.0000
    94 H44       1.3202    3.4823   -1.0862   H         1 RES1   0.0000
    95 H45       1.5427    2.2485    2.2285   H         1 RES1   0.0000
    96 H46       2.1875    3.4748    1.1199   H         1 RES1   0.0000
    97 H47       5.8560    0.9148    0.3340   H         1 RES1   0.0000
    98 H48       4.6475    0.9626   -0.9468   H         1 RES1   0.0000
    99 H49       3.6112   -1.0313    0.6074   H         1 RES1   0.0000
   100 H50       5.3359   -1.3250    0.8553   H         1 RES1   0.0000
   101 H51       5.6872   -1.6875   -1.5111   H         1 RES1   0.0000
   102 H52       4.1560   -0.9021   -1.9146   H         1 RES1   0.0000
   103 H53       3.8126   -3.2531   -2.2046   H         1 RES1   0.0000
   104 H54       2.9307   -2.7386   -0.7556   H         1 RES1   0.0000
   105 H55       5.2548   -3.5275    0.4126   H         1 RES1   0.0000
   106 H56       5.3621   -4.5043   -1.0395   H         1 RES1   0.0000
   107 H57       3.1112   -4.4951    1.0147   H         1 RES1   0.0000
   108 H58       4.3363   -5.7419    0.7991   H         1 RES1   0.0000
   109 H59       3.4283   -6.3321   -1.4001   H         1 RES1   0.0000
   110 H60       2.2596   -5.0220   -1.3180   H         1 RES1   0.0000
   111 H61       2.3900   -7.4285    0.5606   H         1 RES1   0.0000
   112 H62       1.1867   -7.1598   -0.6918   H         1 RES1   0.0000
   113 H63       1.2404   -6.1061    0.7268   H         1 RES1   0.0000
   114 H64       5.2573    1.1808    2.4887   H         1 RES1   0.0000
   115 H65       3.6026    1.5079    2.9872   H         1 RES1   0.0000
   116 H66       3.8854    3.8992    2.3161   H         1 RES1   0.0000
   117 H67       5.5321    3.5446    1.7814   H         1 RES1   0.0000
   118 H68       5.4684    4.5049    4.0585   H         1 RES1   0.0000
   119 H69       6.1504    2.8876    4.0719   H         1 RES1   0.0000
   120 H70       4.2810    1.9756    5.2033   H         1 RES1   0.0000
   121 H71       3.1892    3.2009    4.5501   H         1 RES1   0.0000
   122 H72       4.2842    4.9076    5.9987   H         1 RES1   0.0000
   123 H73       5.2683    3.6455    6.7312   H         1 RES1   0.0000
   124 H74       2.2219    3.5969    6.7533   H         1 RES1   0.0000
   125 H75       3.1542    4.3915    7.9922   H         1 RES1   0.0000
   126 H76       3.9977    2.3882    8.8756   H         1 RES1   0.0000
   127 H77       3.8283    1.5215    7.3585   H         1 RES1   0.0000
   128 H78       1.3138    1.6286    7.6386   H         1 RES1   0.0000
   129 H79       1.5667    2.3551    9.2164   H         1 RES1   0.0000
   130 H80       1.1296   -0.0292    9.4306   H         1 RES1   0.0000
   131 H81       2.7623    0.3328    9.9875   H         1 RES1   0.0000
   132 H82       3.7588   -0.6602    8.0546   H         1 RES1   0.0000
   133 H83       2.2438   -0.5792    7.1460   H         1 RES1   0.0000
   134 H84       2.7154   -2.8812    7.7767   H         1 RES1   0.0000
   135 H85       1.2594   -2.3194    8.6092   H         1 RES1   0.0000
   136 H86       4.0454   -2.4509    9.8499   H         1 RES1   0.0000
   137 H87       2.7682   -3.6484   10.0815   H         1 RES1   0.0000
   138 H88       2.5564   -2.0099   10.6935   H         1 RES1   0.0000
   139 C45      -8.5236    0.0762   -4.7766   C.3       1 RES1   0.0000
   140 C46      -8.0128   -1.2569   -4.2447   C.3       1 RES1   0.0000
   141 C47      -8.5366   -1.5509   -2.8400   C.3       1 RES1   0.0000
   142 C48      -7.9513   -2.8423   -2.2748   C.3       1 RES1   0.0000
   143 C49      -8.3572   -3.0770   -0.8199   C.3       1 RES1   0.0000
   144 C50      -7.6980   -4.3122   -0.1983   C.3       1 RES1   0.0000
   145 C51      -6.1850   -4.1502   -0.0779   C.3       1 RES1   0.0000
   146 C52      -5.4739   -5.2907    0.6455   C.3       1 RES1   0.0000
   147 C53      -3.9537   -5.1951    0.4627   C.3       1 RES1   0.0000
   148 C54      -3.5030   -5.8214   -0.8573   C.3       1 RES1   0.0000
   149 C55      -2.0113   -5.6239   -1.1554   C.3       1 RES1   0.0000
   150 C56      -1.6992   -4.4485   -2.0877   C.3       1 RES1   0.0000
   151 N3       -2.0330   -3.0991   -1.6133   N.am      1 RES1   0.0000
   152 C57      -3.0945   -2.4636   -2.4218   C.3       1 RES1   0.0000
   153 C58      -3.6159   -1.0508   -2.1162   C.3       1 RES1   0.0000
   154 C59      -4.5921   -0.9703   -0.9368   C.3       1 RES1   0.0000
   155 C60      -5.5422    0.2357   -0.9863   C.3       1 RES1   0.0000
   156 C61      -4.9867    1.5496   -0.4399   C.3       1 RES1   0.0000
   157 C62      -6.0551    2.6493   -0.4233   C.3       1 RES1   0.0000
   158 C63      -5.5101    4.0206    0.0071   C.3       1 RES1   0.0000
   159 C64      -5.3107    4.9556   -1.1796   C.3       1 RES1   0.0000
   160 C65      -1.3397   -2.4635   -0.6951   C.2       1 RES1   0.0000
   161 O4       -1.5590   -1.2728   -0.3585   O.2       1 RES1   0.0000
   162 C66      -0.2007   -3.1532    0.0791   C.3       1 RES1   0.0000
   163 O5        0.7260   -2.1291    0.4773   O.3       1 RES1   0.0000
   164 C67       1.2471   -2.1970    1.8032   C.3       1 RES1   0.0000
   165 C68       0.8401   -0.9279    2.5655   C.2       1 RES1   0.0000
   166 O6       -0.0006   -0.1737    2.0249   O.2       1 RES1   0.0000
   167 N4        1.2746   -0.7382    3.8058   N.am      1 RES1   0.0000
   168 C69       0.4124    0.0158    4.7157   C.3       1 RES1   0.0000
   169 C70       0.7149    1.5180    4.7500   C.3       1 RES1   0.0000
   170 C71      -0.5455    2.3978    4.8101   C.3       1 RES1   0.0000
   171 C72      -0.4864    3.6028    3.8621   C.3       1 RES1   0.0000
   172 C73       0.4677    4.6965    4.3556   C.3       1 RES1   0.0000
   173 C74       0.9822    5.6404    3.2679   C.3       1 RES1   0.0000
   174 C75      -0.1004    6.4572    2.5637   C.3       1 RES1   0.0000
   175 C76       0.4885    7.3047    1.4407   C.3       1 RES1   0.0000
   176 C77       2.6323   -1.0693    4.2331   C.3       1 RES1   0.0000
   177 C78       2.8677   -2.4971    4.7135   C.3       1 RES1   0.0000
   178 C79       4.3697   -2.7532    4.9133   C.3       1 RES1   0.0000
   179 C80       5.2364   -2.4211    3.6915   C.3       1 RES1   0.0000
   180 C81       6.6264   -3.0541    3.7765   C.3       1 RES1   0.0000
   181 C82       7.5456   -2.6546    2.6163   C.3       1 RES1   0.0000
   182 C83       8.1459   -1.2493    2.7501   C.3       1 RES1   0.0000
   183 C84       8.4753   -0.6386    1.3889   C.3       1 RES1   0.0000
   184 C85       9.1517    0.7326    1.4717   C.3       1 RES1   0.0000
   185 C86       8.3349    1.7729    2.2388   C.3       1 RES1   0.0000
   186 C87       8.7394    3.2150    1.9288   C.3       1 RES1   0.0000
   187 C88      10.1700    3.5311    2.3425   C.3       1 RES1   0.0000
   188 H89      -8.1430    0.2618   -5.7777   H         1 RES1   0.0000
   189 H90      -8.2125    0.8949   -4.1301   H         1 RES1   0.0000
   190 H91      -9.6085    0.0750   -4.8211   H         1 RES1   0.0000
   191 H92      -6.9167   -1.2475   -4.2285   H         1 RES1   0.0000
   192 H93      -8.3229   -2.0561   -4.9201   H         1 RES1   0.0000
   193 H94      -9.6235   -1.6224   -2.8693   H         1 RES1   0.0000
   194 H95      -8.2805   -0.7180   -2.1797   H         1 RES1   0.0000
   195 H96      -6.8622   -2.7855   -2.3577   H         1 RES1   0.0000
   196 H97      -8.2824   -3.6879   -2.8798   H         1 RES1   0.0000
   197 H98      -9.4404   -3.1951   -0.7760   H         1 RES1   0.0000
   198 H99      -8.1021   -2.1957   -0.2235   H         1 RES1   0.0000
   199 H100     -7.9275   -5.1872   -0.8069   H         1 RES1   0.0000
   200 H101     -8.1178   -4.4770    0.7948   H         1 RES1   0.0000
   201 H102     -5.9865   -3.2189    0.4597   H         1 RES1   0.0000
   202 H103     -5.7640   -4.0724   -1.0819   H         1 RES1   0.0000
   203 H104     -5.8207   -6.2472    0.2539   H         1 RES1   0.0000
   204 H105     -5.7241   -5.2581    1.7066   H         1 RES1   0.0000
   205 H106     -3.4573   -5.7214    1.2790   H         1 RES1   0.0000
   206 H107     -3.6479   -4.1447    0.5073   H         1 RES1   0.0000
   207 H108     -4.0972   -5.4274   -1.6818   H         1 RES1   0.0000
   208 H109     -3.7168   -6.8888   -0.8040   H         1 RES1   0.0000
   209 H110     -1.6389   -6.5105   -1.6721   H         1 RES1   0.0000
   210 H111     -1.4577   -5.5451   -0.2211   H         1 RES1   0.0000
   211 H112     -2.2651   -4.6122   -3.0048   H         1 RES1   0.0000
   212 H113     -0.6384   -4.4769   -2.3519   H         1 RES1   0.0000
   213 H114     -3.9482   -3.1486   -2.3959   H         1 RES1   0.0000
   214 H115     -2.7086   -2.4549   -3.4485   H         1 RES1   0.0000
   215 H116     -4.1686   -0.7683   -3.0162   H         1 RES1   0.0000
   216 H117     -2.7919   -0.3421   -1.9956   H         1 RES1   0.0000
   217 H118     -4.0449   -0.9929    0.0097   H         1 RES1   0.0000
   218 H119     -5.2233   -1.8568   -0.9685   H         1 RES1   0.0000
   219 H120     -6.4281   -0.0091   -0.3979   H         1 RES1   0.0000
   220 H121     -5.8781    0.3785   -2.0138   H         1 RES1   0.0000
   221 H122     -4.1240    1.8793   -1.0272   H         1 RES1   0.0000
   222 H123     -4.6797    1.3857    0.6002   H         1 RES1   0.0000
   223 H124     -6.8496    2.3390    0.2549   H         1 RES1   0.0000
   224 H125     -6.4965    2.7397   -1.4157   H         1 RES1   0.0000
   225 H126     -4.5649    3.8961    0.5424   H         1 RES1   0.0000
   226 H127     -6.2068    4.4925    0.6980   H         1 RES1   0.0000
   227 H128     -4.7065    4.4819   -1.9513   H         1 RES1   0.0000
   228 H129     -4.8262    5.8794   -0.8727   H         1 RES1   0.0000
   229 H130     -6.2713    5.2103   -1.6178   H         1 RES1   0.0000
   230 H131      0.3408   -3.9072   -0.5022   H         1 RES1   0.0000
   231 H132     -0.6505   -3.6440    0.9488   H         1 RES1   0.0000
   232 H133      2.3345   -2.3431    1.7529   H         1 RES1   0.0000
   233 H134      0.7996   -3.0260    2.3659   H         1 RES1   0.0000
   234 H135      0.5200   -0.4342    5.7037   H         1 RES1   0.0000
   235 H136     -0.6099   -0.1546    4.3743   H         1 RES1   0.0000
   236 H137      1.2724    1.7514    3.8424   H         1 RES1   0.0000
   237 H138      1.3805    1.7388    5.5819   H         1 RES1   0.0000
   238 H139     -0.7043    2.7646    5.8244   H         1 RES1   0.0000
   239 H140     -1.4179    1.7936    4.5516   H         1 RES1   0.0000
   240 H141     -1.4877    4.0271    3.7885   H         1 RES1   0.0000
   241 H142     -0.2127    3.2579    2.8599   H         1 RES1   0.0000
   242 H143      1.3341    4.2326    4.8328   H         1 RES1   0.0000
   243 H144     -0.0512    5.2762    5.1176   H         1 RES1   0.0000
   244 H145      1.5360    5.0562    2.5250   H         1 RES1   0.0000
   245 H146      1.6900    6.3325    3.7261   H         1 RES1   0.0000
   246 H147     -0.5861    7.1100    3.2884   H         1 RES1   0.0000
   247 H148     -0.8664    5.7940    2.1534   H         1 RES1   0.0000
   248 H149      1.2372    7.9872    1.8335   H         1 RES1   0.0000
   249 H150     -0.2876    7.8945    0.9590   H         1 RES1   0.0000
   250 H151      0.9634    6.6752    0.6862   H         1 RES1   0.0000
   251 H152      2.8903   -0.3844    5.0438   H         1 RES1   0.0000
   252 H153      3.2977   -0.8565    3.3931   H         1 RES1   0.0000
   253 H154      2.4677   -3.2128    3.9975   H         1 RES1   0.0000
   254 H155      2.3487   -2.6496    5.6587   H         1 RES1   0.0000
   255 H156      4.5004   -3.8067    5.1633   H         1 RES1   0.0000
   256 H157      4.7192   -2.1748    5.7687   H         1 RES1   0.0000
   257 H158      5.3574   -1.3401    3.6030   H         1 RES1   0.0000
   258 H159      4.7386   -2.7820    2.7856   H         1 RES1   0.0000
   259 H160      6.5116   -4.1362    3.7774   H         1 RES1   0.0000
   260 H161      7.0931   -2.7741    4.7183   H         1 RES1   0.0000
   261 H162      6.9872   -2.7289    1.6780   H         1 RES1   0.0000
   262 H163      8.3568   -3.3783    2.5428   H         1 RES1   0.0000
   263 H164      9.0563   -1.2992    3.3480   H         1 RES1   0.0000
   264 H165      7.4474   -0.5955    3.2765   H         1 RES1   0.0000
   265 H166      7.5508   -0.5550    0.8053   H         1 RES1   0.0000
   266 H167      9.1358   -1.3168    0.8469   H         1 RES1   0.0000
   267 H168      9.3152    1.0922    0.4542   H         1 RES1   0.0000
   268 H169     10.1258    0.6209    1.9440   H         1 RES1   0.0000
   269 H170      8.4400    1.6000    3.3115   H         1 RES1   0.0000
   270 H171      7.2776    1.6509    1.9801   H         1 RES1   0.0000
   271 H172      8.0627    3.8880    2.4621   H         1 RES1   0.0000
   272 H173      8.6244    3.4027    0.8584   H         1 RES1   0.0000
   273 H174     10.3112    3.3287    3.4015   H         1 RES1   0.0000
   274 H175     10.3892    4.5796    2.1618   H         1 RES1   0.0000
   275 H176     10.8786    2.9351    1.7758   H         1 RES1   0.0000
   276 O7       -1.9829    1.3875    0.6805   O.3       1 RES1   0.0000
   277 H177     -2.8895    1.0505    0.5560   H         1 RES1   0.0000
   278 H178     -2.0077    1.9346    1.4787   H         1 RES1   0.0000
   279 O8        0.8118   -1.1206   -2.1179   O.3       1 RES1   0.0000
   280 H179      1.5872   -1.7012   -2.0845   H         1 RES1   0.0000
   281 H180      0.7839   -0.7856   -3.0376   H         1 RES1   0.0000
@<TRIPOS>BOND
     1     1    24    1
     2     1    26    1
     3     1    29    1
     4     1   161    1
     5     1   163    1
     6     1   166    1
     7     1   276    1
     8     1   279    1
     9     2     3    1
    10     2    51    1
    11     2    52    1
    12     2    53    1
    13     3     4    1
    14     3    54    1
    15     3    55    1
    16     4     5    1
    17     4    56    1
    18     4    57    1
    19     5     6    1
    20     5    58    1
    21     5    59    1
    22     6     7    1
    23     6    60    1
    24     6    61    1
    25     7     8    1
    26     7    62    1
    27     7    63    1
    28     8     9    1
    29     8    64    1
    30     8    65    1
    31     9    10    1
    32     9    66    1
    33     9    67    1
    34    10    11    1
    35    10    68    1
    36    10    69    1
    37    11    12    1
    38    11    70    1
    39    11    71    1
    40    12    13    1
    41    12    72    1
    42    12    73    1
    43    13    14    1
    44    13    74    1
    45    13    75    1
    46    14    15    1
    47    14    23    1
    48    15    16    1
    49    15    76    1
    50    15    77    1
    51    16    17    1
    52    16    78    1
    53    16    79    1
    54    17    18    1
    55    17    80    1
    56    17    81    1
    57    18    19    1
    58    18    82    1
    59    18    83    1
    60    19    20    1
    61    19    84    1
    62    19    85    1
    63    20    21    1
    64    20    86    1
    65    20    87    1
    66    21    22    1
    67    21    88    1
    68    21    89    1
    69    22    90    1
    70    22    91    1
    71    22    92    1
    72    23    24    2
    73    23    25    1
    74    25    26    1
    75    25    93    1
    76    25    94    1
    77    26    27    1
    78    27    28    1
    79    27    95    1
    80    27    96    1
    81    28    29    2
    82    28    30    1
    83    30    31    1
    84    30    39    1
    85    31    32    1
    86    31    97    1
    87    31    98    1
    88    32    33    1
    89    32    99    1
    90    32   100    1
    91    33    34    1
    92    33   101    1
    93    33   102    1
    94    34    35    1
    95    34   103    1
    96    34   104    1
    97    35    36    1
    98    35   105    1
    99    35   106    1
   100    36    37    1
   101    36   107    1
   102    36   108    1
   103    37    38    1
   104    37   109    1
   105    37   110    1
   106    38   111    1
   107    38   112    1
   108    38   113    1
   109    39    40    1
   110    39   114    1
   111    39   115    1
   112    40    41    1
   113    40   116    1
   114    40   117    1
   115    41    42    1
   116    41   118    1
   117    41   119    1
   118    42    43    1
   119    42   120    1
   120    42   121    1
   121    43    44    1
   122    43   122    1
   123    43   123    1
   124    44    45    1
   125    44   124    1
   126    44   125    1
   127    45    46    1
   128    45   126    1
   129    45   127    1
   130    46    47    1
   131    46   128    1
   132    46   129    1
   133    47    48    1
   134    47   130    1
   135    47   131    1
   136    48    49    1
   137    48   132    1
   138    48   133    1
   139    49    50    1
   140    49   134    1
   141    49   135    1
   142    50   136    1
   143    50   137    1
   144    50   138    1
   145   139   140    1
   146   139   188    1
   147   139   189    1
   148   139   190    1
   149   140   141    1
   150   140   191    1
   151   140   192    1
   152   141   142    1
   153   141   193    1
   154   141   194    1
   155   142   143    1
   156   142   195    1
   157   142   196    1
   158   143   144    1
   159   143   197    1
   160   143   198    1
   161   144   145    1
   162   144   199    1
   163   144   200    1
   164   145   146    1
   165   145   201    1
   166   145   202    1
   167   146   147    1
   168   146   203    1
   169   146   204    1
   170   147   148    1
   171   147   205    1
   172   147   206    1
   173   148   149    1
   174   148   207    1
   175   148   208    1
   176   149   150    1
   177   149   209    1
   178   149   210    1
   179   150   151    1
   180   150   211    1
   181   150   212    1
   182   151   152    1
   183   151   160    1
   184   152   153    1
   185   152   213    1
   186   152   214    1
   187   153   154    1
   188   153   215    1
   189   153   216    1
   190   154   155    1
   191   154   217    1
   192   154   218    1
   193   155   156    1
   194   155   219    1
   195   155   220    1
   196   156   157    1
   197   156   221    1
   198   156   222    1
   199   157   158    1
   200   157   223    1
   201   157   224    1
   202   158   159    1
   203   158   225    1
   204   158   226    1
   205   159   227    1
   206   159   228    1
   207   159   229    1
   208   160   161    2
   209   160   162    1
   210   162   163    1
   211   162   230    1
   212   162   231    1
   213   163   164    1
   214   164   165    1
   215   164   232    1
   216   164   233    1
   217   165   166    2
   218   165   167    1
   219   167   168    1
   220   167   176    1
   221   168   169    1
   222   168   234    1
   223   168   235    1
   224   169   170    1
   225   169   236    1
   226   169   237    1
   227   170   171    1
   228   170   238    1
   229   170   239    1
   230   171   172    1
   231   171   240    1
   232   171   241    1
   233   172   173    1
   234   172   242    1
   235   172   243    1
   236   173   174    1
   237   173   244    1
   238   173   245    1
   239   174   175    1
   240   174   246    1
   241   174   247    1
   242   175   248    1
   243   175   249    1
   244   175   250    1
   245   176   177    1
   246   176   251    1
   247   176   252    1
   248   177   178    1
   249   177   253    1
   250   177   254    1
   251   178   179    1
   252   178   255    1
   253   178   256    1
   254   179   180    1
   255   179   257    1
   256   179   258    1
   257   180   181    1
   258   180   259    1
   259   180   260    1
   260   181   182    1
   261   181   261    1
   262   181   262    1
   263   182   183    1
   264   182   263    1
   265   182   264    1
   266   183   184    1
   267   183   265    1
   268   183   266    1
   269   184   185    1
   270   184   267    1
   271   184   268    1
   272   185   186    1
   273   185   269    1
   274   185   270    1
   275   186   187    1
   276   186   271    1
   277   186   272    1
   278   187   273    1
   279   187   274    1
   280   187   275    1
   281   276   277    1
   282   276   278    1
   283   279   280    1
   284   279   281    1
@<TRIPOS>SUBSTRUCTURE
     1 RES1      281 GROUP             0 ****  ****    0  
