@<TRIPOS>MOLECULE
ICIGOT_geomtry_0_nunpairedes_0_charge_3 Charge: 3 Unpaired_Electrons: 0 XTB_Unpaired_Electrons: 0 XTB_Charge: 3
   157   168     1     0     0
SMALL
NoCharges
****
Generated from Architector

@<TRIPOS>ATOM
     1 Lu1      -0.1133   -0.0773    0.1101   Lu        1 RES1   0.0000
     2 C1       -4.7787   -2.0081   -2.5654   C.3       1 RES1   0.0000
     3 N1       -3.7073   -2.1384   -1.5912   N.am      1 RES1   0.0000
     4 C2       -2.4951   -1.6060   -1.7580   C.2       1 RES1   0.0000
     5 O1       -1.6108   -1.6429   -0.8760   O.2       1 RES1   0.0000
     6 C3       -2.1901   -0.9869   -3.1139   C.3       1 RES1   0.0000
     7 C4       -1.7812    0.4849   -2.9919   C.2       1 RES1   0.0000
     8 O2       -1.0552    0.8071   -2.0428   O.2       1 RES1   0.0000
     9 N2       -2.1865    1.3186   -3.9659   N.am      1 RES1   0.0000
    10 C5       -3.2713    0.9175   -4.8477   C.3       1 RES1   0.0000
    11 C6       -1.5896    2.5859   -4.2401   C.ar      1 RES1   0.0000
    12 C7       -0.8111    3.2655   -3.3094   C.ar      1 RES1   0.0000
    13 C8       -0.2985    4.5200   -3.5984   C.ar      1 RES1   0.0000
    14 C9       -0.5723    5.1415   -4.8037   C.ar      1 RES1   0.0000
    15 C10      -1.2905    4.4443   -5.7582   C.ar      1 RES1   0.0000
    16 C11      -1.7671    3.1726   -5.4939   C.ar      1 RES1   0.0000
    17 C12      -4.0707   -2.8801   -0.4233   C.ar      1 RES1   0.0000
    18 C13      -3.7938   -2.4059    0.8483   C.ar      1 RES1   0.0000
    19 C14      -4.2304   -3.1327    1.9441   C.ar      1 RES1   0.0000
    20 C15      -4.9975   -4.2726    1.7864   C.ar      1 RES1   0.0000
    21 C16      -5.2862   -4.7302    0.5119   C.ar      1 RES1   0.0000
    22 C17      -4.7957   -4.0562   -0.5905   C.ar      1 RES1   0.0000
    23 H1       -4.8303   -0.9855   -2.9314   H         1 RES1   0.0000
    24 H2       -5.7220   -2.2261   -2.0704   H         1 RES1   0.0000
    25 H3       -4.6585   -2.7017   -3.3981   H         1 RES1   0.0000
    26 H4       -2.9878   -1.1590   -3.8152   H         1 RES1   0.0000
    27 H5       -1.2917   -1.4688   -3.5119   H         1 RES1   0.0000
    28 H6       -4.0555    0.4419   -4.2669   H         1 RES1   0.0000
    29 H7       -2.9189    0.2588   -5.6403   H         1 RES1   0.0000
    30 H8       -3.7236    1.7918   -5.3013   H         1 RES1   0.0000
    31 H9       -0.5869    2.8060   -2.3648   H         1 RES1   0.0000
    32 H10       0.3368    5.0226   -2.8839   H         1 RES1   0.0000
    33 H11      -0.2070    6.1372   -5.0062   H         1 RES1   0.0000
    34 H12      -1.4737    4.8816   -6.7271   H         1 RES1   0.0000
    35 H13      -2.2516    2.6428   -6.2951   H         1 RES1   0.0000
    36 H14      -3.2689   -1.4717    0.9797   H         1 RES1   0.0000
    37 H15      -3.9951   -2.7932    2.9374   H         1 RES1   0.0000
    38 H16      -5.3724   -4.7978    2.6516   H         1 RES1   0.0000
    39 H17      -5.8979   -5.6049    0.3644   H         1 RES1   0.0000
    40 H18      -4.9854   -4.4366   -1.5814   H         1 RES1   0.0000
    41 C18      -2.5931    5.3720   -0.2855   C.3       1 RES1   0.0000
    42 N3       -2.5929    3.9213   -0.4068   N.am      1 RES1   0.0000
    43 C19      -1.5516    3.1803   -0.0039   C.2       1 RES1   0.0000
    44 O3       -1.6065    1.9470    0.1389   O.2       1 RES1   0.0000
    45 C20      -0.2007    3.8752    0.2485   C.3       1 RES1   0.0000
    46 C21       0.3810    3.2172    1.4873   C.2       1 RES1   0.0000
    47 O4        0.5774    1.9918    1.4211   O.2       1 RES1   0.0000
    48 N4        0.6122    3.9521    2.5805   N.am      1 RES1   0.0000
    49 C22       0.6934    5.4052    2.5497   C.3       1 RES1   0.0000
    50 C23       0.9755    3.3133    3.8051   C.ar      1 RES1   0.0000
    51 C24       0.2178    2.2522    4.2843   C.ar      1 RES1   0.0000
    52 C25       0.5767    1.6482    5.4761   C.ar      1 RES1   0.0000
    53 C26       1.6638    2.1023    6.2042   C.ar      1 RES1   0.0000
    54 C27       2.4056    3.1693    5.7277   C.ar      1 RES1   0.0000
    55 C28       2.0727    3.7666    4.5252   C.ar      1 RES1   0.0000
    56 C29      -3.7516    3.3411   -1.0090   C.ar      1 RES1   0.0000
    57 C30      -4.1987    2.0601   -0.6984   C.ar      1 RES1   0.0000
    58 C31      -5.3704    1.5822   -1.2618   C.ar      1 RES1   0.0000
    59 C32      -6.1270    2.3641   -2.1159   C.ar      1 RES1   0.0000
    60 C33      -5.6574    3.6197   -2.4639   C.ar      1 RES1   0.0000
    61 C34      -4.4706    4.0973   -1.9362   C.ar      1 RES1   0.0000
    62 H19      -2.0851    5.6641    0.6290   H         1 RES1   0.0000
    63 H20      -3.6193    5.7238   -0.2044   H         1 RES1   0.0000
    64 H21      -2.1240    5.8573   -1.1422   H         1 RES1   0.0000
    65 H22      -0.2279    4.9547    0.2714   H         1 RES1   0.0000
    66 H23       0.4392    3.5624   -0.5837   H         1 RES1   0.0000
    67 H24      -0.2347    5.8535    2.2039   H         1 RES1   0.0000
    68 H25       1.5169    5.7288    1.9132   H         1 RES1   0.0000
    69 H26       0.8731    5.7820    3.5524   H         1 RES1   0.0000
    70 H27      -0.6494    1.9100    3.7392   H         1 RES1   0.0000
    71 H28      -0.0046    0.8215    5.8549   H         1 RES1   0.0000
    72 H29       1.9262    1.6327    7.1412   H         1 RES1   0.0000
    73 H30       3.2520    3.5411    6.2814   H         1 RES1   0.0000
    74 H31       2.6748    4.5759    4.1437   H         1 RES1   0.0000
    75 H32      -3.6628    1.4302   -0.0090   H         1 RES1   0.0000
    76 H33      -5.7101    0.5907   -1.0071   H         1 RES1   0.0000
    77 H34      -7.0705    2.0059   -2.5001   H         1 RES1   0.0000
    78 H35      -6.2160    4.2429   -3.1446   H         1 RES1   0.0000
    79 H36      -4.1145    5.0621   -2.2615   H         1 RES1   0.0000
    80 C35       1.9613   -1.9240    5.2739   C.3       1 RES1   0.0000
    81 N5        2.0802   -1.0405    4.1248   N.am      1 RES1   0.0000
    82 C36       1.1357   -1.0681    3.1733   C.2       1 RES1   0.0000
    83 O5        1.1530   -0.3747    2.1552   O.2       1 RES1   0.0000
    84 C37      -0.0668   -2.0305    3.3096   C.3       1 RES1   0.0000
    85 C38      -1.3049   -1.2020    2.9979   C.2       1 RES1   0.0000
    86 O6       -1.4222   -0.7371    1.8438   O.2       1 RES1   0.0000
    87 N6       -2.2175   -0.9900    3.9504   N.am      1 RES1   0.0000
    88 C39      -2.1121   -1.5909    5.2713   C.3       1 RES1   0.0000
    89 C40      -3.4180   -0.2504    3.6891   C.ar      1 RES1   0.0000
    90 C41      -3.4045    0.9240    2.9459   C.ar      1 RES1   0.0000
    91 C42      -4.5918    1.6016    2.7212   C.ar      1 RES1   0.0000
    92 C43      -5.7900    1.1310    3.2293   C.ar      1 RES1   0.0000
    93 C44      -5.7995   -0.0341    3.9756   C.ar      1 RES1   0.0000
    94 C45      -4.6227   -0.7229    4.2048   C.ar      1 RES1   0.0000
    95 C46       3.2312   -0.1874    4.0522   C.ar      1 RES1   0.0000
    96 C47       3.2550    0.9685    3.2760   C.ar      1 RES1   0.0000
    97 C48       4.3621    1.8007    3.2948   C.ar      1 RES1   0.0000
    98 C49       5.4494    1.5373    4.1068   C.ar      1 RES1   0.0000
    99 C50       5.4419    0.3761    4.8578   C.ar      1 RES1   0.0000
   100 C51       4.3652   -0.4921    4.8045   C.ar      1 RES1   0.0000
   101 H37       0.9776   -1.8247    5.7246   H         1 RES1   0.0000
   102 H38       2.6713   -1.6575    6.0471   H         1 RES1   0.0000
   103 H39       2.1399   -2.9601    4.9851   H         1 RES1   0.0000
   104 H40      -0.1284   -2.5869    4.2323   H         1 RES1   0.0000
   105 H41       0.0479   -2.7421    2.4840   H         1 RES1   0.0000
   106 H42      -1.1313   -1.3968    5.6986   H         1 RES1   0.0000
   107 H43      -2.2876   -2.6677    5.2326   H         1 RES1   0.0000
   108 H44      -2.8501   -1.1461    5.9344   H         1 RES1   0.0000
   109 H45      -2.4809    1.3146    2.5424   H         1 RES1   0.0000
   110 H46      -4.5905    2.5094    2.1400   H         1 RES1   0.0000
   111 H47      -6.7070    1.6712    3.0510   H         1 RES1   0.0000
   112 H48      -6.7181   -0.4212    4.3853   H         1 RES1   0.0000
   113 H49      -4.6592   -1.6357    4.7799   H         1 RES1   0.0000
   114 H50       2.4185    1.2413    2.6599   H         1 RES1   0.0000
   115 H51       4.3831    2.6736    2.6614   H         1 RES1   0.0000
   116 H52       6.2932    2.2118    4.1388   H         1 RES1   0.0000
   117 H53       6.2847    0.1288    5.4839   H         1 RES1   0.0000
   118 H54       4.4471   -1.4165    5.3510   H         1 RES1   0.0000
   119 C52       1.5998   -3.5222   -4.4012   C.3       1 RES1   0.0000
   120 N7        1.2516   -2.2358   -3.8240   N.am      1 RES1   0.0000
   121 C53       1.0941   -2.0477   -2.5095   C.2       1 RES1   0.0000
   122 O7        0.8702   -0.9285   -2.0190   O.2       1 RES1   0.0000
   123 C54       1.1516   -3.2690   -1.5828   C.3       1 RES1   0.0000
   124 C55       2.0175   -2.8328   -0.4099   C.2       1 RES1   0.0000
   125 O8        1.6258   -1.8465    0.2394   O.2       1 RES1   0.0000
   126 N8        3.1570   -3.4736   -0.1511   N.am      1 RES1   0.0000
   127 C56       3.4679   -4.7804   -0.7084   C.3       1 RES1   0.0000
   128 C57       4.1137   -2.9194    0.7594   C.ar      1 RES1   0.0000
   129 C58       4.5146   -1.5955    0.6258   C.ar      1 RES1   0.0000
   130 C59       5.5086   -1.0976    1.4503   C.ar      1 RES1   0.0000
   131 C60       6.1196   -1.9086    2.3919   C.ar      1 RES1   0.0000
   132 C61       5.7061   -3.2232    2.5309   C.ar      1 RES1   0.0000
   133 C62       4.6941   -3.7256    1.7305   C.ar      1 RES1   0.0000
   134 C63       1.0304   -1.1661   -4.7513   C.ar      1 RES1   0.0000
   135 C64       1.5072    0.1150   -4.5049   C.ar      1 RES1   0.0000
   136 C65       1.2741    1.1196   -5.4290   C.ar      1 RES1   0.0000
   137 C66       0.6068    0.8550   -6.6126   C.ar      1 RES1   0.0000
   138 C67       0.1439   -0.4267   -6.8611   C.ar      1 RES1   0.0000
   139 C68       0.3300   -1.4305   -5.9258   C.ar      1 RES1   0.0000
   140 H55       2.4506   -3.9556   -3.8824   H         1 RES1   0.0000
   141 H56       1.8975   -3.3755   -5.4349   H         1 RES1   0.0000
   142 H57       0.7597   -4.2160   -4.3697   H         1 RES1   0.0000
   143 H58       1.4754   -4.1812   -2.0639   H         1 RES1   0.0000
   144 H59       0.1334   -3.3957   -1.1975   H         1 RES1   0.0000
   145 H60       3.5040   -4.7583   -1.7952   H         1 RES1   0.0000
   146 H61       2.7355   -5.5177   -0.3804   H         1 RES1   0.0000
   147 H62       4.4491   -5.0921   -0.3638   H         1 RES1   0.0000
   148 H63       4.0739   -0.9662   -0.1331   H         1 RES1   0.0000
   149 H64       5.8221   -0.0706    1.3564   H         1 RES1   0.0000
   150 H65       6.9183   -1.5200    3.0068   H         1 RES1   0.0000
   151 H66       6.1695   -3.8715    3.2576   H         1 RES1   0.0000
   152 H67       4.3674   -4.7469    1.8589   H         1 RES1   0.0000
   153 H68       2.0763    0.3226   -3.6137   H         1 RES1   0.0000
   154 H69       1.6283    2.1188   -5.2346   H         1 RES1   0.0000
   155 H70       0.4664    1.6374   -7.3436   H         1 RES1   0.0000
   156 H71      -0.3581   -0.6614   -7.7868   H         1 RES1   0.0000
   157 H72      -0.0631   -2.4172   -6.1243   H         1 RES1   0.0000
@<TRIPOS>BOND
     1     1     5    1
     2     1     8    1
     3     1    44    1
     4     1    47    1
     5     1    83    1
     6     1    86    1
     7     1   122    1
     8     1   125    1
     9     2     3    1
    10     2    23    1
    11     2    24    1
    12     2    25    1
    13     3     4    1
    14     3    17    1
    15     4     5    2
    16     4     6    1
    17     6     7    1
    18     6    26    1
    19     6    27    1
    20     7     8    2
    21     7     9    1
    22     9    10    1
    23     9    11    1
    24    10    28    1
    25    10    29    1
    26    10    30    1
    27    11    12    1
    28    11    16    2
    29    12    13    2
    30    12    31    1
    31    13    14    1
    32    13    32    1
    33    14    15    2
    34    14    33    1
    35    15    16    1
    36    15    34    1
    37    16    35    1
    38    17    18    1
    39    17    22    2
    40    18    19    2
    41    18    36    1
    42    19    20    1
    43    19    37    1
    44    20    21    2
    45    20    38    1
    46    21    22    1
    47    21    39    1
    48    22    40    1
    49    41    42    1
    50    41    62    1
    51    41    63    1
    52    41    64    1
    53    42    43    1
    54    42    56    1
    55    43    44    2
    56    43    45    1
    57    45    46    1
    58    45    65    1
    59    45    66    1
    60    46    47    2
    61    46    48    1
    62    48    49    1
    63    48    50    1
    64    49    67    1
    65    49    68    1
    66    49    69    1
    67    50    51    1
    68    50    55    2
    69    51    52    2
    70    51    70    1
    71    52    53    1
    72    52    71    1
    73    53    54    2
    74    53    72    1
    75    54    55    1
    76    54    73    1
    77    55    74    1
    78    56    57    1
    79    56    61    2
    80    57    58    2
    81    57    75    1
    82    58    59    1
    83    58    76    1
    84    59    60    2
    85    59    77    1
    86    60    61    1
    87    60    78    1
    88    61    79    1
    89    80    81    1
    90    80   101    1
    91    80   102    1
    92    80   103    1
    93    81    82    1
    94    81    95    1
    95    82    83    2
    96    82    84    1
    97    84    85    1
    98    84   104    1
    99    84   105    1
   100    85    86    2
   101    85    87    1
   102    87    88    1
   103    87    89    1
   104    88   106    1
   105    88   107    1
   106    88   108    1
   107    89    90    1
   108    89    94    2
   109    90    91    2
   110    90   109    1
   111    91    92    1
   112    91   110    1
   113    92    93    2
   114    92   111    1
   115    93    94    1
   116    93   112    1
   117    94   113    1
   118    95    96    1
   119    95   100    2
   120    96    97    2
   121    96   114    1
   122    97    98    1
   123    97   115    1
   124    98    99    2
   125    98   116    1
   126    99   100    1
   127    99   117    1
   128   100   118    1
   129   119   120    1
   130   119   140    1
   131   119   141    1
   132   119   142    1
   133   120   121    1
   134   120   134    1
   135   121   122    2
   136   121   123    1
   137   123   124    1
   138   123   143    1
   139   123   144    1
   140   124   125    2
   141   124   126    1
   142   126   127    1
   143   126   128    1
   144   127   145    1
   145   127   146    1
   146   127   147    1
   147   128   129    1
   148   128   133    2
   149   129   130    2
   150   129   148    1
   151   130   131    1
   152   130   149    1
   153   131   132    2
   154   131   150    1
   155   132   133    1
   156   132   151    1
   157   133   152    1
   158   134   135    1
   159   134   139    2
   160   135   136    2
   161   135   153    1
   162   136   137    1
   163   136   154    1
   164   137   138    2
   165   137   155    1
   166   138   139    1
   167   138   156    1
   168   139   157    1
@<TRIPOS>SUBSTRUCTURE
     1 RES1      157 GROUP             0 ****  ****    0  
