@<TRIPOS>MOLECULE
YEMSEP_geometry_0_nunpairedes_0_charge_3 Charge: 3 Unpaired_Electrons: 0 XTB_Unpaired_Electrons: 0 XTB_Charge: 3
   305   308     1     0     0
SMALL
NoCharges
****
Generated from Architector

@<TRIPOS>ATOM
     1 Lu1      -0.1878   -0.6206    0.1866   Lu        1 RES1   0.0000
     2 C1        0.6105    9.2453    0.9521   C.3       1 RES1   0.0000
     3 C2        0.1713    7.7932    1.0944   C.3       1 RES1   0.0000
     4 C3       -1.1776    7.6343    1.7990   C.3       1 RES1   0.0000
     5 C4       -1.5332    6.1566    1.9928   C.3       1 RES1   0.0000
     6 C5       -2.9546    5.9497    2.5039   C.3       1 RES1   0.0000
     7 C6       -3.3553    4.4739    2.6115   C.3       1 RES1   0.0000
     8 C7       -2.7504    3.8131    3.8487   C.3       1 RES1   0.0000
     9 C8       -3.1855    2.3684    4.0678   C.3       1 RES1   0.0000
    10 N1       -2.8885    1.3455    3.0583   N.am      1 RES1   0.0000
    11 C9       -3.9025    0.2734    2.9943   C.3       1 RES1   0.0000
    12 C10      -4.4484   -0.0571    1.5966   C.3       1 RES1   0.0000
    13 C11      -3.8876   -1.3616    1.0019   C.3       1 RES1   0.0000
    14 C12      -4.9331   -2.2295    0.2697   C.3       1 RES1   0.0000
    15 C13      -5.4633   -3.2965    1.2385   C.3       1 RES1   0.0000
    16 C14      -6.4169   -4.3670    0.6964   C.3       1 RES1   0.0000
    17 C15      -7.8303   -3.9091    0.3246   C.3       1 RES1   0.0000
    18 C16      -7.9820   -3.4224   -1.1115   C.3       1 RES1   0.0000
    19 C17      -4.3784   -2.7462   -1.0690   C.3       1 RES1   0.0000
    20 C18      -3.0826   -3.5659   -1.0727   C.3       1 RES1   0.0000
    21 C19      -3.2380   -5.0260   -0.6562   C.3       1 RES1   0.0000
    22 C20      -1.9694   -5.8571   -0.8613   C.3       1 RES1   0.0000
    23 C21      -0.9022   -5.6372    0.2116   C.3       1 RES1   0.0000
    24 C22       0.1831   -6.7091    0.1574   C.3       1 RES1   0.0000
    25 C23      -1.7521    1.1271    2.4218   C.2       1 RES1   0.0000
    26 O1       -1.5666    0.0727    1.7688   O.2       1 RES1   0.0000
    27 C24      -0.5641    2.1042    2.4193   C.3       1 RES1   0.0000
    28 O2        0.4036    1.4968    1.5573   O.3       1 RES1   0.0000
    29 C25       1.7337    1.9836    1.6721   C.3       1 RES1   0.0000
    30 C26       2.5844    1.0667    0.7873   C.2       1 RES1   0.0000
    31 O3        2.0032    0.1195    0.2077   O.2       1 RES1   0.0000
    32 N2        3.8739    1.3108    0.6517   N.am      1 RES1   0.0000
    33 C27       4.5717    2.3790    1.3530   C.3       1 RES1   0.0000
    34 C28       5.0308    2.0053    2.7651   C.3       1 RES1   0.0000
    35 C29       6.0560    0.8729    2.7967   C.3       1 RES1   0.0000
    36 C30       6.6122    0.6243    4.2060   C.3       1 RES1   0.0000
    37 C31       7.9368    1.3143    4.5349   C.3       1 RES1   0.0000
    38 C32       7.9041    2.8452    4.6256   C.3       1 RES1   0.0000
    39 C33       8.3274    3.5486    3.3351   C.3       1 RES1   0.0000
    40 C34       8.2939    5.0645    3.4871   C.3       1 RES1   0.0000
    41 C35       4.6710    0.5040   -0.2711   C.3       1 RES1   0.0000
    42 C36       4.9214    1.2435   -1.5937   C.3       1 RES1   0.0000
    43 C37       3.9803    0.7800   -2.7083   C.3       1 RES1   0.0000
    44 C38       3.6336    1.8756   -3.7299   C.3       1 RES1   0.0000
    45 C39       4.8901    2.2845   -4.5124   C.3       1 RES1   0.0000
    46 C40       4.7009    3.3991   -5.5451   C.3       1 RES1   0.0000
    47 C41       4.3759    4.7702   -4.9513   C.3       1 RES1   0.0000
    48 C42       4.1588    5.8129   -6.0411   C.3       1 RES1   0.0000
    49 C43       2.5031    1.3997   -4.6650   C.3       1 RES1   0.0000
    50 C44       1.4049    2.4353   -4.9080   C.3       1 RES1   0.0000
    51 C45       0.3678    1.9675   -5.9340   C.3       1 RES1   0.0000
    52 C46      -0.9264    2.7654   -5.7922   C.3       1 RES1   0.0000
    53 C47      -1.9379    2.5523   -6.9208   C.3       1 RES1   0.0000
    54 C48      -1.6471    3.4517   -8.1157   C.3       1 RES1   0.0000
    55 H1        1.5674    9.2944    0.4404   H         1 RES1   0.0000
    56 H2        0.7169    9.7213    1.9238   H         1 RES1   0.0000
    57 H3       -0.1126    9.8163    0.3743   H         1 RES1   0.0000
    58 H4        0.9319    7.2380    1.6552   H         1 RES1   0.0000
    59 H5        0.0989    7.3512    0.0964   H         1 RES1   0.0000
    60 H6       -1.9568    8.1242    1.2089   H         1 RES1   0.0000
    61 H7       -1.1493    8.1230    2.7751   H         1 RES1   0.0000
    62 H8       -0.8075    5.7159    2.6822   H         1 RES1   0.0000
    63 H9       -1.4347    5.6380    1.0377   H         1 RES1   0.0000
    64 H10      -3.6386    6.4499    1.8169   H         1 RES1   0.0000
    65 H11      -3.0594    6.4184    3.4818   H         1 RES1   0.0000
    66 H12      -3.0557    3.9380    1.7057   H         1 RES1   0.0000
    67 H13      -4.4423    4.4153    2.6739   H         1 RES1   0.0000
    68 H14      -3.1266    4.3512    4.7227   H         1 RES1   0.0000
    69 H15      -1.6682    3.9168    3.8565   H         1 RES1   0.0000
    70 H16      -4.2708    2.3872    4.1619   H         1 RES1   0.0000
    71 H17      -2.7836    2.0195    5.0265   H         1 RES1   0.0000
    72 H18      -4.7302    0.5765    3.6312   H         1 RES1   0.0000
    73 H19      -3.4733   -0.6274    3.4333   H         1 RES1   0.0000
    74 H20      -4.2567    0.7851    0.9287   H         1 RES1   0.0000
    75 H21      -5.5292   -0.1636    1.6913   H         1 RES1   0.0000
    76 H22      -3.4642   -1.9503    1.8176   H         1 RES1   0.0000
    77 H23      -3.0734   -1.1209    0.3137   H         1 RES1   0.0000
    78 H24      -5.7793   -1.5894   -0.0022   H         1 RES1   0.0000
    79 H25      -5.9656   -2.7714    2.0548   H         1 RES1   0.0000
    80 H26      -4.6110   -3.8192    1.6828   H         1 RES1   0.0000
    81 H27      -6.5073   -5.1136    1.4884   H         1 RES1   0.0000
    82 H28      -5.9721   -4.8710   -0.1598   H         1 RES1   0.0000
    83 H29      -8.1587   -3.1316    1.0159   H         1 RES1   0.0000
    84 H30      -8.4980   -4.7622    0.4551   H         1 RES1   0.0000
    85 H31      -7.4248   -2.5056   -1.2867   H         1 RES1   0.0000
    86 H32      -9.0295   -3.2279   -1.3246   H         1 RES1   0.0000
    87 H33      -7.6346   -4.1825   -1.8089   H         1 RES1   0.0000
    88 H34      -4.1993   -1.8562   -1.6811   H         1 RES1   0.0000
    89 H35      -5.1598   -3.3154   -1.5693   H         1 RES1   0.0000
    90 H36      -2.3179   -3.0598   -0.4680   H         1 RES1   0.0000
    91 H37      -2.7221   -3.5808   -2.1056   H         1 RES1   0.0000
    92 H38      -4.0269   -5.4671   -1.2654   H         1 RES1   0.0000
    93 H39      -3.5483   -5.1045    0.3835   H         1 RES1   0.0000
    94 H40      -1.5490   -5.6539   -1.8498   H         1 RES1   0.0000
    95 H41      -2.2495   -6.9105   -0.8438   H         1 RES1   0.0000
    96 H42      -1.3814   -5.6873    1.1927   H         1 RES1   0.0000
    97 H43      -0.4453   -4.6480    0.0951   H         1 RES1   0.0000
    98 H44      -0.2637   -7.6974    0.2270   H         1 RES1   0.0000
    99 H45       0.8782   -6.6051    0.9888   H         1 RES1   0.0000
   100 H46       0.7404   -6.6579   -0.7757   H         1 RES1   0.0000
   101 H47      -0.1634    2.2211    3.4329   H         1 RES1   0.0000
   102 H48      -0.8462    3.0871    2.0234   H         1 RES1   0.0000
   103 H49       2.0842    1.9454    2.7107   H         1 RES1   0.0000
   104 H50       1.7988    3.0220    1.3120   H         1 RES1   0.0000
   105 H51       3.9333    3.2621    1.4010   H         1 RES1   0.0000
   106 H52       5.4454    2.6385    0.7560   H         1 RES1   0.0000
   107 H53       4.1779    1.7220    3.3849   H         1 RES1   0.0000
   108 H54       5.4679    2.9037    3.1992   H         1 RES1   0.0000
   109 H55       6.8878    1.0973    2.1270   H         1 RES1   0.0000
   110 H56       5.5744   -0.0464    2.4475   H         1 RES1   0.0000
   111 H57       6.7876   -0.4466    4.3120   H         1 RES1   0.0000
   112 H58       5.8631    0.9056    4.9484   H         1 RES1   0.0000
   113 H59       8.6866    1.0106    3.8028   H         1 RES1   0.0000
   114 H60       8.2594    0.9208    5.4995   H         1 RES1   0.0000
   115 H61       8.5954    3.1577    5.4104   H         1 RES1   0.0000
   116 H62       6.9104    3.1832    4.9322   H         1 RES1   0.0000
   117 H63       7.6794    3.2593    2.5034   H         1 RES1   0.0000
   118 H64       9.3442    3.2353    3.0872   H         1 RES1   0.0000
   119 H65       7.2829    5.4106    3.6955   H         1 RES1   0.0000
   120 H66       8.6426    5.5497    2.5795   H         1 RES1   0.0000
   121 H67       8.9342    5.3787    4.3066   H         1 RES1   0.0000
   122 H68       4.1223   -0.4198   -0.4582   H         1 RES1   0.0000
   123 H69       5.6103    0.2532    0.2186   H         1 RES1   0.0000
   124 H70       5.9531    1.0905   -1.8984   H         1 RES1   0.0000
   125 H71       4.7839    2.3128   -1.4279   H         1 RES1   0.0000
   126 H72       3.0620    0.4072   -2.2419   H         1 RES1   0.0000
   127 H73       4.4358   -0.0630   -3.2282   H         1 RES1   0.0000
   128 H74       3.2799    2.7487   -3.1709   H         1 RES1   0.0000
   129 H75       5.2715    1.4014   -5.0298   H         1 RES1   0.0000
   130 H76       5.6523    2.6039   -3.8021   H         1 RES1   0.0000
   131 H77       3.9277    3.1184   -6.2613   H         1 RES1   0.0000
   132 H78       5.6356    3.4851   -6.1026   H         1 RES1   0.0000
   133 H79       5.2022    5.0833   -4.3104   H         1 RES1   0.0000
   134 H80       3.4776    4.7148   -4.3308   H         1 RES1   0.0000
   135 H81       5.0411    5.9002   -6.6671   H         1 RES1   0.0000
   136 H82       3.9537    6.7870   -5.6068   H         1 RES1   0.0000
   137 H83       3.3194    5.5390   -6.6755   H         1 RES1   0.0000
   138 H84       2.0416    0.4915   -4.2625   H         1 RES1   0.0000
   139 H85       2.9241    1.1290   -5.6317   H         1 RES1   0.0000
   140 H86       1.8491    3.3605   -5.2702   H         1 RES1   0.0000
   141 H87       0.9071    2.6736   -3.9605   H         1 RES1   0.0000
   142 H88       0.1621    0.8995   -5.8055   H         1 RES1   0.0000
   143 H89       0.7805    2.0978   -6.9330   H         1 RES1   0.0000
   144 H90      -0.6832    3.8281   -5.7529   H         1 RES1   0.0000
   145 H91      -1.3806    2.4903   -4.8351   H         1 RES1   0.0000
   146 H92      -2.9388    2.7878   -6.5499   H         1 RES1   0.0000
   147 H93      -1.9428    1.5057   -7.2346   H         1 RES1   0.0000
   148 H94      -2.3755    3.2906   -8.9055   H         1 RES1   0.0000
   149 H95      -0.6556    3.2591   -8.5164   H         1 RES1   0.0000
   150 H96      -1.6996    4.4962   -7.8163   H         1 RES1   0.0000
   151 C49       4.4390   -0.0691   -9.2318   C.3       1 RES1   0.0000
   152 C50       3.8308   -0.4957   -7.9007   C.3       1 RES1   0.0000
   153 C51       4.7475   -1.4301   -7.1067   C.3       1 RES1   0.0000
   154 C52       4.0982   -1.9081   -5.8050   C.3       1 RES1   0.0000
   155 C53       5.0150   -2.8249   -4.9932   C.3       1 RES1   0.0000
   156 C54       4.4349   -3.2725   -3.6442   C.3       1 RES1   0.0000
   157 C55       3.1335   -4.0553   -3.8122   C.3       1 RES1   0.0000
   158 C56       2.6026   -4.7233   -2.5404   C.3       1 RES1   0.0000
   159 N3        2.2939   -3.8677   -1.3898   N.am      1 RES1   0.0000
   160 C57       2.9455   -4.2247   -0.1100   C.3       1 RES1   0.0000
   161 C58       3.4443   -3.0757    0.7866   C.3       1 RES1   0.0000
   162 C59       2.5061   -2.6681    1.9423   C.3       1 RES1   0.0000
   163 C60       3.1671   -2.5079    3.3328   C.3       1 RES1   0.0000
   164 C61       2.9027   -3.7852    4.1461   C.3       1 RES1   0.0000
   165 C62       3.3912   -3.8725    5.5980   C.3       1 RES1   0.0000
   166 C63       4.9087   -3.9349    5.8065   C.3       1 RES1   0.0000
   167 C64       5.5397   -2.5721    6.0592   C.3       1 RES1   0.0000
   168 C65       2.7507   -1.1757    3.9883   C.3       1 RES1   0.0000
   169 C66       1.2710   -0.9061    4.3008   C.3       1 RES1   0.0000
   170 C67       0.7952   -1.5502    5.6046   C.3       1 RES1   0.0000
   171 C68      -0.6113   -1.1452    6.0460   C.3       1 RES1   0.0000
   172 C69      -1.7226   -1.8078    5.2350   C.3       1 RES1   0.0000
   173 C70      -3.0947   -1.5516    5.8539   C.3       1 RES1   0.0000
   174 C71       1.2822   -3.0215   -1.3484   C.2       1 RES1   0.0000
   175 O4        0.9494   -2.4460   -0.2906   O.2       1 RES1   0.0000
   176 C72       0.4056   -2.7082   -2.5632   C.3       1 RES1   0.0000
   177 O5       -0.5344   -1.7616   -2.0679   O.3       1 RES1   0.0000
   178 C73      -1.3739   -1.1856   -3.0518   C.3       1 RES1   0.0000
   179 C74      -2.1496   -0.0809   -2.3320   C.2       1 RES1   0.0000
   180 O6       -1.8800    0.1287   -1.1225   O.2       1 RES1   0.0000
   181 N4       -3.0684    0.6013   -2.9882   N.am      1 RES1   0.0000
   182 C75      -3.4045    0.3724   -4.3920   C.3       1 RES1   0.0000
   183 C76      -4.4079   -0.7561   -4.6574   C.3       1 RES1   0.0000
   184 C77      -5.7750   -0.5880   -3.9916   C.3       1 RES1   0.0000
   185 C78      -6.7710   -1.6595   -4.4681   C.3       1 RES1   0.0000
   186 C79      -7.6849   -1.2643   -5.6298   C.3       1 RES1   0.0000
   187 C80      -7.0012   -0.9585   -6.9665   C.3       1 RES1   0.0000
   188 C81      -6.6613    0.5207   -7.1548   C.3       1 RES1   0.0000
   189 C82      -5.9574    0.7799   -8.4822   C.3       1 RES1   0.0000
   190 C83      -3.7834    1.6744   -2.2910   C.3       1 RES1   0.0000
   191 C84      -3.1395    3.0488   -2.5213   C.3       1 RES1   0.0000
   192 C85      -1.9985    3.3652   -1.5440   C.3       1 RES1   0.0000
   193 C86      -0.9545    4.3724   -2.0725   C.3       1 RES1   0.0000
   194 C87      -1.6400    5.7278   -2.3066   C.3       1 RES1   0.0000
   195 C88      -0.8442    6.8259   -3.0195   C.3       1 RES1   0.0000
   196 C89      -0.4131    6.4719   -4.4416   C.3       1 RES1   0.0000
   197 C90       0.2274    7.6655   -5.1376   C.3       1 RES1   0.0000
   198 C91       0.2157    4.4699   -1.0734   C.3       1 RES1   0.0000
   199 C92       1.5728    4.8447   -1.6858   C.3       1 RES1   0.0000
   200 C93       2.5902    5.3660   -0.6641   C.3       1 RES1   0.0000
   201 C94       4.0181    5.2462   -1.1893   C.3       1 RES1   0.0000
   202 C95       5.0825    5.7716   -0.2271   C.3       1 RES1   0.0000
   203 C96       6.4742    5.3236   -0.6593   C.3       1 RES1   0.0000
   204 H97       3.7748    0.6217   -9.7471   H         1 RES1   0.0000
   205 H98       4.5982   -0.9310   -9.8744   H         1 RES1   0.0000
   206 H99       5.3945    0.4271   -9.0774   H         1 RES1   0.0000
   207 H100      2.8756   -0.9967   -8.0856   H         1 RES1   0.0000
   208 H101      3.6277    0.4025   -7.3098   H         1 RES1   0.0000
   209 H102      5.6826   -0.9125   -6.8830   H         1 RES1   0.0000
   210 H103      4.9919   -2.2939   -7.7271   H         1 RES1   0.0000
   211 H104      3.1797   -2.4377   -6.0648   H         1 RES1   0.0000
   212 H105      3.8279   -1.0394   -5.2007   H         1 RES1   0.0000
   213 H106      5.9565   -2.3045   -4.8071   H         1 RES1   0.0000
   214 H107      5.2450   -3.7088   -5.5885   H         1 RES1   0.0000
   215 H108      4.2606   -2.4025   -3.0047   H         1 RES1   0.0000
   216 H109      5.1769   -3.9031   -3.1514   H         1 RES1   0.0000
   217 H110      3.3062   -4.8728   -4.5148   H         1 RES1   0.0000
   218 H111      2.3841   -3.4071   -4.2581   H         1 RES1   0.0000
   219 H112      3.3537   -5.4392   -2.2082   H         1 RES1   0.0000
   220 H113      1.6995   -5.2856   -2.8004   H         1 RES1   0.0000
   221 H114      3.8015   -4.8439   -0.3713   H         1 RES1   0.0000
   222 H115      2.2396   -4.8469    0.4504   H         1 RES1   0.0000
   223 H116      3.6583   -2.2134    0.1595   H         1 RES1   0.0000
   224 H117      4.3947   -3.4098    1.2054   H         1 RES1   0.0000
   225 H118      1.7256   -3.4264    2.0240   H         1 RES1   0.0000
   226 H119      2.0206   -1.7197    1.6829   H         1 RES1   0.0000
   227 H120      4.2503   -2.4230    3.2002   H         1 RES1   0.0000
   228 H121      3.3562   -4.6116    3.5927   H         1 RES1   0.0000
   229 H122      1.8248   -3.9737    4.1610   H         1 RES1   0.0000
   230 H123      2.9543   -4.7888    6.0035   H         1 RES1   0.0000
   231 H124      2.9930   -3.0488    6.1881   H         1 RES1   0.0000
   232 H125      5.3811   -4.4130    4.9466   H         1 RES1   0.0000
   233 H126      5.1089   -4.5628    6.6765   H         1 RES1   0.0000
   234 H127      5.4250   -1.9206    5.1976   H         1 RES1   0.0000
   235 H128      6.5991   -2.6821    6.2701   H         1 RES1   0.0000
   236 H129      5.0747   -2.0954    6.9193   H         1 RES1   0.0000
   237 H130      3.0939   -0.3907    3.3056   H         1 RES1   0.0000
   238 H131      3.3165   -1.0557    4.9116   H         1 RES1   0.0000
   239 H132      0.6383   -1.1951    3.4499   H         1 RES1   0.0000
   240 H133      1.1585    0.1776    4.4247   H         1 RES1   0.0000
   241 H134      1.4867   -1.2466    6.3915   H         1 RES1   0.0000
   242 H135      0.8354   -2.6345    5.5315   H         1 RES1   0.0000
   243 H136     -0.7176   -0.0579    6.0015   H         1 RES1   0.0000
   244 H137     -0.7348   -1.4377    7.0892   H         1 RES1   0.0000
   245 H138     -1.5513   -2.8862    5.2088   H         1 RES1   0.0000
   246 H139     -1.6907   -1.4382    4.2039   H         1 RES1   0.0000
   247 H140     -3.1513   -2.0082    6.8387   H         1 RES1   0.0000
   248 H141     -3.8917   -1.9792    5.2480   H         1 RES1   0.0000
   249 H142     -3.2769   -0.4853    5.9721   H         1 RES1   0.0000
   250 H143     -0.1092   -3.6134   -2.9193   H         1 RES1   0.0000
   251 H144      0.9905   -2.2774   -3.3851   H         1 RES1   0.0000
   252 H145     -2.0800   -1.9202   -3.4505   H         1 RES1   0.0000
   253 H146     -0.7712   -0.7786   -3.8732   H         1 RES1   0.0000
   254 H147     -2.4929    0.1699   -4.9572   H         1 RES1   0.0000
   255 H148     -3.8230    1.3023   -4.7789   H         1 RES1   0.0000
   256 H149     -3.9973   -1.7232   -4.3605   H         1 RES1   0.0000
   257 H150     -4.5451   -0.7802   -5.7393   H         1 RES1   0.0000
   258 H151     -6.1896    0.3967   -4.2100   H         1 RES1   0.0000
   259 H152     -5.6617   -0.6696   -2.9057   H         1 RES1   0.0000
   260 H153     -7.4231   -1.9122   -3.6312   H         1 RES1   0.0000
   261 H154     -6.2215   -2.5637   -4.7358   H         1 RES1   0.0000
   262 H155     -8.2930   -0.4082   -5.3337   H         1 RES1   0.0000
   263 H156     -8.3692   -2.0991   -5.7810   H         1 RES1   0.0000
   264 H157     -7.6781   -1.2443   -7.7731   H         1 RES1   0.0000
   265 H158     -6.1049   -1.5732   -7.0806   H         1 RES1   0.0000
   266 H159     -6.0227    0.8808   -6.3445   H         1 RES1   0.0000
   267 H160     -7.5897    1.0960   -7.1230   H         1 RES1   0.0000
   268 H161     -5.0048    0.2523   -8.5243   H         1 RES1   0.0000
   269 H162     -5.7682    1.8433   -8.6146   H         1 RES1   0.0000
   270 H163     -6.5709    0.4383   -9.3118   H         1 RES1   0.0000
   271 H164     -3.7895    1.4322   -1.2271   H         1 RES1   0.0000
   272 H165     -4.8088    1.6735   -2.6611   H         1 RES1   0.0000
   273 H166     -3.9150    3.8073   -2.4224   H         1 RES1   0.0000
   274 H167     -2.7748    3.0931   -3.5470   H         1 RES1   0.0000
   275 H168     -1.5028    2.4274   -1.2702   H         1 RES1   0.0000
   276 H169     -2.4368    3.7764   -0.6324   H         1 RES1   0.0000
   277 H170     -0.5631    4.0131   -3.0288   H         1 RES1   0.0000
   278 H171     -1.9584    6.1211   -1.3388   H         1 RES1   0.0000
   279 H172     -2.5367    5.5475   -2.8990   H         1 RES1   0.0000
   280 H173      0.0214    7.1297   -2.4296   H         1 RES1   0.0000
   281 H174     -1.4998    7.6983   -3.0741   H         1 RES1   0.0000
   282 H175     -1.2947    6.1617   -5.0064   H         1 RES1   0.0000
   283 H176      0.2962    5.6385   -4.4290   H         1 RES1   0.0000
   284 H177     -0.4631    8.5029   -5.1715   H         1 RES1   0.0000
   285 H178      0.5001    7.4186   -6.1591   H         1 RES1   0.0000
   286 H179      1.1207    7.9876   -4.6102   H         1 RES1   0.0000
   287 H180      0.3294    3.5056   -0.5611   H         1 RES1   0.0000
   288 H181     -0.0362    5.2108   -0.3131   H         1 RES1   0.0000
   289 H182      1.4466    5.6177   -2.4377   H         1 RES1   0.0000
   290 H183      1.9869    3.9700   -2.1993   H         1 RES1   0.0000
   291 H184      2.4971    4.8124    0.2777   H         1 RES1   0.0000
   292 H185      2.3703    6.4095   -0.4408   H         1 RES1   0.0000
   293 H186      4.1013    5.7861   -2.1332   H         1 RES1   0.0000
   294 H187      4.2190    4.1912   -1.4040   H         1 RES1   0.0000
   295 H188      4.8878    5.4149    0.7880   H         1 RES1   0.0000
   296 H189      5.0421    6.8612   -0.2050   H         1 RES1   0.0000
   297 H190      6.5816    4.2408   -0.5964   H         1 RES1   0.0000
   298 H191      7.2354    5.7727   -0.0309   H         1 RES1   0.0000
   299 H192      6.6721    5.6172   -1.6855   H         1 RES1   0.0000
   300 O7        0.5226    0.9460   -1.8549   O.3       1 RES1   0.0000
   301 H193      1.4510    1.1670   -2.0423   H         1 RES1   0.0000
   302 H194      0.0147    1.6921   -2.2045   H         1 RES1   0.0000
   303 O8       -0.8414   -2.5591    1.7166   O.3       1 RES1   0.0000
   304 H195     -1.4493   -3.2846    1.5069   H         1 RES1   0.0000
   305 H196     -0.4154   -2.8088    2.5503   H         1 RES1   0.0000
@<TRIPOS>BOND
     1     1    26    1
     2     1    28    1
     3     1    31    1
     4     1   175    1
     5     1   177    1
     6     1   180    1
     7     1   300    1
     8     1   303    1
     9     2     3    1
    10     2    55    1
    11     2    56    1
    12     2    57    1
    13     3     4    1
    14     3    58    1
    15     3    59    1
    16     4     5    1
    17     4    60    1
    18     4    61    1
    19     5     6    1
    20     5    62    1
    21     5    63    1
    22     6     7    1
    23     6    64    1
    24     6    65    1
    25     7     8    1
    26     7    66    1
    27     7    67    1
    28     8     9    1
    29     8    68    1
    30     8    69    1
    31     9    10    1
    32     9    70    1
    33     9    71    1
    34    10    11    1
    35    10    25    1
    36    11    12    1
    37    11    72    1
    38    11    73    1
    39    12    13    1
    40    12    74    1
    41    12    75    1
    42    13    14    1
    43    13    76    1
    44    13    77    1
    45    14    15    1
    46    14    19    1
    47    14    78    1
    48    15    16    1
    49    15    79    1
    50    15    80    1
    51    16    17    1
    52    16    81    1
    53    16    82    1
    54    17    18    1
    55    17    83    1
    56    17    84    1
    57    18    85    1
    58    18    86    1
    59    18    87    1
    60    19    20    1
    61    19    88    1
    62    19    89    1
    63    20    21    1
    64    20    90    1
    65    20    91    1
    66    21    22    1
    67    21    92    1
    68    21    93    1
    69    22    23    1
    70    22    94    1
    71    22    95    1
    72    23    24    1
    73    23    96    1
    74    23    97    1
    75    24    98    1
    76    24    99    1
    77    24   100    1
    78    25    26    2
    79    25    27    1
    80    27    28    1
    81    27   101    1
    82    27   102    1
    83    28    29    1
    84    29    30    1
    85    29   103    1
    86    29   104    1
    87    30    31    2
    88    30    32    1
    89    32    33    1
    90    32    41    1
    91    33    34    1
    92    33   105    1
    93    33   106    1
    94    34    35    1
    95    34   107    1
    96    34   108    1
    97    35    36    1
    98    35   109    1
    99    35   110    1
   100    36    37    1
   101    36   111    1
   102    36   112    1
   103    37    38    1
   104    37   113    1
   105    37   114    1
   106    38    39    1
   107    38   115    1
   108    38   116    1
   109    39    40    1
   110    39   117    1
   111    39   118    1
   112    40   119    1
   113    40   120    1
   114    40   121    1
   115    41    42    1
   116    41   122    1
   117    41   123    1
   118    42    43    1
   119    42   124    1
   120    42   125    1
   121    43    44    1
   122    43   126    1
   123    43   127    1
   124    44    45    1
   125    44    49    1
   126    44   128    1
   127    45    46    1
   128    45   129    1
   129    45   130    1
   130    46    47    1
   131    46   131    1
   132    46   132    1
   133    47    48    1
   134    47   133    1
   135    47   134    1
   136    48   135    1
   137    48   136    1
   138    48   137    1
   139    49    50    1
   140    49   138    1
   141    49   139    1
   142    50    51    1
   143    50   140    1
   144    50   141    1
   145    51    52    1
   146    51   142    1
   147    51   143    1
   148    52    53    1
   149    52   144    1
   150    52   145    1
   151    53    54    1
   152    53   146    1
   153    53   147    1
   154    54   148    1
   155    54   149    1
   156    54   150    1
   157   151   152    1
   158   151   204    1
   159   151   205    1
   160   151   206    1
   161   152   153    1
   162   152   207    1
   163   152   208    1
   164   153   154    1
   165   153   209    1
   166   153   210    1
   167   154   155    1
   168   154   211    1
   169   154   212    1
   170   155   156    1
   171   155   213    1
   172   155   214    1
   173   156   157    1
   174   156   215    1
   175   156   216    1
   176   157   158    1
   177   157   217    1
   178   157   218    1
   179   158   159    1
   180   158   219    1
   181   158   220    1
   182   159   160    1
   183   159   174    1
   184   160   161    1
   185   160   221    1
   186   160   222    1
   187   161   162    1
   188   161   223    1
   189   161   224    1
   190   162   163    1
   191   162   225    1
   192   162   226    1
   193   163   164    1
   194   163   168    1
   195   163   227    1
   196   164   165    1
   197   164   228    1
   198   164   229    1
   199   165   166    1
   200   165   230    1
   201   165   231    1
   202   166   167    1
   203   166   232    1
   204   166   233    1
   205   167   234    1
   206   167   235    1
   207   167   236    1
   208   168   169    1
   209   168   237    1
   210   168   238    1
   211   169   170    1
   212   169   239    1
   213   169   240    1
   214   170   171    1
   215   170   241    1
   216   170   242    1
   217   171   172    1
   218   171   243    1
   219   171   244    1
   220   172   173    1
   221   172   245    1
   222   172   246    1
   223   173   247    1
   224   173   248    1
   225   173   249    1
   226   174   175    2
   227   174   176    1
   228   176   177    1
   229   176   250    1
   230   176   251    1
   231   177   178    1
   232   178   179    1
   233   178   252    1
   234   178   253    1
   235   179   180    2
   236   179   181    1
   237   181   182    1
   238   181   190    1
   239   182   183    1
   240   182   254    1
   241   182   255    1
   242   183   184    1
   243   183   256    1
   244   183   257    1
   245   184   185    1
   246   184   258    1
   247   184   259    1
   248   185   186    1
   249   185   260    1
   250   185   261    1
   251   186   187    1
   252   186   262    1
   253   186   263    1
   254   187   188    1
   255   187   264    1
   256   187   265    1
   257   188   189    1
   258   188   266    1
   259   188   267    1
   260   189   268    1
   261   189   269    1
   262   189   270    1
   263   190   191    1
   264   190   271    1
   265   190   272    1
   266   191   192    1
   267   191   273    1
   268   191   274    1
   269   192   193    1
   270   192   275    1
   271   192   276    1
   272   193   194    1
   273   193   198    1
   274   193   277    1
   275   194   195    1
   276   194   278    1
   277   194   279    1
   278   195   196    1
   279   195   280    1
   280   195   281    1
   281   196   197    1
   282   196   282    1
   283   196   283    1
   284   197   284    1
   285   197   285    1
   286   197   286    1
   287   198   199    1
   288   198   287    1
   289   198   288    1
   290   199   200    1
   291   199   289    1
   292   199   290    1
   293   200   201    1
   294   200   291    1
   295   200   292    1
   296   201   202    1
   297   201   293    1
   298   201   294    1
   299   202   203    1
   300   202   295    1
   301   202   296    1
   302   203   297    1
   303   203   298    1
   304   203   299    1
   305   300   301    1
   306   300   302    1
   307   303   304    1
   308   303   305    1
@<TRIPOS>SUBSTRUCTURE
     1 RES1      305 GROUP             0 ****  ****    0  
