@<TRIPOS>MOLECULE
YEMSEP_geometry_0_nunpairedes_0_charge_2 Charge: 2 Unpaired_Electrons: 0 XTB_Unpaired_Electrons: 0 XTB_Charge: 2
   297   301     1     0     0
SMALL
NoCharges
****
Generated from Architector

@<TRIPOS>ATOM
     1 Lu1      -0.1667    0.0550   -0.2229   Lu        1 RES1   0.0000
     2 C1        5.9703    7.1287   -0.0253   C.3       1 RES1   0.0000
     3 C2        5.8719    6.0373    1.0357   C.3       1 RES1   0.0000
     4 C3        7.2069    5.2965    1.2215   C.3       1 RES1   0.0000
     5 C4        7.4834    4.8886    2.6705   C.3       1 RES1   0.0000
     6 C5        6.6137    3.7534    3.2134   C.3       1 RES1   0.0000
     7 C6        7.1232    2.3687    2.8026   C.3       1 RES1   0.0000
     8 C7        6.1963    1.2709    3.3320   C.3       1 RES1   0.0000
     9 C8        6.6788   -0.1570    3.0372   C.3       1 RES1   0.0000
    10 C9        6.2469   -0.7037    1.6662   C.3       1 RES1   0.0000
    11 C10       5.0118   -1.6289    1.6573   C.3       1 RES1   0.0000
    12 N1        3.6932   -1.0138    1.8275   N.am      1 RES1   0.0000
    13 C11       3.3599   -0.9340    3.2677   C.3       1 RES1   0.0000
    14 C12       1.9635   -0.5692    3.7747   C.3       1 RES1   0.0000
    15 C13       1.9709   -0.6092    5.3218   C.3       1 RES1   0.0000
    16 C14       0.6213   -0.9473    5.9828   C.3       1 RES1   0.0000
    17 C15      -0.2774    0.2770    6.1982   C.3       1 RES1   0.0000
    18 C16      -0.1083    0.9373    7.5727   C.3       1 RES1   0.0000
    19 C17      -0.3844    2.4434    7.5642   C.3       1 RES1   0.0000
    20 C18      -1.7078    2.8791    6.9292   C.3       1 RES1   0.0000
    21 C19      -1.7662    4.3981    6.7620   C.3       1 RES1   0.0000
    22 C20      -3.0332    4.8498    6.0446   C.3       1 RES1   0.0000
    23 C21       2.8727   -0.6613    0.8391   C.2       1 RES1   0.0000
    24 O1        1.7542   -0.1682    1.0746   O.2       1 RES1   0.0000
    25 C22       3.1432   -0.9525   -0.6704   C.3       1 RES1   0.0000
    26 C23       4.5520   -0.9167   -1.2658   C.3       1 RES1   0.0000
    27 O2        2.2469   -0.0517   -1.3889   O.3       1 RES1   0.0000
    28 C24       1.8952   -0.4800   -2.7129   C.3       1 RES1   0.0000
    29 C25       1.1756    0.6360   -3.5252   C.3       1 RES1   0.0000
    30 C26       0.8090    1.8995   -2.7535   C.3       1 RES1   0.0000
    31 C27       0.9383   -1.6711   -2.5653   C.2       1 RES1   0.0000
    32 O3        0.4874   -1.8785   -1.4198   O.2       1 RES1   0.0000
    33 N2        0.6332   -2.4116   -3.6188   N.am      1 RES1   0.0000
    34 C28       1.1050   -2.1784   -4.9780   C.3       1 RES1   0.0000
    35 C29       2.1509   -3.1982   -5.4419   C.3       1 RES1   0.0000
    36 C30       3.5667   -2.9392   -4.9175   C.3       1 RES1   0.0000
    37 C31       4.2219   -1.6723   -5.4984   C.3       1 RES1   0.0000
    38 C32       5.6860   -1.8904   -5.8935   C.3       1 RES1   0.0000
    39 C33       6.6555   -2.0386   -4.7128   C.3       1 RES1   0.0000
    40 C34       7.1339   -0.6944   -4.1634   C.3       1 RES1   0.0000
    41 C35       8.1014   -0.8433   -2.9904   C.3       1 RES1   0.0000
    42 C36       8.7254    0.4977   -2.6073   C.3       1 RES1   0.0000
    43 C37       9.6616    0.3771   -1.4113   C.3       1 RES1   0.0000
    44 C38      -0.3403   -3.4928   -3.4794   C.3       1 RES1   0.0000
    45 C39      -1.7852   -3.0152   -3.7084   C.3       1 RES1   0.0000
    46 C40      -2.6634   -3.2741   -2.4849   C.3       1 RES1   0.0000
    47 C41      -2.9528   -4.7666   -2.3158   C.3       1 RES1   0.0000
    48 C42      -3.8004   -5.0668   -1.0787   C.3       1 RES1   0.0000
    49 C43      -4.4294   -6.4617   -1.1237   C.3       1 RES1   0.0000
    50 C44      -3.4293   -7.6180   -1.1589   C.3       1 RES1   0.0000
    51 C45      -2.4647   -7.6535    0.0260   C.3       1 RES1   0.0000
    52 C46      -3.1564   -7.5929    1.3869   C.3       1 RES1   0.0000
    53 C47      -2.1793   -7.8993    2.5153   C.3       1 RES1   0.0000
    54 H1        5.0079    7.6032   -0.1944   H         1 RES1   0.0000
    55 H2        6.3173    6.7190   -0.9740   H         1 RES1   0.0000
    56 H3        6.6582    7.9055    0.2904   H         1 RES1   0.0000
    57 H4        5.0799    5.3372    0.7513   H         1 RES1   0.0000
    58 H5        5.5785    6.4971    1.9796   H         1 RES1   0.0000
    59 H6        8.0145    5.9616    0.9058   H         1 RES1   0.0000
    60 H7        7.2418    4.4210    0.5690   H         1 RES1   0.0000
    61 H8        7.3567    5.7763    3.2922   H         1 RES1   0.0000
    62 H9        8.5232    4.5699    2.7457   H         1 RES1   0.0000
    63 H10       5.5833    3.8826    2.8786   H         1 RES1   0.0000
    64 H11       6.6056    3.8039    4.3011   H         1 RES1   0.0000
    65 H12       8.1269    2.2223    3.2116   H         1 RES1   0.0000
    66 H13       7.2164    2.3088    1.7153   H         1 RES1   0.0000
    67 H14       5.2054    1.4269    2.9035   H         1 RES1   0.0000
    68 H15       6.1127    1.4022    4.4117   H         1 RES1   0.0000
    69 H16       6.3379   -0.8366    3.8218   H         1 RES1   0.0000
    70 H17       7.7705   -0.1457    3.0847   H         1 RES1   0.0000
    71 H18       7.0603   -1.3148    1.2730   H         1 RES1   0.0000
    72 H19       6.1196    0.1376    0.9865   H         1 RES1   0.0000
    73 H20       5.1532   -2.3603    2.4609   H         1 RES1   0.0000
    74 H21       4.9991   -2.1963    0.7320   H         1 RES1   0.0000
    75 H22       4.0796   -0.2357    3.7013   H         1 RES1   0.0000
    76 H23       3.5856   -1.9299    3.6624   H         1 RES1   0.0000
    77 H24       1.2279   -1.2728    3.3817   H         1 RES1   0.0000
    78 H25       1.6842    0.4220    3.4241   H         1 RES1   0.0000
    79 H26       2.3125    0.3553    5.7020   H         1 RES1   0.0000
    80 H27       2.6934   -1.3558    5.6522   H         1 RES1   0.0000
    81 H28       0.8065   -1.3993    6.9594   H         1 RES1   0.0000
    82 H29       0.1059   -1.6951    5.3722   H         1 RES1   0.0000
    83 H30      -1.3244   -0.0044    6.0863   H         1 RES1   0.0000
    84 H31      -0.0379    1.0044    5.4219   H         1 RES1   0.0000
    85 H32       0.9173    0.7980    7.9184   H         1 RES1   0.0000
    86 H33      -0.7554    0.4313    8.2902   H         1 RES1   0.0000
    87 H34       0.4394    2.9356    7.0388   H         1 RES1   0.0000
    88 H35      -0.3552    2.8094    8.5915   H         1 RES1   0.0000
    89 H36      -2.5459    2.5223    7.5353   H         1 RES1   0.0000
    90 H37      -1.8101    2.4391    5.9350   H         1 RES1   0.0000
    91 H38      -0.8934    4.7137    6.1853   H         1 RES1   0.0000
    92 H39      -1.7015    4.8807    7.7385   H         1 RES1   0.0000
    93 H40      -3.2324    4.2101    5.1852   H         1 RES1   0.0000
    94 H41      -2.9440    5.8806    5.7056   H         1 RES1   0.0000
    95 H42      -3.8921    4.7900    6.7054   H         1 RES1   0.0000
    96 H43       2.7594   -1.9808   -0.7673   H         1 RES1   0.0000
    97 H44       5.1968   -0.1569   -0.8456   H         1 RES1   0.0000
    98 H45       4.4968   -0.7226   -2.3329   H         1 RES1   0.0000
    99 H46       5.0357   -1.8825   -1.1618   H         1 RES1   0.0000
   100 H47       2.7983   -0.7834   -3.2495   H         1 RES1   0.0000
   101 H48       1.8138    0.9347   -4.3629   H         1 RES1   0.0000
   102 H49       0.2562    0.2159   -3.9423   H         1 RES1   0.0000
   103 H50       0.2717    1.6811   -1.8214   H         1 RES1   0.0000
   104 H51       0.1758    2.5248   -3.3846   H         1 RES1   0.0000
   105 H52       1.6969    2.4734   -2.5081   H         1 RES1   0.0000
   106 H53       1.5189   -1.1827   -5.0784   H         1 RES1   0.0000
   107 H54       0.2215   -2.2330   -5.6172   H         1 RES1   0.0000
   108 H55       2.1802   -3.1722   -6.5306   H         1 RES1   0.0000
   109 H56       1.8379   -4.1995   -5.1468   H         1 RES1   0.0000
   110 H57       4.1719   -3.8030   -5.2013   H         1 RES1   0.0000
   111 H58       3.5549   -2.9126   -3.8242   H         1 RES1   0.0000
   112 H59       4.1716   -0.8385   -4.7940   H         1 RES1   0.0000
   113 H60       3.6756   -1.3692   -6.3938   H         1 RES1   0.0000
   114 H61       6.0110   -1.0486   -6.5084   H         1 RES1   0.0000
   115 H62       5.7324   -2.7852   -6.5174   H         1 RES1   0.0000
   116 H63       7.5326   -2.5937   -5.0517   H         1 RES1   0.0000
   117 H64       6.1842   -2.6243   -3.9199   H         1 RES1   0.0000
   118 H65       6.2787   -0.0865   -3.8519   H         1 RES1   0.0000
   119 H66       7.6432   -0.1558   -4.9658   H         1 RES1   0.0000
   120 H67       8.8956   -1.5399   -3.2659   H         1 RES1   0.0000
   121 H68       7.5804   -1.2650   -2.1258   H         1 RES1   0.0000
   122 H69       7.9318    1.2192   -2.3873   H         1 RES1   0.0000
   123 H70       9.2900    0.8850   -3.4574   H         1 RES1   0.0000
   124 H71       9.1265    0.0446   -0.5233   H         1 RES1   0.0000
   125 H72      10.1252    1.3360   -1.1943   H         1 RES1   0.0000
   126 H73      10.4510   -0.3404   -1.6209   H         1 RES1   0.0000
   127 H74      -0.2380   -3.9067   -2.4746   H         1 RES1   0.0000
   128 H75      -0.0811   -4.2652   -4.2020   H         1 RES1   0.0000
   129 H76      -2.2234   -3.5298   -4.5657   H         1 RES1   0.0000
   130 H77      -1.7897   -1.9473   -3.9303   H         1 RES1   0.0000
   131 H78      -3.6086   -2.7381   -2.5963   H         1 RES1   0.0000
   132 H79      -2.1608   -2.8762   -1.5969   H         1 RES1   0.0000
   133 H80      -2.0141   -5.3236   -2.2607   H         1 RES1   0.0000
   134 H81      -3.4841   -5.1184   -3.2042   H         1 RES1   0.0000
   135 H82      -4.6071   -4.3325   -1.0171   H         1 RES1   0.0000
   136 H83      -3.1911   -4.9548   -0.1799   H         1 RES1   0.0000
   137 H84      -5.0513   -6.5318   -2.0174   H         1 RES1   0.0000
   138 H85      -5.0868   -6.5842   -0.2611   H         1 RES1   0.0000
   139 H86      -2.8509   -7.5725   -2.0838   H         1 RES1   0.0000
   140 H87      -3.9932   -8.5519   -1.1818   H         1 RES1   0.0000
   141 H88      -1.7518   -6.8289   -0.0595   H         1 RES1   0.0000
   142 H89      -1.8874   -8.5773   -0.0335   H         1 RES1   0.0000
   143 H90      -3.9741   -8.3139    1.4046   H         1 RES1   0.0000
   144 H91      -3.5888   -6.6017    1.5410   H         1 RES1   0.0000
   145 H92      -1.8109   -8.9184    2.4259   H         1 RES1   0.0000
   146 H93      -2.6608   -7.7993    3.4854   H         1 RES1   0.0000
   147 H94      -1.3247   -7.2225    2.4756   H         1 RES1   0.0000
   148 C48      -2.0506    6.7529   -0.7584   C.3       1 RES1   0.0000
   149 C49      -1.9936    6.2780    0.6885   C.3       1 RES1   0.0000
   150 C50      -2.0985    7.4279    1.6933   C.3       1 RES1   0.0000
   151 C51      -1.0351    8.5206    1.5436   C.3       1 RES1   0.0000
   152 C52       0.4067    8.0117    1.4885   C.3       1 RES1   0.0000
   153 C53       0.7640    7.2204    2.7458   C.3       1 RES1   0.0000
   154 C54       2.0451    6.3944    2.6347   C.3       1 RES1   0.0000
   155 C55       2.3107    5.6057    3.9230   C.3       1 RES1   0.0000
   156 C56       1.2427    4.5680    4.2943   C.3       1 RES1   0.0000
   157 C57       1.4787    3.1148    3.8597   C.3       1 RES1   0.0000
   158 N3        1.4366    2.8213    2.4268   N.am      1 RES1   0.0000
   159 C58       2.7907    2.9271    1.8401   C.3       1 RES1   0.0000
   160 C59       3.0620    2.9049    0.3302   C.3       1 RES1   0.0000
   161 C60       4.5366    2.4951    0.1721   C.3       1 RES1   0.0000
   162 C61       5.2158    2.7749   -1.1763   C.3       1 RES1   0.0000
   163 C62       4.2706    2.7774   -2.3695   C.3       1 RES1   0.0000
   164 C63       5.0262    2.8893   -3.6944   C.3       1 RES1   0.0000
   165 C64       4.0562    3.0165   -4.8626   C.3       1 RES1   0.0000
   166 C65       4.6965    3.1454   -6.2443   C.3       1 RES1   0.0000
   167 C66       3.5912    3.2566   -7.2937   C.3       1 RES1   0.0000
   168 C67       4.0953    3.3895   -8.7239   C.3       1 RES1   0.0000
   169 C68       0.4214    2.2232    1.8072   C.2       1 RES1   0.0000
   170 O4        0.4319    1.9902    0.5848   O.2       1 RES1   0.0000
   171 C69      -0.8607    1.7899    2.5652   C.3       1 RES1   0.0000
   172 C70      -1.8517    2.9473    2.6623   C.3       1 RES1   0.0000
   173 O5       -1.4242    0.7231    1.7854   O.3       1 RES1   0.0000
   174 C71      -2.2410   -0.2614    2.4439   C.3       1 RES1   0.0000
   175 C72      -3.7119   -0.1137    2.0147   C.3       1 RES1   0.0000
   176 C73      -3.9662   -0.4204    0.5356   C.3       1 RES1   0.0000
   177 C74      -1.5615   -1.6047    2.0560   C.2       1 RES1   0.0000
   178 O6       -0.5556   -1.4974    1.3199   O.2       1 RES1   0.0000
   179 N4       -1.8854   -2.7979    2.5397   N.am      1 RES1   0.0000
   180 C75      -3.1570   -3.2373    3.1000   C.3       1 RES1   0.0000
   181 C76      -3.0963   -3.5340    4.6016   C.3       1 RES1   0.0000
   182 C77      -3.0927   -2.2794    5.4751   C.3       1 RES1   0.0000
   183 C78      -4.4529   -1.5603    5.4893   C.3       1 RES1   0.0000
   184 C79      -5.2091   -1.7342    6.8134   C.3       1 RES1   0.0000
   185 C80      -4.8294   -0.6988    7.8759   C.3       1 RES1   0.0000
   186 C81      -5.3432    0.7031    7.5492   C.3       1 RES1   0.0000
   187 C82      -5.1554    1.6725    8.7111   C.3       1 RES1   0.0000
   188 C83      -5.6913    3.0623    8.3756   C.3       1 RES1   0.0000
   189 C84      -5.2187    4.1014    9.3850   C.3       1 RES1   0.0000
   190 C85      -0.8860   -3.8626    2.3724   C.3       1 RES1   0.0000
   191 C86      -0.5666   -4.2487    0.9210   C.3       1 RES1   0.0000
   192 C87       0.9093   -4.0852    0.5432   C.3       1 RES1   0.0000
   193 C88       1.7524   -5.3542    0.6381   C.3       1 RES1   0.0000
   194 C89       3.1386   -5.1093    0.0384   C.3       1 RES1   0.0000
   195 C90       3.9578   -6.3912   -0.1188   C.3       1 RES1   0.0000
   196 C91       4.2296   -7.1215    1.1952   C.3       1 RES1   0.0000
   197 C92       4.9279   -6.2751    2.2598   C.3       1 RES1   0.0000
   198 C93       6.2596   -5.6933    1.7873   C.3       1 RES1   0.0000
   199 C94       7.0478   -5.0629    2.9316   C.3       1 RES1   0.0000
   200 H95      -2.0648    5.9043   -1.4400   H         1 RES1   0.0000
   201 H96      -2.9500    7.3414   -0.9216   H         1 RES1   0.0000
   202 H97      -1.1890    7.3693   -1.0034   H         1 RES1   0.0000
   203 H98      -2.8284    5.5939    0.8710   H         1 RES1   0.0000
   204 H99      -1.0686    5.7199    0.8536   H         1 RES1   0.0000
   205 H100     -3.0803    7.8929    1.5858   H         1 RES1   0.0000
   206 H101     -2.0643    7.0149    2.7052   H         1 RES1   0.0000
   207 H102     -1.2390    9.0946    0.6423   H         1 RES1   0.0000
   208 H103     -1.1425    9.2039    2.3870   H         1 RES1   0.0000
   209 H104      0.5490    7.3851    0.6049   H         1 RES1   0.0000
   210 H105      1.0751    8.8679    1.3859   H         1 RES1   0.0000
   211 H106      0.8604    7.9080    3.5874   H         1 RES1   0.0000
   212 H107     -0.0648    6.5457    2.9620   H         1 RES1   0.0000
   213 H108      1.9787    5.7267    1.7716   H         1 RES1   0.0000
   214 H109      2.8883    7.0694    2.4728   H         1 RES1   0.0000
   215 H110      3.2908    5.1230    3.8826   H         1 RES1   0.0000
   216 H111      2.3530    6.3369    4.7335   H         1 RES1   0.0000
   217 H112      1.2038    4.5207    5.3844   H         1 RES1   0.0000
   218 H113      0.2689    4.9157    3.9574   H         1 RES1   0.0000
   219 H114      2.4608    2.8036    4.2319   H         1 RES1   0.0000
   220 H115      0.7329    2.5106    4.3707   H         1 RES1   0.0000
   221 H116      3.2041    3.8580    2.2171   H         1 RES1   0.0000
   222 H117      3.3576    2.0981    2.2814   H         1 RES1   0.0000
   223 H118      2.4405    2.1777   -0.1918   H         1 RES1   0.0000
   224 H119      2.8661    3.8914   -0.0917   H         1 RES1   0.0000
   225 H120      5.1348    2.9980    0.9322   H         1 RES1   0.0000
   226 H121      4.5667    1.4215    0.3819   H         1 RES1   0.0000
   227 H122      5.7124    3.7443   -1.1278   H         1 RES1   0.0000
   228 H123      5.9991    2.0261   -1.3402   H         1 RES1   0.0000
   229 H124      3.6772    1.8625   -2.3633   H         1 RES1   0.0000
   230 H125      3.5960    3.6311   -2.2741   H         1 RES1   0.0000
   231 H126      5.6736    3.7648   -3.6543   H         1 RES1   0.0000
   232 H127      5.6647    2.0145   -3.8321   H         1 RES1   0.0000
   233 H128      3.4074    2.1350   -4.8663   H         1 RES1   0.0000
   234 H129      3.4236    3.8908   -4.6906   H         1 RES1   0.0000
   235 H130      5.3367    4.0282   -6.2829   H         1 RES1   0.0000
   236 H131      5.3209    2.2735   -6.4520   H         1 RES1   0.0000
   237 H132      2.9557    2.3700   -7.2229   H         1 RES1   0.0000
   238 H133      2.9731    4.1232   -7.0518   H         1 RES1   0.0000
   239 H134      4.6762    2.5195   -9.0229   H         1 RES1   0.0000
   240 H135      3.2489    3.4781   -9.4005   H         1 RES1   0.0000
   241 H136      4.7168    4.2733   -8.8404   H         1 RES1   0.0000
   242 H137     -0.6059    1.4020    3.5560   H         1 RES1   0.0000
   243 H138     -1.9914    3.3741    1.6748   H         1 RES1   0.0000
   244 H139     -2.8086    2.5744    3.0244   H         1 RES1   0.0000
   245 H140     -1.5000    3.7129    3.3471   H         1 RES1   0.0000
   246 H141     -2.1621   -0.1352    3.5341   H         1 RES1   0.0000
   247 H142     -4.0212    0.9113    2.2135   H         1 RES1   0.0000
   248 H143     -4.3246   -0.7499    2.6531   H         1 RES1   0.0000
   249 H144     -3.9064    0.4890   -0.0551   H         1 RES1   0.0000
   250 H145     -3.2490   -1.1458    0.1431   H         1 RES1   0.0000
   251 H146     -4.9638   -0.8317    0.3980   H         1 RES1   0.0000
   252 H147     -3.9225   -2.4959    2.8984   H         1 RES1   0.0000
   253 H148     -3.4431   -4.1452    2.5565   H         1 RES1   0.0000
   254 H149     -3.9654   -4.1376    4.8610   H         1 RES1   0.0000
   255 H150     -2.2044   -4.1227    4.8126   H         1 RES1   0.0000
   256 H151     -2.8355   -2.5742    6.4922   H         1 RES1   0.0000
   257 H152     -2.3011   -1.6111    5.1326   H         1 RES1   0.0000
   258 H153     -4.3155   -0.4949    5.2984   H         1 RES1   0.0000
   259 H154     -5.0841   -1.9561    4.6888   H         1 RES1   0.0000
   260 H155     -6.2815   -1.6528    6.6234   H         1 RES1   0.0000
   261 H156     -5.0217   -2.7419    7.1945   H         1 RES1   0.0000
   262 H157     -5.2607   -1.0078    8.8306   H         1 RES1   0.0000
   263 H158     -3.7428   -0.6706    7.9998   H         1 RES1   0.0000
   264 H159     -4.8191    1.1033    6.6762   H         1 RES1   0.0000
   265 H160     -6.4051    0.6507    7.3016   H         1 RES1   0.0000
   266 H161     -5.6677    1.2908    9.5953   H         1 RES1   0.0000
   267 H162     -4.0925    1.7405    8.9585   H         1 RES1   0.0000
   268 H163     -5.3588    3.3418    7.3721   H         1 RES1   0.0000
   269 H164     -6.7819    3.0374    8.3582   H         1 RES1   0.0000
   270 H165     -4.1312    4.1732    9.3778   H         1 RES1   0.0000
   271 H166     -5.6298    5.0819    9.1541   H         1 RES1   0.0000
   272 H167     -5.5370    3.8241   10.3874   H         1 RES1   0.0000
   273 H168      0.0307   -3.5197    2.8601   H         1 RES1   0.0000
   274 H169     -1.2688   -4.7239    2.9174   H         1 RES1   0.0000
   275 H170     -0.8568   -5.2847    0.7562   H         1 RES1   0.0000
   276 H171     -1.1631   -3.6306    0.2541   H         1 RES1   0.0000
   277 H172      0.9513   -3.7393   -0.4880   H         1 RES1   0.0000
   278 H173      1.3586   -3.2984    1.1559   H         1 RES1   0.0000
   279 H174      1.8457   -5.6729    1.6760   H         1 RES1   0.0000
   280 H175      1.2725   -6.1631    0.0831   H         1 RES1   0.0000
   281 H176      3.0135   -4.6589   -0.9544   H         1 RES1   0.0000
   282 H177      3.6839   -4.3922    0.6585   H         1 RES1   0.0000
   283 H178      3.4239   -7.0684   -0.7885   H         1 RES1   0.0000
   284 H179      4.9064   -6.1492   -0.6004   H         1 RES1   0.0000
   285 H180      3.2847   -7.4852    1.5984   H         1 RES1   0.0000
   286 H181      4.8490   -7.9942    0.9813   H         1 RES1   0.0000
   287 H182      4.2728   -5.4654    2.5930   H         1 RES1   0.0000
   288 H183      5.1119   -6.9121    3.1267   H         1 RES1   0.0000
   289 H184      6.8545   -6.4935    1.3426   H         1 RES1   0.0000
   290 H185      6.0882   -4.9367    1.0164   H         1 RES1   0.0000
   291 H186      7.2984   -5.8144    3.6771   H         1 RES1   0.0000
   292 H187      7.9721   -4.6242    2.5602   H         1 RES1   0.0000
   293 H188      6.4715   -4.2774    3.4221   H         1 RES1   0.0000
   294 N5       -2.0255    0.7214   -1.8376   N.3       1 RES1   0.0000
   295 O7       -2.7661    1.0612   -2.7008   O.2       1 RES1   0.0000
   296 O8       -1.8574    1.3840   -0.8068   O.co2     1 RES1   0.0000
   297 O9       -1.3574   -0.3305   -1.9249   O.co2     1 RES1   0.0000
@<TRIPOS>BOND
     1     1    24    1
     2     1    27    1
     3     1    32    1
     4     1   170    1
     5     1   173    1
     6     1   178    1
     7     1   296    1
     8     1   297    1
     9     2     3    1
    10     2    54    1
    11     2    55    1
    12     2    56    1
    13     3     4    1
    14     3    57    1
    15     3    58    1
    16     4     5    1
    17     4    59    1
    18     4    60    1
    19     5     6    1
    20     5    61    1
    21     5    62    1
    22     6     7    1
    23     6    63    1
    24     6    64    1
    25     7     8    1
    26     7    65    1
    27     7    66    1
    28     8     9    1
    29     8    67    1
    30     8    68    1
    31     9    10    1
    32     9    69    1
    33     9    70    1
    34    10    11    1
    35    10    71    1
    36    10    72    1
    37    11    12    1
    38    11    73    1
    39    11    74    1
    40    12    13    1
    41    12    23    1
    42    13    14    1
    43    13    75    1
    44    13    76    1
    45    14    15    1
    46    14    77    1
    47    14    78    1
    48    15    16    1
    49    15    79    1
    50    15    80    1
    51    16    17    1
    52    16    81    1
    53    16    82    1
    54    17    18    1
    55    17    83    1
    56    17    84    1
    57    18    19    1
    58    18    85    1
    59    18    86    1
    60    19    20    1
    61    19    87    1
    62    19    88    1
    63    20    21    1
    64    20    89    1
    65    20    90    1
    66    21    22    1
    67    21    91    1
    68    21    92    1
    69    22    93    1
    70    22    94    1
    71    22    95    1
    72    23    24    2
    73    23    25    1
    74    25    26    1
    75    25    27    1
    76    25    96    1
    77    26    97    1
    78    26    98    1
    79    26    99    1
    80    27    28    1
    81    28    29    1
    82    28    31    1
    83    28   100    1
    84    29    30    1
    85    29   101    1
    86    29   102    1
    87    30   103    1
    88    30   104    1
    89    30   105    1
    90    31    32    2
    91    31    33    1
    92    33    34    1
    93    33    44    1
    94    34    35    1
    95    34   106    1
    96    34   107    1
    97    35    36    1
    98    35   108    1
    99    35   109    1
   100    36    37    1
   101    36   110    1
   102    36   111    1
   103    37    38    1
   104    37   112    1
   105    37   113    1
   106    38    39    1
   107    38   114    1
   108    38   115    1
   109    39    40    1
   110    39   116    1
   111    39   117    1
   112    40    41    1
   113    40   118    1
   114    40   119    1
   115    41    42    1
   116    41   120    1
   117    41   121    1
   118    42    43    1
   119    42   122    1
   120    42   123    1
   121    43   124    1
   122    43   125    1
   123    43   126    1
   124    44    45    1
   125    44   127    1
   126    44   128    1
   127    45    46    1
   128    45   129    1
   129    45   130    1
   130    46    47    1
   131    46   131    1
   132    46   132    1
   133    47    48    1
   134    47   133    1
   135    47   134    1
   136    48    49    1
   137    48   135    1
   138    48   136    1
   139    49    50    1
   140    49   137    1
   141    49   138    1
   142    50    51    1
   143    50   139    1
   144    50   140    1
   145    51    52    1
   146    51   141    1
   147    51   142    1
   148    52    53    1
   149    52   143    1
   150    52   144    1
   151    53   145    1
   152    53   146    1
   153    53   147    1
   154   148   149    1
   155   148   200    1
   156   148   201    1
   157   148   202    1
   158   149   150    1
   159   149   203    1
   160   149   204    1
   161   150   151    1
   162   150   205    1
   163   150   206    1
   164   151   152    1
   165   151   207    1
   166   151   208    1
   167   152   153    1
   168   152   209    1
   169   152   210    1
   170   153   154    1
   171   153   211    1
   172   153   212    1
   173   154   155    1
   174   154   213    1
   175   154   214    1
   176   155   156    1
   177   155   215    1
   178   155   216    1
   179   156   157    1
   180   156   217    1
   181   156   218    1
   182   157   158    1
   183   157   219    1
   184   157   220    1
   185   158   159    1
   186   158   169    1
   187   159   160    1
   188   159   221    1
   189   159   222    1
   190   160   161    1
   191   160   223    1
   192   160   224    1
   193   161   162    1
   194   161   225    1
   195   161   226    1
   196   162   163    1
   197   162   227    1
   198   162   228    1
   199   163   164    1
   200   163   229    1
   201   163   230    1
   202   164   165    1
   203   164   231    1
   204   164   232    1
   205   165   166    1
   206   165   233    1
   207   165   234    1
   208   166   167    1
   209   166   235    1
   210   166   236    1
   211   167   168    1
   212   167   237    1
   213   167   238    1
   214   168   239    1
   215   168   240    1
   216   168   241    1
   217   169   170    2
   218   169   171    1
   219   171   172    1
   220   171   173    1
   221   171   242    1
   222   172   243    1
   223   172   244    1
   224   172   245    1
   225   173   174    1
   226   174   175    1
   227   174   177    1
   228   174   246    1
   229   175   176    1
   230   175   247    1
   231   175   248    1
   232   176   249    1
   233   176   250    1
   234   176   251    1
   235   177   178    2
   236   177   179    1
   237   179   180    1
   238   179   190    1
   239   180   181    1
   240   180   252    1
   241   180   253    1
   242   181   182    1
   243   181   254    1
   244   181   255    1
   245   182   183    1
   246   182   256    1
   247   182   257    1
   248   183   184    1
   249   183   258    1
   250   183   259    1
   251   184   185    1
   252   184   260    1
   253   184   261    1
   254   185   186    1
   255   185   262    1
   256   185   263    1
   257   186   187    1
   258   186   264    1
   259   186   265    1
   260   187   188    1
   261   187   266    1
   262   187   267    1
   263   188   189    1
   264   188   268    1
   265   188   269    1
   266   189   270    1
   267   189   271    1
   268   189   272    1
   269   190   191    1
   270   190   273    1
   271   190   274    1
   272   191   192    1
   273   191   275    1
   274   191   276    1
   275   192   193    1
   276   192   277    1
   277   192   278    1
   278   193   194    1
   279   193   279    1
   280   193   280    1
   281   194   195    1
   282   194   281    1
   283   194   282    1
   284   195   196    1
   285   195   283    1
   286   195   284    1
   287   196   197    1
   288   196   285    1
   289   196   286    1
   290   197   198    1
   291   197   287    1
   292   197   288    1
   293   198   199    1
   294   198   289    1
   295   198   290    1
   296   199   291    1
   297   199   292    1
   298   199   293    1
   299   294   295    2
   300   294   296    1
   301   294   297    1
@<TRIPOS>SUBSTRUCTURE
     1 RES1      297 GROUP             0 ****  ****    0  
