@<TRIPOS>MOLECULE
square_prismatic_0_nunpairedes_0_charge_3 Charge: 3 Unpaired_Electrons: 0 XTB_Unpaired_Electrons: 0 XTB_Charge: 3
   253   264     1     0     0
SMALL
NoCharges
****
Generated from Architector

@<TRIPOS>ATOM
     1 Lu1       0.0184    0.0598    0.0779   Lu        1 RES1   0.0000
     2 C1       -3.4388    3.0704   -5.9123   C.3       1 RES1   0.0000
     3 C2       -2.5428    1.8644   -6.1858   C.3       1 RES1   0.0000
     4 C3       -2.5149    0.8095   -5.0726   C.3       1 RES1   0.0000
     5 C4       -3.9013    0.2614   -4.7340   C.3       1 RES1   0.0000
     6 C5       -3.8977   -0.8641   -3.6910   C.3       1 RES1   0.0000
     7 C6       -3.6894   -2.2639   -4.2851   C.3       1 RES1   0.0000
     8 C7       -2.2288   -2.7078   -4.2506   C.3       1 RES1   0.0000
     9 C8       -1.8436   -3.2604   -2.8750   C.3       1 RES1   0.0000
    10 N1       -0.3939   -3.1770   -2.7197   N.am      1 RES1   0.0000
    11 C9        0.3969   -4.1617   -3.4497   C.3       1 RES1   0.0000
    12 C10      -0.2008   -5.5762   -3.4496   C.3       1 RES1   0.0000
    13 C11      -0.2975   -6.1710   -2.0432   C.3       1 RES1   0.0000
    14 C12       1.0703   -6.5128   -1.4549   C.3       1 RES1   0.0000
    15 C13       1.5986   -7.9360   -1.6903   C.3       1 RES1   0.0000
    16 C14       2.8064   -7.9935   -2.6311   C.3       1 RES1   0.0000
    17 C15       3.6913   -9.2336   -2.4290   C.3       1 RES1   0.0000
    18 C16       4.9891   -8.9056   -1.6928   C.3       1 RES1   0.0000
    19 C17       0.0527   -2.0770   -2.1280   C.2       1 RES1   0.0000
    20 O1       -0.7478   -1.3279   -1.5093   O.2       1 RES1   0.0000
    21 C18       1.4659   -1.5470   -2.1266   C.ar      1 RES1   0.0000
    22 C19       2.3454   -1.4827   -3.2102   C.ar      1 RES1   0.0000
    23 C20       3.5770   -0.8758   -3.0368   C.ar      1 RES1   0.0000
    24 C21       3.8919   -0.2225   -1.8393   C.ar      1 RES1   0.0000
    25 C22       5.1241    0.4563   -1.5903   C.ar      1 RES1   0.0000
    26 C23       5.2369    1.3328   -0.5630   C.ar      1 RES1   0.0000
    27 C24       4.1165    1.6323    0.2744   C.ar      1 RES1   0.0000
    28 C25       4.0303    2.7498    1.1205   C.ar      1 RES1   0.0000
    29 C26       2.8374    3.0539    1.7476   C.ar      1 RES1   0.0000
    30 C27       1.7608    2.1577    1.6608   C.ar      1 RES1   0.0000
    31 C28       0.3182    2.3127    2.0909   C.2       1 RES1   0.0000
    32 O2       -0.4808    1.5317    1.5098   O.2       1 RES1   0.0000
    33 N2       -0.1914    3.2061    2.9272   N.am      1 RES1   0.0000
    34 C29      -1.6531    3.3438    2.9375   C.3       1 RES1   0.0000
    35 C30      -2.3950    2.8314    4.1808   C.3       1 RES1   0.0000
    36 C31      -2.8669    1.3765    4.1131   C.3       1 RES1   0.0000
    37 C32      -1.7925    0.3115    4.3499   C.3       1 RES1   0.0000
    38 C33      -1.2449    0.2214    5.7844   C.3       1 RES1   0.0000
    39 C34       0.0025    1.0460    6.1111   C.3       1 RES1   0.0000
    40 C35       1.2546    0.6635    5.3242   C.3       1 RES1   0.0000
    41 C36       2.4669    1.4653    5.7836   C.3       1 RES1   0.0000
    42 C37       0.5191    4.1413    3.7760   C.3       1 RES1   0.0000
    43 C38       0.2289    5.5968    3.3792   C.3       1 RES1   0.0000
    44 C39       1.1172    6.6061    4.1108   C.3       1 RES1   0.0000
    45 C40       2.4356    6.8602    3.3774   C.3       1 RES1   0.0000
    46 C41       3.4917    7.5293    4.2664   C.3       1 RES1   0.0000
    47 C42       4.5539    6.5557    4.7766   C.3       1 RES1   0.0000
    48 C43       4.0063    5.4825    5.7150   C.3       1 RES1   0.0000
    49 C44       5.1216    4.6167    6.2864   C.3       1 RES1   0.0000
    50 N3        1.8804    1.0489    0.9329   N.ar      1 RES1   0.0000
    51 C45       2.9647    0.8165    0.1910   C.ar      1 RES1   0.0000
    52 C46       2.8650   -0.1654   -0.8717   C.ar      1 RES1   0.0000
    53 N4        1.7369   -0.8713   -1.0115   N.ar      1 RES1   0.0000
    54 H1       -3.3773    3.4002   -4.8764   H         1 RES1   0.0000
    55 H2       -3.1454    3.8942   -6.5572   H         1 RES1   0.0000
    56 H3       -4.4760    2.8353   -6.1261   H         1 RES1   0.0000
    57 H4       -1.5176    2.2045   -6.3549   H         1 RES1   0.0000
    58 H5       -2.8790    1.3880   -7.1085   H         1 RES1   0.0000
    59 H6       -2.0605    1.2275   -4.1622   H         1 RES1   0.0000
    60 H7       -1.8657   -0.0010   -5.4132   H         1 RES1   0.0000
    61 H8       -4.3719   -0.0966   -5.6511   H         1 RES1   0.0000
    62 H9       -4.5087    1.0849   -4.3535   H         1 RES1   0.0000
    63 H10      -4.8601   -0.8439   -3.1773   H         1 RES1   0.0000
    64 H11      -3.1226   -0.6635   -2.9413   H         1 RES1   0.0000
    65 H12      -4.0373   -2.2862   -5.3190   H         1 RES1   0.0000
    66 H13      -4.2766   -2.9883   -3.7186   H         1 RES1   0.0000
    67 H14      -1.5811   -1.8542   -4.4555   H         1 RES1   0.0000
    68 H15      -2.0476   -3.4618   -5.0164   H         1 RES1   0.0000
    69 H16      -2.1824   -4.2836   -2.7516   H         1 RES1   0.0000
    70 H17      -2.3083   -2.6678   -2.0871   H         1 RES1   0.0000
    71 H18       1.3759   -4.2195   -2.9788   H         1 RES1   0.0000
    72 H19       0.5131   -3.8411   -4.4908   H         1 RES1   0.0000
    73 H20       0.4543   -6.1950   -4.0667   H         1 RES1   0.0000
    74 H21      -1.1829   -5.5754   -3.9212   H         1 RES1   0.0000
    75 H22      -0.9206   -7.0653   -2.0616   H         1 RES1   0.0000
    76 H23      -0.7807   -5.4387   -1.3880   H         1 RES1   0.0000
    77 H24       1.0129   -6.3547   -0.3804   H         1 RES1   0.0000
    78 H25       1.7954   -5.8032   -1.8481   H         1 RES1   0.0000
    79 H26       0.8134   -8.5806   -2.0834   H         1 RES1   0.0000
    80 H27       1.8980   -8.3422   -0.7236   H         1 RES1   0.0000
    81 H28       3.4370   -7.1235   -2.4531   H         1 RES1   0.0000
    82 H29       2.4723   -7.9447   -3.6692   H         1 RES1   0.0000
    83 H30       3.9384   -9.6809   -3.3931   H         1 RES1   0.0000
    84 H31       3.1420   -9.9855   -1.8644   H         1 RES1   0.0000
    85 H32       5.5619   -8.1628   -2.2499   H         1 RES1   0.0000
    86 H33       5.5918   -9.8059   -1.5897   H         1 RES1   0.0000
    87 H34       4.7963   -8.5107   -0.6941   H         1 RES1   0.0000
    88 H35       2.0880   -1.9015   -4.1681   H         1 RES1   0.0000
    89 H36       4.2846   -0.8636   -3.8480   H         1 RES1   0.0000
    90 H37       5.9538    0.2845   -2.2605   H         1 RES1   0.0000
    91 H38       6.1662    1.8510   -0.3897   H         1 RES1   0.0000
    92 H39       4.8782    3.4152    1.2222   H         1 RES1   0.0000
    93 H40       2.7476    4.0065    2.2412   H         1 RES1   0.0000
    94 H41      -2.0428    2.8263    2.0580   H         1 RES1   0.0000
    95 H42      -1.8664    4.4083    2.8300   H         1 RES1   0.0000
    96 H43      -3.2858    3.4573    4.2732   H         1 RES1   0.0000
    97 H44      -1.7913    2.9812    5.0743   H         1 RES1   0.0000
    98 H45      -3.3275    1.2016    3.1319   H         1 RES1   0.0000
    99 H46      -3.6590    1.2424    4.8547   H         1 RES1   0.0000
   100 H47      -0.9820    0.4443    3.6283   H         1 RES1   0.0000
   101 H48      -2.2785   -0.6420    4.1227   H         1 RES1   0.0000
   102 H49      -1.0025   -0.8247    5.9783   H         1 RES1   0.0000
   103 H50      -2.0363    0.4999    6.4847   H         1 RES1   0.0000
   104 H51       0.2130    0.9038    7.1717   H         1 RES1   0.0000
   105 H52      -0.1988    2.1072    5.9753   H         1 RES1   0.0000
   106 H53       1.0995    0.8203    4.2522   H         1 RES1   0.0000
   107 H54       1.4612   -0.3969    5.4676   H         1 RES1   0.0000
   108 H55       2.2674    2.5325    5.7381   H         1 RES1   0.0000
   109 H56       3.3377    1.2525    5.1668   H         1 RES1   0.0000
   110 H57       2.7123    1.2184    6.8123   H         1 RES1   0.0000
   111 H58       1.5840    3.9238    3.7637   H         1 RES1   0.0000
   112 H59       0.1939    4.0043    4.8094   H         1 RES1   0.0000
   113 H60      -0.8071    5.8378    3.6174   H         1 RES1   0.0000
   114 H61       0.3710    5.7167    2.3037   H         1 RES1   0.0000
   115 H62       1.2924    6.2569    5.1284   H         1 RES1   0.0000
   116 H63       0.5834    7.5561    4.1816   H         1 RES1   0.0000
   117 H64       2.2189    7.4956    2.5151   H         1 RES1   0.0000
   118 H65       2.8398    5.9152    3.0013   H         1 RES1   0.0000
   119 H66       3.0000    7.9949    5.1205   H         1 RES1   0.0000
   120 H67       3.9850    8.3239    3.7058   H         1 RES1   0.0000
   121 H68       5.3131    7.1279    5.3092   H         1 RES1   0.0000
   122 H69       5.0466    6.0792    3.9247   H         1 RES1   0.0000
   123 H70       3.2977    4.8440    5.1801   H         1 RES1   0.0000
   124 H71       3.4710    5.9629    6.5355   H         1 RES1   0.0000
   125 H72       5.6659    4.1092    5.4918   H         1 RES1   0.0000
   126 H73       4.7226    3.8656    6.9635   H         1 RES1   0.0000
   127 H74       5.8234    5.2306    6.8428   H         1 RES1   0.0000
   128 C47      -3.6756   -5.3241    7.6295   C.3       1 RES1   0.0000
   129 C48      -2.2962   -4.7004    7.7885   C.3       1 RES1   0.0000
   130 C49      -1.1918   -5.7153    7.5018   C.3       1 RES1   0.0000
   131 C50       0.2276   -5.1371    7.5674   C.3       1 RES1   0.0000
   132 C51       0.8670   -4.8169    6.2106   C.3       1 RES1   0.0000
   133 C52       0.3063   -3.5557    5.5404   C.3       1 RES1   0.0000
   134 C53      -0.8397   -3.8277    4.5600   C.3       1 RES1   0.0000
   135 C54      -0.3980   -4.4135    3.2053   C.3       1 RES1   0.0000
   136 N5        0.3029   -3.4175    2.4083   N.am      1 RES1   0.0000
   137 C55       1.7757   -3.4784    2.4392   C.3       1 RES1   0.0000
   138 C56       2.4273   -4.4513    1.4352   C.3       1 RES1   0.0000
   139 C57       2.9910   -3.8508    0.1352   C.3       1 RES1   0.0000
   140 C58       4.0314   -4.7981   -0.4883   C.3       1 RES1   0.0000
   141 C59       4.8847   -4.2474   -1.6392   C.3       1 RES1   0.0000
   142 C60       4.1985   -3.8697   -2.9581   C.3       1 RES1   0.0000
   143 C61       3.9921   -4.9397   -4.0297   C.3       1 RES1   0.0000
   144 C62       3.6783   -4.2867   -5.3741   C.3       1 RES1   0.0000
   145 C63      -0.2381   -2.3195    1.8894   C.2       1 RES1   0.0000
   146 O3        0.5356   -1.4231    1.4671   O.2       1 RES1   0.0000
   147 C64      -1.7225   -1.9970    1.6870   C.ar      1 RES1   0.0000
   148 C65      -2.9126   -2.5755    2.1668   C.ar      1 RES1   0.0000
   149 C66      -4.1254   -1.9842    1.8559   C.ar      1 RES1   0.0000
   150 C67      -4.1898   -0.8350    1.0403   C.ar      1 RES1   0.0000
   151 C68      -5.3817   -0.1446    0.6599   C.ar      1 RES1   0.0000
   152 C69      -5.3496    0.9481   -0.1479   C.ar      1 RES1   0.0000
   153 C70      -4.1250    1.4475   -0.6851   C.ar      1 RES1   0.0000
   154 C71      -3.9973    2.5703   -1.5262   C.ar      1 RES1   0.0000
   155 C72      -2.7586    2.9708   -1.9883   C.ar      1 RES1   0.0000
   156 C73      -1.6219    2.2041   -1.6787   C.ar      1 RES1   0.0000
   157 C74      -0.1506    2.3267   -2.0679   C.2       1 RES1   0.0000
   158 O4        0.6214    1.6435   -1.3450   O.2       1 RES1   0.0000
   159 N6        0.3792    2.9971   -3.0834   N.am      1 RES1   0.0000
   160 C75       1.8296    2.9227   -3.2793   C.3       1 RES1   0.0000
   161 C76       2.2045    2.1152   -4.5198   C.3       1 RES1   0.0000
   162 C77       3.7200    2.1091   -4.7277   C.3       1 RES1   0.0000
   163 C78       4.0988    1.4326   -6.0557   C.3       1 RES1   0.0000
   164 C79       5.3444    0.5292   -5.9966   C.3       1 RES1   0.0000
   165 C80       5.0189   -0.9332   -6.3014   C.3       1 RES1   0.0000
   166 C81       4.5977   -1.1959   -7.7504   C.3       1 RES1   0.0000
   167 C82       3.0874   -1.3724   -7.9025   C.3       1 RES1   0.0000
   168 C83      -0.2945    3.9425   -3.9462   C.3       1 RES1   0.0000
   169 C84      -0.0142    5.3912   -3.5176   C.3       1 RES1   0.0000
   170 C85      -0.3187    5.6424   -2.0426   C.3       1 RES1   0.0000
   171 C86       0.1136    7.0399   -1.5686   C.3       1 RES1   0.0000
   172 C87       1.3750    7.0562   -0.6984   C.3       1 RES1   0.0000
   173 C88       2.6633    6.6734   -1.4282   C.3       1 RES1   0.0000
   174 C89       3.9004    7.0219   -0.6008   C.3       1 RES1   0.0000
   175 C90       5.1945    6.6314   -1.3034   C.3       1 RES1   0.0000
   176 N7       -1.7487    1.1597   -0.8620   N.ar      1 RES1   0.0000
   177 C91      -2.9223    0.7883   -0.3478   C.ar      1 RES1   0.0000
   178 C92      -2.9543   -0.3459    0.5623   C.ar      1 RES1   0.0000
   179 N8       -1.8014   -0.9136    0.9175   N.ar      1 RES1   0.0000
   180 H75      -4.4599   -4.6010    7.8386   H         1 RES1   0.0000
   181 H76      -3.7893   -6.1592    8.3141   H         1 RES1   0.0000
   182 H77      -3.8164   -5.6968    6.6170   H         1 RES1   0.0000
   183 H78      -2.1887   -4.3403    8.8109   H         1 RES1   0.0000
   184 H79      -2.2109   -3.8340    7.1309   H         1 RES1   0.0000
   185 H80      -1.3582   -6.1852    6.5307   H         1 RES1   0.0000
   186 H81      -1.2833   -6.5099    8.2406   H         1 RES1   0.0000
   187 H82       0.8712   -5.8626    8.0661   H         1 RES1   0.0000
   188 H83       0.2219   -4.2390    8.1898   H         1 RES1   0.0000
   189 H84       0.7591   -5.6845    5.5535   H         1 RES1   0.0000
   190 H85       1.9352   -4.6726    6.3821   H         1 RES1   0.0000
   191 H86       1.1056   -3.0062    5.0364   H         1 RES1   0.0000
   192 H87      -0.0632   -2.8930    6.3258   H         1 RES1   0.0000
   193 H88      -1.3611   -2.8855    4.3759   H         1 RES1   0.0000
   194 H89      -1.5445   -4.5155    5.0293   H         1 RES1   0.0000
   195 H90      -1.2678   -4.8000    2.6685   H         1 RES1   0.0000
   196 H91       0.2836   -5.2514    3.3620   H         1 RES1   0.0000
   197 H92       2.0659   -3.7970    3.4408   H         1 RES1   0.0000
   198 H93       2.1495   -2.4650    2.2772   H         1 RES1   0.0000
   199 H94       1.7224   -5.2473    1.1913   H         1 RES1   0.0000
   200 H95       3.2628   -4.9046    1.9702   H         1 RES1   0.0000
   201 H96       3.4750   -2.8970    0.3583   H         1 RES1   0.0000
   202 H97       2.1739   -3.6467   -0.5611   H         1 RES1   0.0000
   203 H98       3.5600   -5.7254   -0.8012   H         1 RES1   0.0000
   204 H99       4.7414   -5.0554    0.2999   H         1 RES1   0.0000
   205 H100      5.6585   -4.9887   -1.8489   H         1 RES1   0.0000
   206 H101      5.3855   -3.3503   -1.2647   H         1 RES1   0.0000
   207 H102      4.8169   -3.0944   -3.4172   H         1 RES1   0.0000
   208 H103      3.2316   -3.4201   -2.7375   H         1 RES1   0.0000
   209 H104      3.1789   -5.6084   -3.7554   H         1 RES1   0.0000
   210 H105      4.8913   -5.5419   -4.1358   H         1 RES1   0.0000
   211 H106      3.3959   -5.0336   -6.1098   H         1 RES1   0.0000
   212 H107      4.5349   -3.7357   -5.7527   H         1 RES1   0.0000
   213 H108      2.8585   -3.5765   -5.2803   H         1 RES1   0.0000
   214 H109     -2.9066   -3.4591    2.7831   H         1 RES1   0.0000
   215 H110     -5.0389   -2.4180    2.2391   H         1 RES1   0.0000
   216 H111     -6.3281   -0.5041    1.0329   H         1 RES1   0.0000
   217 H112     -6.2650    1.4571   -0.4088   H         1 RES1   0.0000
   218 H113     -4.8652    3.1418   -1.8143   H         1 RES1   0.0000
   219 H114     -2.6943    3.8661   -2.5821   H         1 RES1   0.0000
   220 H115      2.2769    2.4586   -2.3984   H         1 RES1   0.0000
   221 H116      2.2221    3.9372   -3.3624   H         1 RES1   0.0000
   222 H117      1.7381    2.5374   -5.4083   H         1 RES1   0.0000
   223 H118      1.8319    1.0933   -4.4070   H         1 RES1   0.0000
   224 H119      4.1826    1.5956   -3.8841   H         1 RES1   0.0000
   225 H120      4.0819    3.1396   -4.7289   H         1 RES1   0.0000
   226 H121      4.2442    2.2148   -6.8022   H         1 RES1   0.0000
   227 H122      3.2527    0.8288   -6.3840   H         1 RES1   0.0000
   228 H123      5.8140    0.5979   -5.0113   H         1 RES1   0.0000
   229 H124      6.0842    0.8769   -6.7162   H         1 RES1   0.0000
   230 H125      4.2049   -1.2725   -5.6627   H         1 RES1   0.0000
   231 H126      5.8909   -1.5380   -6.0585   H         1 RES1   0.0000
   232 H127      5.0991   -2.0939   -8.1085   H         1 RES1   0.0000
   233 H128      4.9348   -0.3743   -8.3750   H         1 RES1   0.0000
   234 H129      2.6956   -1.9696   -7.0816   H         1 RES1   0.0000
   235 H130      2.8450   -1.8936   -8.8230   H         1 RES1   0.0000
   236 H131      2.5532   -0.4234   -7.9081   H         1 RES1   0.0000
   237 H132     -1.3550    3.7180   -3.9565   H         1 RES1   0.0000
   238 H133      0.0701    3.8112   -4.9659   H         1 RES1   0.0000
   239 H134     -0.6164    6.0579   -4.1362   H         1 RES1   0.0000
   240 H135      1.0309    5.6223   -3.7246   H         1 RES1   0.0000
   241 H136      0.1810    4.8832   -1.4324   H         1 RES1   0.0000
   242 H137     -1.3931    5.5324   -1.8853   H         1 RES1   0.0000
   243 H138     -0.6960    7.4679   -0.9752   H         1 RES1   0.0000
   244 H139      0.2706    7.6905   -2.4318   H         1 RES1   0.0000
   245 H140      1.2407    6.3931    0.1661   H         1 RES1   0.0000
   246 H141      1.4932    8.0713   -0.3135   H         1 RES1   0.0000
   247 H142      2.7165    7.2068   -2.3791   H         1 RES1   0.0000
   248 H143      2.6636    5.6001   -1.6423   H         1 RES1   0.0000
   249 H144      3.8405    6.5213    0.3687   H         1 RES1   0.0000
   250 H145      3.9056    8.0963   -0.4147   H         1 RES1   0.0000
   251 H146      5.2202    5.5610   -1.5081   H         1 RES1   0.0000
   252 H147      6.0519    6.8855   -0.6860   H         1 RES1   0.0000
   253 H148      5.2862    7.1645   -2.2462   H         1 RES1   0.0000
@<TRIPOS>BOND
     1     1    20    1
     2     1    32    1
     3     1    50    1
     4     1    53    1
     5     1   146    1
     6     1   158    1
     7     1   176    1
     8     1   179    1
     9     2     3    1
    10     2    54    1
    11     2    55    1
    12     2    56    1
    13     3     4    1
    14     3    57    1
    15     3    58    1
    16     4     5    1
    17     4    59    1
    18     4    60    1
    19     5     6    1
    20     5    61    1
    21     5    62    1
    22     6     7    1
    23     6    63    1
    24     6    64    1
    25     7     8    1
    26     7    65    1
    27     7    66    1
    28     8     9    1
    29     8    67    1
    30     8    68    1
    31     9    10    1
    32     9    69    1
    33     9    70    1
    34    10    11    1
    35    10    19    1
    36    11    12    1
    37    11    71    1
    38    11    72    1
    39    12    13    1
    40    12    73    1
    41    12    74    1
    42    13    14    1
    43    13    75    1
    44    13    76    1
    45    14    15    1
    46    14    77    1
    47    14    78    1
    48    15    16    1
    49    15    79    1
    50    15    80    1
    51    16    17    1
    52    16    81    1
    53    16    82    1
    54    17    18    1
    55    17    83    1
    56    17    84    1
    57    18    85    1
    58    18    86    1
    59    18    87    1
    60    19    20    2
    61    19    21    1
    62    21    22    1
    63    21    53    2
    64    22    23    2
    65    22    88    1
    66    23    24    1
    67    23    89    1
    68    24    25    1
    69    24    52    2
    70    25    26    2
    71    25    90    1
    72    26    27    1
    73    26    91    1
    74    27    28    1
    75    27    51    2
    76    28    29    2
    77    28    92    1
    78    29    30    1
    79    29    93    1
    80    30    31    1
    81    30    50    2
    82    31    32    2
    83    31    33    1
    84    33    34    1
    85    33    42    1
    86    34    35    1
    87    34    94    1
    88    34    95    1
    89    35    36    1
    90    35    96    1
    91    35    97    1
    92    36    37    1
    93    36    98    1
    94    36    99    1
    95    37    38    1
    96    37   100    1
    97    37   101    1
    98    38    39    1
    99    38   102    1
   100    38   103    1
   101    39    40    1
   102    39   104    1
   103    39   105    1
   104    40    41    1
   105    40   106    1
   106    40   107    1
   107    41   108    1
   108    41   109    1
   109    41   110    1
   110    42    43    1
   111    42   111    1
   112    42   112    1
   113    43    44    1
   114    43   113    1
   115    43   114    1
   116    44    45    1
   117    44   115    1
   118    44   116    1
   119    45    46    1
   120    45   117    1
   121    45   118    1
   122    46    47    1
   123    46   119    1
   124    46   120    1
   125    47    48    1
   126    47   121    1
   127    47   122    1
   128    48    49    1
   129    48   123    1
   130    48   124    1
   131    49   125    1
   132    49   126    1
   133    49   127    1
   134    50    51    1
   135    51    52    1
   136    52    53    1
   137   128   129    1
   138   128   180    1
   139   128   181    1
   140   128   182    1
   141   129   130    1
   142   129   183    1
   143   129   184    1
   144   130   131    1
   145   130   185    1
   146   130   186    1
   147   131   132    1
   148   131   187    1
   149   131   188    1
   150   132   133    1
   151   132   189    1
   152   132   190    1
   153   133   134    1
   154   133   191    1
   155   133   192    1
   156   134   135    1
   157   134   193    1
   158   134   194    1
   159   135   136    1
   160   135   195    1
   161   135   196    1
   162   136   137    1
   163   136   145    1
   164   137   138    1
   165   137   197    1
   166   137   198    1
   167   138   139    1
   168   138   199    1
   169   138   200    1
   170   139   140    1
   171   139   201    1
   172   139   202    1
   173   140   141    1
   174   140   203    1
   175   140   204    1
   176   141   142    1
   177   141   205    1
   178   141   206    1
   179   142   143    1
   180   142   207    1
   181   142   208    1
   182   143   144    1
   183   143   209    1
   184   143   210    1
   185   144   211    1
   186   144   212    1
   187   144   213    1
   188   145   146    2
   189   145   147    1
   190   147   148    1
   191   147   179    2
   192   148   149    2
   193   148   214    1
   194   149   150    1
   195   149   215    1
   196   150   151    1
   197   150   178    2
   198   151   152    2
   199   151   216    1
   200   152   153    1
   201   152   217    1
   202   153   154    1
   203   153   177    2
   204   154   155    2
   205   154   218    1
   206   155   156    1
   207   155   219    1
   208   156   157    1
   209   156   176    2
   210   157   158    2
   211   157   159    1
   212   159   160    1
   213   159   168    1
   214   160   161    1
   215   160   220    1
   216   160   221    1
   217   161   162    1
   218   161   222    1
   219   161   223    1
   220   162   163    1
   221   162   224    1
   222   162   225    1
   223   163   164    1
   224   163   226    1
   225   163   227    1
   226   164   165    1
   227   164   228    1
   228   164   229    1
   229   165   166    1
   230   165   230    1
   231   165   231    1
   232   166   167    1
   233   166   232    1
   234   166   233    1
   235   167   234    1
   236   167   235    1
   237   167   236    1
   238   168   169    1
   239   168   237    1
   240   168   238    1
   241   169   170    1
   242   169   239    1
   243   169   240    1
   244   170   171    1
   245   170   241    1
   246   170   242    1
   247   171   172    1
   248   171   243    1
   249   171   244    1
   250   172   173    1
   251   172   245    1
   252   172   246    1
   253   173   174    1
   254   173   247    1
   255   173   248    1
   256   174   175    1
   257   174   249    1
   258   174   250    1
   259   175   251    1
   260   175   252    1
   261   175   253    1
   262   176   177    1
   263   177   178    1
   264   178   179    1
@<TRIPOS>SUBSTRUCTURE
     1 RES1      253 GROUP             0 ****  ****    0  
