@<TRIPOS>MOLECULE
square_prismatic_0_nunpairedes_0_charge_3 Charge: 3 Unpaired_Electrons: 0 XTB_Unpaired_Electrons: 0 XTB_Charge: 3
   157   168     1     0     0
SMALL
NoCharges
****
Generated from Architector

@<TRIPOS>ATOM
     1 Lu1       0.0020   -0.0067   -0.0039   Lu        1 RES1   0.0000
     2 C1        5.0116    4.2477    1.1880   C.3       1 RES1   0.0000
     3 C2        4.2025    3.5522    2.2824   C.3       1 RES1   0.0000
     4 C3        2.6963    3.5891    1.9849   C.3       1 RES1   0.0000
     5 C4        1.8614    3.0031    3.1346   C.3       1 RES1   0.0000
     6 N1        0.3947    3.0263    2.9825   N.am      1 RES1   0.0000
     7 C5       -0.3494    3.9541    3.8191   C.3       1 RES1   0.0000
     8 C6       -1.0184    5.0737    3.0198   C.3       1 RES1   0.0000
     9 C7       -0.0575    6.0062    2.2846   C.3       1 RES1   0.0000
    10 C8        0.9207    6.7385    3.1942   C.3       1 RES1   0.0000
    11 C9       -0.1494    2.1488    2.1477   C.2       1 RES1   0.0000
    12 O1        0.6241    1.4239    1.4753   O.2       1 RES1   0.0000
    13 C10      -1.6372    1.8745    1.9126   C.ar      1 RES1   0.0000
    14 C11      -2.8156    2.3548    2.5203   C.ar      1 RES1   0.0000
    15 C12      -4.0444    1.8955    2.0730   C.ar      1 RES1   0.0000
    16 C13      -4.1365    0.9392    1.0437   C.ar      1 RES1   0.0000
    17 C14      -5.3452    0.3948    0.5155   C.ar      1 RES1   0.0000
    18 C15      -5.3367   -0.5462   -0.4628   C.ar      1 RES1   0.0000
    19 C16      -4.1193   -1.0508   -1.0109   C.ar      1 RES1   0.0000
    20 C17      -4.0124   -2.0415   -2.0059   C.ar      1 RES1   0.0000
    21 C18      -2.7780   -2.4783   -2.4593   C.ar      1 RES1   0.0000
    22 C19      -1.6094   -1.9184   -1.9085   C.ar      1 RES1   0.0000
    23 C20      -0.1217   -2.1716   -2.1433   C.2       1 RES1   0.0000
    24 O2        0.6309   -1.4560   -1.4338   O.2       1 RES1   0.0000
    25 N2        0.4316   -3.0539   -2.9651   N.am      1 RES1   0.0000
    26 C21       1.8862   -3.2389   -2.8890   C.3       1 RES1   0.0000
    27 C22       2.7153   -2.8930   -4.1315   C.3       1 RES1   0.0000
    28 C23       2.9804   -1.4079   -4.3716   C.3       1 RES1   0.0000
    29 C24       1.7649   -0.6203   -4.8369   C.3       1 RES1   0.0000
    30 C25      -0.2485   -3.9417   -3.8889   C.3       1 RES1   0.0000
    31 C26      -0.7217   -3.2032   -5.1376   C.3       1 RES1   0.0000
    32 C27      -1.3375   -4.1475   -6.1621   C.3       1 RES1   0.0000
    33 C28      -1.7288   -3.3906   -7.4247   C.3       1 RES1   0.0000
    34 N3       -1.7283   -0.9817   -0.9714   N.ar      1 RES1   0.0000
    35 C29      -2.9003   -0.5347   -0.5195   C.ar      1 RES1   0.0000
    36 C30      -2.9102    0.4859    0.5120   C.ar      1 RES1   0.0000
    37 N4       -1.7455    0.9694    0.9462   N.ar      1 RES1   0.0000
    38 H1        6.0751    4.1995    1.4116   H         1 RES1   0.0000
    39 H2        4.7373    5.2968    1.1076   H         1 RES1   0.0000
    40 H3        4.8478    3.7797    0.2195   H         1 RES1   0.0000
    41 H4        4.4078    4.0563    3.2268   H         1 RES1   0.0000
    42 H5        4.5459    2.5200    2.3811   H         1 RES1   0.0000
    43 H6        2.4943    3.0297    1.0699   H         1 RES1   0.0000
    44 H7        2.4198    4.6286    1.8203   H         1 RES1   0.0000
    45 H8        2.0837    3.5588    4.0438   H         1 RES1   0.0000
    46 H9        2.1608    1.9602    3.2795   H         1 RES1   0.0000
    47 H10       0.3398    4.3926    4.5385   H         1 RES1   0.0000
    48 H11      -1.1007    3.4082    4.3966   H         1 RES1   0.0000
    49 H12      -1.6182    5.6551    3.7206   H         1 RES1   0.0000
    50 H13      -1.6834    4.6305    2.2786   H         1 RES1   0.0000
    51 H14      -0.6673    6.7475    1.7676   H         1 RES1   0.0000
    52 H15       0.4833    5.4440    1.5197   H         1 RES1   0.0000
    53 H16       0.3832    7.2995    3.9543   H         1 RES1   0.0000
    54 H17       1.5096    7.4414    2.6104   H         1 RES1   0.0000
    55 H18       1.6132    6.0627    3.6913   H         1 RES1   0.0000
    56 H19      -2.8068    3.0729    3.3226   H         1 RES1   0.0000
    57 H20      -4.9604    2.2689    2.5136   H         1 RES1   0.0000
    58 H21      -6.2771    0.7544    0.9200   H         1 RES1   0.0000
    59 H22      -6.2636   -0.9429   -0.8441   H         1 RES1   0.0000
    60 H23      -4.9234   -2.4594   -2.4145   H         1 RES1   0.0000
    61 H24      -2.7514   -3.2347   -3.2257   H         1 RES1   0.0000
    62 H25       2.0466   -4.2987   -2.6770   H         1 RES1   0.0000
    63 H26       2.2431   -2.6568   -2.0375   H         1 RES1   0.0000
    64 H27       2.2845   -3.3441   -5.0248   H         1 RES1   0.0000
    65 H28       3.6836   -3.3713   -3.9741   H         1 RES1   0.0000
    66 H29       3.7545   -1.3320   -5.1368   H         1 RES1   0.0000
    67 H30       3.3777   -0.9566   -3.4584   H         1 RES1   0.0000
    68 H31       1.3829   -1.0103   -5.7766   H         1 RES1   0.0000
    69 H32       2.0436    0.4135   -5.0161   H         1 RES1   0.0000
    70 H33       0.9724   -0.6391   -4.0913   H         1 RES1   0.0000
    71 H34      -1.0751   -4.4467   -3.3845   H         1 RES1   0.0000
    72 H35       0.4699   -4.7093   -4.1789   H         1 RES1   0.0000
    73 H36       0.1244   -2.6951   -5.5949   H         1 RES1   0.0000
    74 H37      -1.4428   -2.4381   -4.8539   H         1 RES1   0.0000
    75 H38      -2.2152   -4.6378   -5.7391   H         1 RES1   0.0000
    76 H39      -0.6145   -4.9232   -6.4147   H         1 RES1   0.0000
    77 H40      -2.4701   -2.6241   -7.2045   H         1 RES1   0.0000
    78 H41      -2.1483   -4.0765   -8.1549   H         1 RES1   0.0000
    79 H42      -0.8577   -2.9085   -7.8644   H         1 RES1   0.0000
    80 C31       2.2855    3.1815   -7.1013   C.3       1 RES1   0.0000
    81 C32       1.6379    4.0259   -6.0114   C.3       1 RES1   0.0000
    82 C33       0.8588    3.1457   -5.0427   C.3       1 RES1   0.0000
    83 C34       0.2544    3.9503   -3.8974   C.3       1 RES1   0.0000
    84 N5       -0.4356    3.0877   -2.9580   N.am      1 RES1   0.0000
    85 C35      -1.8920    3.2746   -2.9077   C.3       1 RES1   0.0000
    86 C36      -2.7217    2.8853   -4.1407   C.3       1 RES1   0.0000
    87 C37      -3.0137    1.3958   -4.3116   C.3       1 RES1   0.0000
    88 C38      -1.8014    0.5805   -4.7343   C.3       1 RES1   0.0000
    89 C39       0.1188    2.2138   -2.1243   C.2       1 RES1   0.0000
    90 O3       -0.6372    1.4856   -1.4303   O.2       1 RES1   0.0000
    91 C40       1.6074    1.9926   -1.8437   C.ar      1 RES1   0.0000
    92 C41       2.7727    2.6342   -2.3062   C.ar      1 RES1   0.0000
    93 C42       3.9994    2.2573   -1.7839   C.ar      1 RES1   0.0000
    94 C43       4.1008    1.2735   -0.7813   C.ar      1 RES1   0.0000
    95 C44       5.3064    0.8956   -0.1182   C.ar      1 RES1   0.0000
    96 C45       5.3031   -0.0004    0.9007   C.ar      1 RES1   0.0000
    97 C46       4.1004   -0.6356    1.3329   C.ar      1 RES1   0.0000
    98 C47       3.9992   -1.5324    2.4130   C.ar      1 RES1   0.0000
    99 C48       2.7827   -2.0846    2.7801   C.ar      1 RES1   0.0000
   100 C49       1.6380   -1.7882    2.0144   C.ar      1 RES1   0.0000
   101 C50       0.1601   -2.1303    2.2155   C.2       1 RES1   0.0000
   102 O4       -0.6177   -1.3845    1.5653   O.2       1 RES1   0.0000
   103 N6       -0.3498   -3.0482    3.0305   N.am      1 RES1   0.0000
   104 C51      -1.8031   -3.0613    3.2259   C.3       1 RES1   0.0000
   105 C52      -2.2967   -3.0253    4.6780   C.3       1 RES1   0.0000
   106 C53      -2.1617   -1.6815    5.3906   C.3       1 RES1   0.0000
   107 C54      -0.7184   -1.2591    5.6320   C.3       1 RES1   0.0000
   108 C55       0.3762   -4.1535    3.6243   C.3       1 RES1   0.0000
   109 C56      -0.2080   -5.5363    3.2924   C.3       1 RES1   0.0000
   110 C57      -0.3357   -5.8373    1.7982   C.3       1 RES1   0.0000
   111 C58       0.9954   -5.8361    1.0566   C.3       1 RES1   0.0000
   112 N7        1.7536   -0.9547    0.9833   N.ar      1 RES1   0.0000
   113 C59       2.8980   -0.3524    0.6483   C.ar      1 RES1   0.0000
   114 C60       2.8913    0.6518   -0.4015   C.ar      1 RES1   0.0000
   115 N8        1.7278    1.0177   -0.9457   N.ar      1 RES1   0.0000
   116 H43       2.8353    3.8140   -7.7921   H         1 RES1   0.0000
   117 H44       1.5273    2.6391   -7.6623   H         1 RES1   0.0000
   118 H45       2.9777    2.4578   -6.6719   H         1 RES1   0.0000
   119 H46       0.9604    4.7496   -6.4633   H         1 RES1   0.0000
   120 H47       2.4053    4.5840   -5.4725   H         1 RES1   0.0000
   121 H48       1.5137    2.3795   -4.6294   H         1 RES1   0.0000
   122 H49       0.0635    2.6339   -5.5827   H         1 RES1   0.0000
   123 H50      -0.4861    4.6447   -4.2942   H         1 RES1   0.0000
   124 H51       1.0124    4.5445   -3.3807   H         1 RES1   0.0000
   125 H52      -2.0496    4.3438   -2.7450   H         1 RES1   0.0000
   126 H53      -2.2648    2.7320   -2.0372   H         1 RES1   0.0000
   127 H54      -2.2819    3.2832   -5.0553   H         1 RES1   0.0000
   128 H55      -3.6818    3.3890   -4.0108   H         1 RES1   0.0000
   129 H56      -3.7878    1.2922   -5.0741   H         1 RES1   0.0000
   130 H57      -3.4194    0.9941   -3.3790   H         1 RES1   0.0000
   131 H58      -1.4108    0.9310   -5.6863   H         1 RES1   0.0000
   132 H59      -2.0810   -0.4611   -4.8640   H         1 RES1   0.0000
   133 H60      -1.0155    0.6330   -3.9837   H         1 RES1   0.0000
   134 H61       2.7529    3.4077   -3.0556   H         1 RES1   0.0000
   135 H62       4.9093    2.7248   -2.1369   H         1 RES1   0.0000
   136 H63       6.2258    1.3611   -0.4339   H         1 RES1   0.0000
   137 H64       6.2209   -0.2579    1.4038   H         1 RES1   0.0000
   138 H65       4.8985   -1.7757    2.9628   H         1 RES1   0.0000
   139 H66       2.7477   -2.7087    3.6596   H         1 RES1   0.0000
   140 H67      -2.1933   -3.9738    2.7739   H         1 RES1   0.0000
   141 H68      -2.2095   -2.2075    2.6808   H         1 RES1   0.0000
   142 H69      -1.8244   -3.8029    5.2769   H         1 RES1   0.0000
   143 H70      -3.3603   -3.2684    4.6310   H         1 RES1   0.0000
   144 H71      -2.6645   -1.7650    6.3552   H         1 RES1   0.0000
   145 H72      -2.6822   -0.9105    4.8172   H         1 RES1   0.0000
   146 H73      -0.1876   -2.0226    6.1963   H         1 RES1   0.0000
   147 H74      -0.6896   -0.3388    6.2097   H         1 RES1   0.0000
   148 H75      -0.1948   -1.0857    4.6928   H         1 RES1   0.0000
   149 H76       0.3739   -4.0316    4.7109   H         1 RES1   0.0000
   150 H77       1.3947   -4.1287    3.2502   H         1 RES1   0.0000
   151 H78      -1.1808   -5.6719    3.7635   H         1 RES1   0.0000
   152 H79       0.4655   -6.2657    3.7461   H         1 RES1   0.0000
   153 H80      -1.0130   -5.1252    1.3185   H         1 RES1   0.0000
   154 H81      -0.7856   -6.8258    1.6984   H         1 RES1   0.0000
   155 H82       1.4617   -4.8509    1.0616   H         1 RES1   0.0000
   156 H83       0.8380   -6.1275    0.0209   H         1 RES1   0.0000
   157 H84       1.6824   -6.5482    1.5059   H         1 RES1   0.0000
@<TRIPOS>BOND
     1     1    12    1
     2     1    24    1
     3     1    34    1
     4     1    37    1
     5     1    90    1
     6     1   102    1
     7     1   112    1
     8     1   115    1
     9     2     3    1
    10     2    38    1
    11     2    39    1
    12     2    40    1
    13     3     4    1
    14     3    41    1
    15     3    42    1
    16     4     5    1
    17     4    43    1
    18     4    44    1
    19     5     6    1
    20     5    45    1
    21     5    46    1
    22     6     7    1
    23     6    11    1
    24     7     8    1
    25     7    47    1
    26     7    48    1
    27     8     9    1
    28     8    49    1
    29     8    50    1
    30     9    10    1
    31     9    51    1
    32     9    52    1
    33    10    53    1
    34    10    54    1
    35    10    55    1
    36    11    12    2
    37    11    13    1
    38    13    14    1
    39    13    37    2
    40    14    15    2
    41    14    56    1
    42    15    16    1
    43    15    57    1
    44    16    17    1
    45    16    36    2
    46    17    18    2
    47    17    58    1
    48    18    19    1
    49    18    59    1
    50    19    20    1
    51    19    35    2
    52    20    21    2
    53    20    60    1
    54    21    22    1
    55    21    61    1
    56    22    23    1
    57    22    34    2
    58    23    24    2
    59    23    25    1
    60    25    26    1
    61    25    30    1
    62    26    27    1
    63    26    62    1
    64    26    63    1
    65    27    28    1
    66    27    64    1
    67    27    65    1
    68    28    29    1
    69    28    66    1
    70    28    67    1
    71    29    68    1
    72    29    69    1
    73    29    70    1
    74    30    31    1
    75    30    71    1
    76    30    72    1
    77    31    32    1
    78    31    73    1
    79    31    74    1
    80    32    33    1
    81    32    75    1
    82    32    76    1
    83    33    77    1
    84    33    78    1
    85    33    79    1
    86    34    35    1
    87    35    36    1
    88    36    37    1
    89    80    81    1
    90    80   116    1
    91    80   117    1
    92    80   118    1
    93    81    82    1
    94    81   119    1
    95    81   120    1
    96    82    83    1
    97    82   121    1
    98    82   122    1
    99    83    84    1
   100    83   123    1
   101    83   124    1
   102    84    85    1
   103    84    89    1
   104    85    86    1
   105    85   125    1
   106    85   126    1
   107    86    87    1
   108    86   127    1
   109    86   128    1
   110    87    88    1
   111    87   129    1
   112    87   130    1
   113    88   131    1
   114    88   132    1
   115    88   133    1
   116    89    90    2
   117    89    91    1
   118    91    92    1
   119    91   115    2
   120    92    93    2
   121    92   134    1
   122    93    94    1
   123    93   135    1
   124    94    95    1
   125    94   114    2
   126    95    96    2
   127    95   136    1
   128    96    97    1
   129    96   137    1
   130    97    98    1
   131    97   113    2
   132    98    99    2
   133    98   138    1
   134    99   100    1
   135    99   139    1
   136   100   101    1
   137   100   112    2
   138   101   102    2
   139   101   103    1
   140   103   104    1
   141   103   108    1
   142   104   105    1
   143   104   140    1
   144   104   141    1
   145   105   106    1
   146   105   142    1
   147   105   143    1
   148   106   107    1
   149   106   144    1
   150   106   145    1
   151   107   146    1
   152   107   147    1
   153   107   148    1
   154   108   109    1
   155   108   149    1
   156   108   150    1
   157   109   110    1
   158   109   151    1
   159   109   152    1
   160   110   111    1
   161   110   153    1
   162   110   154    1
   163   111   155    1
   164   111   156    1
   165   111   157    1
   166   112   113    1
   167   113   114    1
   168   114   115    1
@<TRIPOS>SUBSTRUCTURE
     1 RES1      157 GROUP             0 ****  ****    0  
