@<TRIPOS>MOLECULE
ICIGOT_geomtry_0_nunpairedes_0_charge_2 Charge: 2 Unpaired_Electrons: 0 XTB_Unpaired_Electrons: 0 XTB_Charge: 2
   243   247     1     0     0
SMALL
NoCharges
****
Generated from Architector

@<TRIPOS>ATOM
     1 Lu1      -0.1110   -0.1452   -0.2528   Lu        1 RES1   0.0000
     2 C1        1.2412   -6.2449   -1.8038   C.3       1 RES1   0.0000
     3 C2        2.7033   -6.5170   -1.4641   C.3       1 RES1   0.0000
     4 C3        2.9871   -6.2193    0.0075   C.3       1 RES1   0.0000
     5 C4        4.4759   -6.2165    0.3608   C.3       1 RES1   0.0000
     6 C5        4.7522   -5.5639    1.7200   C.3       1 RES1   0.0000
     7 C6        4.5272   -4.0502    1.6777   C.3       1 RES1   0.0000
     8 C7        4.6559   -3.3719    3.0414   C.3       1 RES1   0.0000
     9 C8        4.2711   -1.8850    2.9825   C.3       1 RES1   0.0000
    10 N1        2.8799   -1.6964    2.6139   N.am      1 RES1   0.0000
    11 C9        1.9060   -1.9846    3.6666   C.3       1 RES1   0.0000
    12 C10       1.3183   -0.7157    4.2927   C.3       1 RES1   0.0000
    13 C11       0.2275   -1.0545    5.3144   C.3       1 RES1   0.0000
    14 C12      -1.1067   -1.3524    4.6317   C.3       1 RES1   0.0000
    15 C13      -2.1906   -1.8364    5.5943   C.3       1 RES1   0.0000
    16 C14      -2.0201   -3.2816    6.0636   C.3       1 RES1   0.0000
    17 C15      -2.0797   -4.3103    4.9338   C.3       1 RES1   0.0000
    18 C16      -2.1728   -5.7258    5.4864   C.3       1 RES1   0.0000
    19 C17       2.4083   -1.3338    1.4340   C.2       1 RES1   0.0000
    20 O1        1.1787   -1.2170    1.2326   O.2       1 RES1   0.0000
    21 C18       3.3084   -1.0292    0.2220   C.3       1 RES1   0.0000
    22 C19       3.8266    0.4009    0.3118   C.3       1 RES1   0.0000
    23 O2        2.4736   -1.0770   -0.9455   O.3       1 RES1   0.0000
    24 C20       2.2256   -2.4190   -1.4035   C.3       1 RES1   0.0000
    25 C21       3.4559   -3.0941   -2.0241   C.3       1 RES1   0.0000
    26 C22       0.8396   -2.3346   -2.0774   C.2       1 RES1   0.0000
    27 O3       -0.0478   -2.0765   -1.2208   O.2       1 RES1   0.0000
    28 N2        0.4647   -2.6008   -3.3219   N.am      1 RES1   0.0000
    29 C23      -0.9962   -2.8443   -3.4606   C.3       1 RES1   0.0000
    30 C24      -1.4186   -3.7964   -4.5835   C.3       1 RES1   0.0000
    31 C25      -2.9440   -3.7618   -4.8212   C.3       1 RES1   0.0000
    32 C26      -3.2836   -3.2398   -6.2244   C.3       1 RES1   0.0000
    33 C27      -4.6921   -2.6524   -6.3242   C.3       1 RES1   0.0000
    34 C28      -5.0131   -2.0527   -7.7073   C.3       1 RES1   0.0000
    35 C29      -5.6789   -0.6762   -7.6051   C.3       1 RES1   0.0000
    36 C30      -5.6046    0.0928   -8.9189   C.3       1 RES1   0.0000
    37 C31       1.2027   -2.4837   -4.5813   C.3       1 RES1   0.0000
    38 C32       2.4896   -1.6560   -4.6579   C.3       1 RES1   0.0000
    39 C33       2.3574   -0.1436   -4.8053   C.3       1 RES1   0.0000
    40 C34       1.9340    0.6186   -3.5531   C.3       1 RES1   0.0000
    41 C35       1.7431    2.0826   -3.9304   C.3       1 RES1   0.0000
    42 C36       1.2118    2.9675   -2.8115   C.3       1 RES1   0.0000
    43 C37       0.8294    4.3481   -3.3493   C.3       1 RES1   0.0000
    44 C38      -0.3939    4.3441   -4.2574   C.3       1 RES1   0.0000
    45 H1        1.0716   -6.3077   -2.8753   H         1 RES1   0.0000
    46 H2        0.9446   -5.2511   -1.4695   H         1 RES1   0.0000
    47 H3        0.6008   -6.9702   -1.3122   H         1 RES1   0.0000
    48 H4        3.3486   -5.9035   -2.0970   H         1 RES1   0.0000
    49 H5        2.9396   -7.5578   -1.6833   H         1 RES1   0.0000
    50 H6        2.4728   -6.9526    0.6282   H         1 RES1   0.0000
    51 H7        2.5489   -5.2452    0.2404   H         1 RES1   0.0000
    52 H8        5.0432   -5.6884   -0.4120   H         1 RES1   0.0000
    53 H9        4.8416   -7.2432    0.3823   H         1 RES1   0.0000
    54 H10       5.7835   -5.7585    2.0178   H         1 RES1   0.0000
    55 H11       4.1031   -6.0117    2.4747   H         1 RES1   0.0000
    56 H12       3.5190   -3.8592    1.2970   H         1 RES1   0.0000
    57 H13       5.2512   -3.6084    0.9850   H         1 RES1   0.0000
    58 H14       5.6844   -3.4387    3.3988   H         1 RES1   0.0000
    59 H15       4.0243   -3.9005    3.7594   H         1 RES1   0.0000
    60 H16       4.9171   -1.3601    2.2815   H         1 RES1   0.0000
    61 H17       4.4022   -1.4348    3.9699   H         1 RES1   0.0000
    62 H18       2.3989   -2.5835    4.4316   H         1 RES1   0.0000
    63 H19       1.1003   -2.5739    3.2231   H         1 RES1   0.0000
    64 H20       0.8789   -0.1006    3.5044   H         1 RES1   0.0000
    65 H21       2.1224   -0.1438    4.7628   H         1 RES1   0.0000
    66 H22       0.1021   -0.2123    5.9977   H         1 RES1   0.0000
    67 H23       0.5504   -1.9081    5.9097   H         1 RES1   0.0000
    68 H24      -0.9634   -2.1002    3.8493   H         1 RES1   0.0000
    69 H25      -1.4504   -0.4365    4.1470   H         1 RES1   0.0000
    70 H26      -3.1537   -1.7471    5.0908   H         1 RES1   0.0000
    71 H27      -2.2171   -1.1782    6.4657   H         1 RES1   0.0000
    72 H28      -2.8231   -3.5022    6.7696   H         1 RES1   0.0000
    73 H29      -1.0771   -3.3947    6.6020   H         1 RES1   0.0000
    74 H30      -1.1866   -4.2337    4.3086   H         1 RES1   0.0000
    75 H31      -2.9465   -4.1061    4.3006   H         1 RES1   0.0000
    76 H32      -1.3229   -5.9400    6.1285   H         1 RES1   0.0000
    77 H33      -2.1882   -6.4541    4.6812   H         1 RES1   0.0000
    78 H34      -3.0791   -5.8444    6.0720   H         1 RES1   0.0000
    79 H35       4.1235   -1.7576    0.1197   H         1 RES1   0.0000
    80 H36       4.2947    0.6675   -0.6312   H         1 RES1   0.0000
    81 H37       4.5509    0.5096    1.1107   H         1 RES1   0.0000
    82 H38       2.9824    1.0708    0.4830   H         1 RES1   0.0000
    83 H39       1.9500   -3.0234   -0.5202   H         1 RES1   0.0000
    84 H40       4.2269   -2.3806   -2.3162   H         1 RES1   0.0000
    85 H41       3.1861   -3.7091   -2.8788   H         1 RES1   0.0000
    86 H42       3.9055   -3.7571   -1.2902   H         1 RES1   0.0000
    87 H43      -1.4735   -1.8668   -3.5384   H         1 RES1   0.0000
    88 H44      -1.3358   -3.2887   -2.5228   H         1 RES1   0.0000
    89 H45      -1.1020   -4.8034   -4.3147   H         1 RES1   0.0000
    90 H46      -0.9452   -3.5374   -5.5255   H         1 RES1   0.0000
    91 H47      -3.4131   -3.1171   -4.0786   H         1 RES1   0.0000
    92 H48      -3.3650   -4.7600   -4.6948   H         1 RES1   0.0000
    93 H49      -3.1835   -4.0429   -6.9568   H         1 RES1   0.0000
    94 H50      -2.5578   -2.4629   -6.4708   H         1 RES1   0.0000
    95 H51      -4.7793   -1.8520   -5.5900   H         1 RES1   0.0000
    96 H52      -5.4235   -3.4172   -6.0526   H         1 RES1   0.0000
    97 H53      -5.6456   -2.7303   -8.2804   H         1 RES1   0.0000
    98 H54      -4.0926   -1.9289   -8.2822   H         1 RES1   0.0000
    99 H55      -5.1655   -0.0954   -6.8305   H         1 RES1   0.0000
   100 H56      -6.7211   -0.7781   -7.2975   H         1 RES1   0.0000
   101 H57      -4.5652    0.2231   -9.2175   H         1 RES1   0.0000
   102 H58      -6.0584    1.0769   -8.8156   H         1 RES1   0.0000
   103 H59      -6.1205   -0.4390   -9.7144   H         1 RES1   0.0000
   104 H60       0.4971   -2.0339   -5.2846   H         1 RES1   0.0000
   105 H61       1.4167   -3.4954   -4.9343   H         1 RES1   0.0000
   106 H62       3.0012   -2.0206   -5.5513   H         1 RES1   0.0000
   107 H63       3.1418   -1.8424   -3.8193   H         1 RES1   0.0000
   108 H64       1.6700    0.1008   -5.6147   H         1 RES1   0.0000
   109 H65       3.3366    0.2342   -5.1111   H         1 RES1   0.0000
   110 H66       2.6953    0.5180   -2.7786   H         1 RES1   0.0000
   111 H67       0.9927    0.2278   -3.1516   H         1 RES1   0.0000
   112 H68       1.0402    2.1176   -4.7642   H         1 RES1   0.0000
   113 H69       2.6884    2.4896   -4.2944   H         1 RES1   0.0000
   114 H70       1.9667    3.0746   -2.0283   H         1 RES1   0.0000
   115 H71       0.3444    2.4770   -2.3586   H         1 RES1   0.0000
   116 H72       1.6754    4.7384   -3.9142   H         1 RES1   0.0000
   117 H73       0.6411    5.0295   -2.5197   H         1 RES1   0.0000
   118 H74      -0.2697    3.6658   -5.0968   H         1 RES1   0.0000
   119 H75      -0.5581    5.3397   -4.6597   H         1 RES1   0.0000
   120 H76      -1.2901    4.0507   -3.7124   H         1 RES1   0.0000
   121 C39       3.0490    7.6376   -4.6769   C.3       1 RES1   0.0000
   122 C40       1.7571    8.0317   -3.9731   C.3       1 RES1   0.0000
   123 C41       1.8697    7.9013   -2.4564   C.3       1 RES1   0.0000
   124 C42       0.5762    8.2974   -1.7470   C.3       1 RES1   0.0000
   125 C43       0.6122    8.0107   -0.2440   C.3       1 RES1   0.0000
   126 C44       0.3359    6.5405    0.0851   C.3       1 RES1   0.0000
   127 C45       0.4778    6.2920    1.5857   C.3       1 RES1   0.0000
   128 C46      -0.0188    4.9210    2.0536   C.3       1 RES1   0.0000
   129 N3        0.6960    3.7762    1.5012   N.am      1 RES1   0.0000
   130 C47       2.1119    3.7164    1.8478   C.3       1 RES1   0.0000
   131 C48       2.3741    3.2694    3.2939   C.3       1 RES1   0.0000
   132 C49       3.8411    3.4814    3.6896   C.3       1 RES1   0.0000
   133 C50       4.7777    2.4386    3.0796   C.3       1 RES1   0.0000
   134 C51       6.2568    2.6794    3.4056   C.3       1 RES1   0.0000
   135 C52       6.9140    3.7769    2.5636   C.3       1 RES1   0.0000
   136 C53       6.9989    3.4591    1.0670   C.3       1 RES1   0.0000
   137 C54       8.0204    4.3473    0.3669   C.3       1 RES1   0.0000
   138 C55       0.1384    2.8290    0.7626   C.2       1 RES1   0.0000
   139 O4        0.7881    1.8825    0.2610   O.2       1 RES1   0.0000
   140 C56      -1.3715    2.9409    0.4464   C.3       1 RES1   0.0000
   141 C57      -2.2450    2.8780    1.7176   C.3       1 RES1   0.0000
   142 O5       -1.6704    1.8599   -0.4457   O.3       1 RES1   0.0000
   143 C58      -2.4747    2.1890   -1.5942   C.3       1 RES1   0.0000
   144 C59      -3.9000    2.4630   -1.1354   C.3       1 RES1   0.0000
   145 C60      -2.1234    1.0796   -2.6271   C.2       1 RES1   0.0000
   146 O6       -1.1252    0.3792   -2.3296   O.2       1 RES1   0.0000
   147 N4       -2.6984    0.9947   -3.8251   N.am      1 RES1   0.0000
   148 C61      -2.0081    0.2500   -4.8930   C.3       1 RES1   0.0000
   149 C62      -1.9107    1.0050   -6.2333   C.3       1 RES1   0.0000
   150 C63      -0.8012    0.4376   -7.1419   C.3       1 RES1   0.0000
   151 C64      -1.2865   -0.5459   -8.2216   C.3       1 RES1   0.0000
   152 C65      -0.2860   -1.6861   -8.4476   C.3       1 RES1   0.0000
   153 C66      -0.8298   -2.8815   -9.2499   C.3       1 RES1   0.0000
   154 C67      -0.3376   -4.2076   -8.6623   C.3       1 RES1   0.0000
   155 C68      -0.9864   -5.4209   -9.3156   C.3       1 RES1   0.0000
   156 C69      -4.0439    1.4523   -4.1527   C.3       1 RES1   0.0000
   157 C70      -5.1941    0.6490   -3.5056   C.3       1 RES1   0.0000
   158 C71      -4.8937   -0.8066   -3.1222   C.3       1 RES1   0.0000
   159 C72      -4.8004   -1.0739   -1.6191   C.3       1 RES1   0.0000
   160 C73      -4.9252   -2.5753   -1.3721   C.3       1 RES1   0.0000
   161 C74      -4.3990   -3.0252   -0.0145   C.3       1 RES1   0.0000
   162 C75      -4.3352   -4.5482    0.0793   C.3       1 RES1   0.0000
   163 C76      -3.2211   -5.1379   -0.7798   C.3       1 RES1   0.0000
   164 H77       2.9462    7.7493   -5.7522   H         1 RES1   0.0000
   165 H78       3.3077    6.6021   -4.4654   H         1 RES1   0.0000
   166 H79       3.8683    8.2692   -4.3457   H         1 RES1   0.0000
   167 H80       0.9398    7.3993   -4.3303   H         1 RES1   0.0000
   168 H81       1.5119    9.0644   -4.2242   H         1 RES1   0.0000
   169 H82       2.6813    8.5391   -2.1023   H         1 RES1   0.0000
   170 H83       2.1321    6.8714   -2.2078   H         1 RES1   0.0000
   171 H84      -0.2679    7.7682   -2.1977   H         1 RES1   0.0000
   172 H85       0.4120    9.3643   -1.9007   H         1 RES1   0.0000
   173 H86      -0.1382    8.6220    0.2626   H         1 RES1   0.0000
   174 H87       1.5904    8.2937    0.1507   H         1 RES1   0.0000
   175 H88       1.0286    5.9019   -0.4683   H         1 RES1   0.0000
   176 H89      -0.6829    6.2981   -0.2355   H         1 RES1   0.0000
   177 H90      -0.1366    7.0229    2.1121   H         1 RES1   0.0000
   178 H91       1.5066    6.4743    1.8925   H         1 RES1   0.0000
   179 H92      -1.0663    4.8509    1.7925   H         1 RES1   0.0000
   180 H93       0.0659    4.8633    3.1422   H         1 RES1   0.0000
   181 H94       2.5268    4.7144    1.7018   H         1 RES1   0.0000
   182 H95       2.6067    3.0432    1.1481   H         1 RES1   0.0000
   183 H96       2.1069    2.2175    3.4119   H         1 RES1   0.0000
   184 H97       1.7513    3.8517    3.9743   H         1 RES1   0.0000
   185 H98       3.9256    3.4447    4.7785   H         1 RES1   0.0000
   186 H99       4.1492    4.4770    3.3694   H         1 RES1   0.0000
   187 H100      4.6584    2.4471    1.9959   H         1 RES1   0.0000
   188 H101      4.4816    1.4530    3.4557   H         1 RES1   0.0000
   189 H102      6.8129    1.7502    3.2496   H         1 RES1   0.0000
   190 H103      6.3508    2.9426    4.4618   H         1 RES1   0.0000
   191 H104      7.9277    3.9220    2.9430   H         1 RES1   0.0000
   192 H105      6.3816    4.7194    2.7023   H         1 RES1   0.0000
   193 H106      6.0237    3.6038    0.5937   H         1 RES1   0.0000
   194 H107      7.2827    2.4119    0.9299   H         1 RES1   0.0000
   195 H108      7.7474    5.3946    0.4613   H         1 RES1   0.0000
   196 H109      8.0776    4.1037   -0.6900   H         1 RES1   0.0000
   197 H110      9.0058    4.2118    0.8035   H         1 RES1   0.0000
   198 H111     -1.5107    3.8920   -0.0864   H         1 RES1   0.0000
   199 H112     -1.6338    2.8427    2.6123   H         1 RES1   0.0000
   200 H113     -2.8545    1.9781    1.7261   H         1 RES1   0.0000
   201 H114     -2.9237    3.7233    1.7894   H         1 RES1   0.0000
   202 H115     -2.0679    3.1081   -2.0522   H         1 RES1   0.0000
   203 H116     -4.3848    1.5552   -0.7943   H         1 RES1   0.0000
   204 H117     -4.5049    2.9439   -1.8937   H         1 RES1   0.0000
   205 H118     -3.8445    3.1471   -0.2951   H         1 RES1   0.0000
   206 H119     -2.4930   -0.7137   -5.0632   H         1 RES1   0.0000
   207 H120     -0.9973    0.0711   -4.5254   H         1 RES1   0.0000
   208 H121     -1.7108    2.0553   -6.0186   H         1 RES1   0.0000
   209 H122     -2.8520    0.9611   -6.7799   H         1 RES1   0.0000
   210 H123     -0.0708   -0.0725   -6.5119   H         1 RES1   0.0000
   211 H124     -0.2781    1.2629   -7.6264   H         1 RES1   0.0000
   212 H125     -1.4518   -0.0148   -9.1609   H         1 RES1   0.0000
   213 H126     -2.2436   -0.9691   -7.9155   H         1 RES1   0.0000
   214 H127      0.0327   -2.0639   -7.4716   H         1 RES1   0.0000
   215 H128      0.6075   -1.2914   -8.9324   H         1 RES1   0.0000
   216 H129     -0.5282   -2.8009  -10.2955   H         1 RES1   0.0000
   217 H130     -1.9215   -2.8872   -9.2288   H         1 RES1   0.0000
   218 H131     -0.5786   -4.2242   -7.5945   H         1 RES1   0.0000
   219 H132      0.7474   -4.2822   -8.7623   H         1 RES1   0.0000
   220 H133     -2.0703   -5.3234   -9.2982   H         1 RES1   0.0000
   221 H134     -0.7253   -6.3277   -8.7722   H         1 RES1   0.0000
   222 H135     -0.6661   -5.5278  -10.3496   H         1 RES1   0.0000
   223 H136     -4.1410    1.3693   -5.2332   H         1 RES1   0.0000
   224 H137     -4.1471    2.5101   -3.9101   H         1 RES1   0.0000
   225 H138     -6.0100    0.6594   -4.2274   H         1 RES1   0.0000
   226 H139     -5.5577    1.1651   -2.6232   H         1 RES1   0.0000
   227 H140     -3.9598   -1.1377   -3.5734   H         1 RES1   0.0000
   228 H141     -5.6916   -1.4392   -3.5160   H         1 RES1   0.0000
   229 H142     -5.5997   -0.5538   -1.0911   H         1 RES1   0.0000
   230 H143     -3.8403   -0.7262   -1.2284   H         1 RES1   0.0000
   231 H144     -4.3581   -3.0879   -2.1483   H         1 RES1   0.0000
   232 H145     -5.9695   -2.8727   -1.4830   H         1 RES1   0.0000
   233 H146     -5.0357   -2.6252    0.7758   H         1 RES1   0.0000
   234 H147     -3.3952   -2.6249    0.1326   H         1 RES1   0.0000
   235 H148     -5.2942   -4.9642   -0.2319   H         1 RES1   0.0000
   236 H149     -4.1692   -4.8370    1.1176   H         1 RES1   0.0000
   237 H150     -3.3584   -4.8885   -1.8292   H         1 RES1   0.0000
   238 H151     -3.2140   -6.2206   -0.6951   H         1 RES1   0.0000
   239 H152     -2.2508   -4.7603   -0.4606   H         1 RES1   0.0000
   240 N5       -1.9310   -0.2432    1.3754   N.3       1 RES1   0.0000
   241 O7       -2.9012   -0.1569    2.0590   O.2       1 RES1   0.0000
   242 O8       -1.9569   -0.8666    0.3040   O.co2     1 RES1   0.0000
   243 O9       -0.8663    0.3123    1.6815   O.co2     1 RES1   0.0000
@<TRIPOS>BOND
     1     1    20    1
     2     1    23    1
     3     1    27    1
     4     1   139    1
     5     1   142    1
     6     1   146    1
     7     1   242    1
     8     1   243    1
     9     2     3    1
    10     2    45    1
    11     2    46    1
    12     2    47    1
    13     3     4    1
    14     3    48    1
    15     3    49    1
    16     4     5    1
    17     4    50    1
    18     4    51    1
    19     5     6    1
    20     5    52    1
    21     5    53    1
    22     6     7    1
    23     6    54    1
    24     6    55    1
    25     7     8    1
    26     7    56    1
    27     7    57    1
    28     8     9    1
    29     8    58    1
    30     8    59    1
    31     9    10    1
    32     9    60    1
    33     9    61    1
    34    10    11    1
    35    10    19    1
    36    11    12    1
    37    11    62    1
    38    11    63    1
    39    12    13    1
    40    12    64    1
    41    12    65    1
    42    13    14    1
    43    13    66    1
    44    13    67    1
    45    14    15    1
    46    14    68    1
    47    14    69    1
    48    15    16    1
    49    15    70    1
    50    15    71    1
    51    16    17    1
    52    16    72    1
    53    16    73    1
    54    17    18    1
    55    17    74    1
    56    17    75    1
    57    18    76    1
    58    18    77    1
    59    18    78    1
    60    19    20    2
    61    19    21    1
    62    21    22    1
    63    21    23    1
    64    21    79    1
    65    22    80    1
    66    22    81    1
    67    22    82    1
    68    23    24    1
    69    24    25    1
    70    24    26    1
    71    24    83    1
    72    25    84    1
    73    25    85    1
    74    25    86    1
    75    26    27    2
    76    26    28    1
    77    28    29    1
    78    28    37    1
    79    29    30    1
    80    29    87    1
    81    29    88    1
    82    30    31    1
    83    30    89    1
    84    30    90    1
    85    31    32    1
    86    31    91    1
    87    31    92    1
    88    32    33    1
    89    32    93    1
    90    32    94    1
    91    33    34    1
    92    33    95    1
    93    33    96    1
    94    34    35    1
    95    34    97    1
    96    34    98    1
    97    35    36    1
    98    35    99    1
    99    35   100    1
   100    36   101    1
   101    36   102    1
   102    36   103    1
   103    37    38    1
   104    37   104    1
   105    37   105    1
   106    38    39    1
   107    38   106    1
   108    38   107    1
   109    39    40    1
   110    39   108    1
   111    39   109    1
   112    40    41    1
   113    40   110    1
   114    40   111    1
   115    41    42    1
   116    41   112    1
   117    41   113    1
   118    42    43    1
   119    42   114    1
   120    42   115    1
   121    43    44    1
   122    43   116    1
   123    43   117    1
   124    44   118    1
   125    44   119    1
   126    44   120    1
   127   121   122    1
   128   121   164    1
   129   121   165    1
   130   121   166    1
   131   122   123    1
   132   122   167    1
   133   122   168    1
   134   123   124    1
   135   123   169    1
   136   123   170    1
   137   124   125    1
   138   124   171    1
   139   124   172    1
   140   125   126    1
   141   125   173    1
   142   125   174    1
   143   126   127    1
   144   126   175    1
   145   126   176    1
   146   127   128    1
   147   127   177    1
   148   127   178    1
   149   128   129    1
   150   128   179    1
   151   128   180    1
   152   129   130    1
   153   129   138    1
   154   130   131    1
   155   130   181    1
   156   130   182    1
   157   131   132    1
   158   131   183    1
   159   131   184    1
   160   132   133    1
   161   132   185    1
   162   132   186    1
   163   133   134    1
   164   133   187    1
   165   133   188    1
   166   134   135    1
   167   134   189    1
   168   134   190    1
   169   135   136    1
   170   135   191    1
   171   135   192    1
   172   136   137    1
   173   136   193    1
   174   136   194    1
   175   137   195    1
   176   137   196    1
   177   137   197    1
   178   138   139    2
   179   138   140    1
   180   140   141    1
   181   140   142    1
   182   140   198    1
   183   141   199    1
   184   141   200    1
   185   141   201    1
   186   142   143    1
   187   143   144    1
   188   143   145    1
   189   143   202    1
   190   144   203    1
   191   144   204    1
   192   144   205    1
   193   145   146    2
   194   145   147    1
   195   147   148    1
   196   147   156    1
   197   148   149    1
   198   148   206    1
   199   148   207    1
   200   149   150    1
   201   149   208    1
   202   149   209    1
   203   150   151    1
   204   150   210    1
   205   150   211    1
   206   151   152    1
   207   151   212    1
   208   151   213    1
   209   152   153    1
   210   152   214    1
   211   152   215    1
   212   153   154    1
   213   153   216    1
   214   153   217    1
   215   154   155    1
   216   154   218    1
   217   154   219    1
   218   155   220    1
   219   155   221    1
   220   155   222    1
   221   156   157    1
   222   156   223    1
   223   156   224    1
   224   157   158    1
   225   157   225    1
   226   157   226    1
   227   158   159    1
   228   158   227    1
   229   158   228    1
   230   159   160    1
   231   159   229    1
   232   159   230    1
   233   160   161    1
   234   160   231    1
   235   160   232    1
   236   161   162    1
   237   161   233    1
   238   161   234    1
   239   162   163    1
   240   162   235    1
   241   162   236    1
   242   163   237    1
   243   163   238    1
   244   163   239    1
   245   240   241    2
   246   240   242    1
   247   240   243    1
@<TRIPOS>SUBSTRUCTURE
     1 RES1      243 GROUP             0 ****  ****    0  
