@<TRIPOS>MOLECULE
ICIGOT_geomtry_0_nunpairedes_0_charge_2 Charge: 2 Unpaired_Electrons: 0 XTB_Unpaired_Electrons: 0 XTB_Charge: 2
   245   251     1     0     0
SMALL
NoCharges
****
Generated from Architector

@<TRIPOS>ATOM
     1 Lu1      -0.0107   -0.0145    0.0703   Lu        1 RES1   0.0000
     2 C1        6.2621   -7.2394   -0.8079   C.3       1 RES1   0.0000
     3 C2        4.8227   -7.0329   -0.3494   C.3       1 RES1   0.0000
     4 C3        3.7973   -7.2066   -1.4796   C.3       1 RES1   0.0000
     5 C4        3.2011   -5.9327   -2.0917   C.3       1 RES1   0.0000
     6 C5        4.1544   -5.0419   -2.9028   C.3       1 RES1   0.0000
     7 C6        4.8576   -3.9429   -2.1004   C.3       1 RES1   0.0000
     8 C7        3.9077   -2.8185   -1.6894   C.3       1 RES1   0.0000
     9 C8        4.6156   -1.7578   -0.8459   C.3       1 RES1   0.0000
    10 P1        3.4119   -0.7157    0.0772   P.3       1 RES1   0.0000
    11 O1        2.1321   -0.5070   -0.6714   O.2       1 RES1   0.0000
    12 C9        4.1626    0.9077    0.4638   C.3       1 RES1   0.0000
    13 C10       5.5042    0.8510    1.1953   C.3       1 RES1   0.0000
    14 C11       5.4294    0.9543    2.7188   C.3       1 RES1   0.0000
    15 C12       5.1454    2.3735    3.2338   C.3       1 RES1   0.0000
    16 C13       3.6671    2.6618    3.5092   C.3       1 RES1   0.0000
    17 C14       3.4332    4.0733    4.0711   C.3       1 RES1   0.0000
    18 C15       3.0594    5.1247    3.0236   C.3       1 RES1   0.0000
    19 C16       4.1802    5.5252    2.0688   C.3       1 RES1   0.0000
    20 C17       3.1194   -1.6335    1.6825   C.3       1 RES1   0.0000
    21 C18       2.4624   -2.9389    1.4088   C.ar      1 RES1   0.0000
    22 C19       3.0780   -4.1626    1.5960   C.ar      1 RES1   0.0000
    23 C20       2.3776   -5.3314    1.3481   C.ar      1 RES1   0.0000
    24 C21       1.0976   -5.2438    0.8224   C.ar      1 RES1   0.0000
    25 C22       0.4931   -4.0063    0.6456   C.ar      1 RES1   0.0000
    26 C23      -0.9126   -3.8408    0.1891   C.3       1 RES1   0.0000
    27 P2       -1.0360   -3.1526   -1.5781   P.3       1 RES1   0.0000
    28 O2       -0.0046   -2.1009   -1.8319   O.2       1 RES1   0.0000
    29 C24      -0.6376   -4.7500   -2.4305   C.3       1 RES1   0.0000
    30 C25      -1.7041   -5.8431   -2.2157   C.3       1 RES1   0.0000
    31 C26      -1.1429   -7.2292   -1.8837   C.3       1 RES1   0.0000
    32 C27      -2.2777   -8.1997   -1.4978   C.3       1 RES1   0.0000
    33 C28      -2.4558   -8.3835    0.0128   C.3       1 RES1   0.0000
    34 C29      -3.6921   -9.2232    0.3514   C.3       1 RES1   0.0000
    35 C30      -3.9471   -9.3182    1.8679   C.3       1 RES1   0.0000
    36 C31      -5.0542   -8.3920    2.3616   C.3       1 RES1   0.0000
    37 C32      -2.7878   -2.9707   -2.2365   C.3       1 RES1   0.0000
    38 C33      -3.6518   -1.6956   -2.3323   C.3       1 RES1   0.0000
    39 C34      -4.9290   -1.7745   -1.4646   C.3       1 RES1   0.0000
    40 C35      -5.4457   -0.4273   -0.9457   C.3       1 RES1   0.0000
    41 C36      -6.6231   -0.5732    0.0346   C.3       1 RES1   0.0000
    42 C37      -6.3663   -1.3363    1.3429   C.3       1 RES1   0.0000
    43 C38      -5.7428   -0.5507    2.5019   C.3       1 RES1   0.0000
    44 C39      -6.1148   -1.1493    3.8580   C.3       1 RES1   0.0000
    45 N1        1.1721   -2.8951    1.0133   N.ar      1 RES1   0.0000
    46 O3        0.5326   -1.7607    1.0914   O.co2     1 RES1   0.0000
    47 H1        6.9549   -7.0706    0.0150   H         1 RES1   0.0000
    48 H2        6.5202   -6.5630   -1.6180   H         1 RES1   0.0000
    49 H3        6.4002   -8.2592   -1.1570   H         1 RES1   0.0000
    50 H4        4.7229   -6.0459    0.1035   H         1 RES1   0.0000
    51 H5        4.6217   -7.7686    0.4326   H         1 RES1   0.0000
    52 H6        2.9545   -7.7852   -1.0944   H         1 RES1   0.0000
    53 H7        4.2543   -7.7944   -2.2750   H         1 RES1   0.0000
    54 H8        2.7262   -5.3387   -1.3077   H         1 RES1   0.0000
    55 H9        2.4111   -6.2659   -2.7709   H         1 RES1   0.0000
    56 H10       3.5835   -4.5536   -3.6967   H         1 RES1   0.0000
    57 H11       4.8982   -5.6755   -3.3880   H         1 RES1   0.0000
    58 H12       5.6517   -3.5154   -2.7150   H         1 RES1   0.0000
    59 H13       5.3219   -4.3714   -1.2138   H         1 RES1   0.0000
    60 H14       3.0637   -3.2283   -1.1324   H         1 RES1   0.0000
    61 H15       3.4901   -2.3449   -2.5772   H         1 RES1   0.0000
    62 H16       5.2311   -1.1165   -1.4817   H         1 RES1   0.0000
    63 H17       5.2867   -2.2371   -0.1310   H         1 RES1   0.0000
    64 H18       3.4109    1.4982    0.9941   H         1 RES1   0.0000
    65 H19       4.2836    1.3760   -0.5197   H         1 RES1   0.0000
    66 H20       6.1452    1.6603    0.8457   H         1 RES1   0.0000
    67 H21       6.0061   -0.0785    0.9265   H         1 RES1   0.0000
    68 H22       6.4021    0.6461    3.1038   H         1 RES1   0.0000
    69 H23       4.6834    0.2639    3.1163   H         1 RES1   0.0000
    70 H24       5.5424    3.1005    2.5248   H         1 RES1   0.0000
    71 H25       5.6783    2.5209    4.1761   H         1 RES1   0.0000
    72 H26       3.3111    1.9286    4.2380   H         1 RES1   0.0000
    73 H27       3.0592    2.5372    2.6090   H         1 RES1   0.0000
    74 H28       4.3204    4.4041    4.6125   H         1 RES1   0.0000
    75 H29       2.6099    4.0332    4.7883   H         1 RES1   0.0000
    76 H30       2.7191    6.0199    3.5497   H         1 RES1   0.0000
    77 H31       2.2117    4.7416    2.4506   H         1 RES1   0.0000
    78 H32       5.0705    5.8137    2.6226   H         1 RES1   0.0000
    79 H33       3.8636    6.3779    1.4689   H         1 RES1   0.0000
    80 H34       4.4381    4.7112    1.3938   H         1 RES1   0.0000
    81 H35       2.4755   -1.0043    2.3104   H         1 RES1   0.0000
    82 H36       4.0702   -1.8014    2.1832   H         1 RES1   0.0000
    83 H37       4.0933   -4.1914    1.9681   H         1 RES1   0.0000
    84 H38       2.8249   -6.2901    1.5577   H         1 RES1   0.0000
    85 H39       0.5513   -6.1410    0.5802   H         1 RES1   0.0000
    86 H40      -1.4626   -3.2292    0.9017   H         1 RES1   0.0000
    87 H41      -1.3737   -4.8248    0.1561   H         1 RES1   0.0000
    88 H42       0.3351   -5.0823   -2.0589   H         1 RES1   0.0000
    89 H43      -0.5132   -4.5249   -3.4933   H         1 RES1   0.0000
    90 H44      -2.3054   -5.9355   -3.1239   H         1 RES1   0.0000
    91 H45      -2.3812   -5.5600   -1.4084   H         1 RES1   0.0000
    92 H46      -0.4227   -7.1608   -1.0629   H         1 RES1   0.0000
    93 H47      -0.5959   -7.6019   -2.7516   H         1 RES1   0.0000
    94 H48      -2.0857   -9.1791   -1.9345   H         1 RES1   0.0000
    95 H49      -3.2182   -7.8358   -1.9202   H         1 RES1   0.0000
    96 H50      -2.5399   -7.4092    0.5035   H         1 RES1   0.0000
    97 H51      -1.5755   -8.8899    0.4202   H         1 RES1   0.0000
    98 H52      -3.5458  -10.2229   -0.0597   H         1 RES1   0.0000
    99 H53      -4.5688   -8.7949   -0.1416   H         1 RES1   0.0000
   100 H54      -3.0246   -9.0784    2.4031   H         1 RES1   0.0000
   101 H55      -4.2161  -10.3415    2.1314   H         1 RES1   0.0000
   102 H56      -4.8063   -7.3588    2.1454   H         1 RES1   0.0000
   103 H57      -5.1828   -8.4887    3.4386   H         1 RES1   0.0000
   104 H58      -6.0031   -8.6370    1.8866   H         1 RES1   0.0000
   105 H59      -3.3689   -3.7428   -1.7352   H         1 RES1   0.0000
   106 H60      -2.6044   -3.3290   -3.2519   H         1 RES1   0.0000
   107 H61      -3.9517   -1.5908   -3.3748   H         1 RES1   0.0000
   108 H62      -3.0793   -0.7992   -2.0946   H         1 RES1   0.0000
   109 H63      -5.7261   -2.2517   -2.0374   H         1 RES1   0.0000
   110 H64      -4.7256   -2.4034   -0.6044   H         1 RES1   0.0000
   111 H65      -5.7844    0.1830   -1.7885   H         1 RES1   0.0000
   112 H66      -4.6202    0.1053   -0.4709   H         1 RES1   0.0000
   113 H67      -7.4175   -1.0924   -0.5044   H         1 RES1   0.0000
   114 H68      -7.0119    0.4169    0.2819   H         1 RES1   0.0000
   115 H69      -5.7237   -2.1928    1.1568   H         1 RES1   0.0000
   116 H70      -7.3300   -1.7112    1.6904   H         1 RES1   0.0000
   117 H71      -6.0733    0.4912    2.4614   H         1 RES1   0.0000
   118 H72      -4.6576   -0.5570    2.4123   H         1 RES1   0.0000
   119 H73      -7.1854   -1.0992    4.0171   H         1 RES1   0.0000
   120 H74      -5.6267   -0.6118    4.6713   H         1 RES1   0.0000
   121 H75      -5.8262   -2.1941    3.9214   H         1 RES1   0.0000
   122 C40      -2.3312    9.2728   -0.4765   C.3       1 RES1   0.0000
   123 C41      -2.9522    7.9334   -0.0935   C.3       1 RES1   0.0000
   124 C42      -2.8095    7.6135    1.4014   C.3       1 RES1   0.0000
   125 C43      -1.7449    6.5800    1.7848   C.3       1 RES1   0.0000
   126 C44      -0.2787    6.9945    1.5874   C.3       1 RES1   0.0000
   127 C45       0.3283    6.6407    0.2251   C.3       1 RES1   0.0000
   128 C46       0.4931    5.1332    0.0390   C.3       1 RES1   0.0000
   129 C47       1.0775    4.7695   -1.3231   C.3       1 RES1   0.0000
   130 P3        0.7881    2.9878   -1.6954   P.3       1 RES1   0.0000
   131 O4        0.9725    2.0815   -0.5159   O.2       1 RES1   0.0000
   132 C48       1.8923    2.4466   -3.0554   C.3       1 RES1   0.0000
   133 C49       1.7982    3.2477   -4.3577   C.3       1 RES1   0.0000
   134 C50       0.9633    2.6069   -5.4666   C.3       1 RES1   0.0000
   135 C51       1.6342    1.3911   -6.1263   C.3       1 RES1   0.0000
   136 C52       1.1793    0.0413   -5.5640   C.3       1 RES1   0.0000
   137 C53       1.8052   -1.1577   -6.2941   C.3       1 RES1   0.0000
   138 C54       3.0606   -1.7346   -5.6332   C.3       1 RES1   0.0000
   139 C55       4.3070   -0.8602   -5.7400   C.3       1 RES1   0.0000
   140 C56      -0.9645    2.9333   -2.3424   C.3       1 RES1   0.0000
   141 C57      -1.9928    3.3154   -1.3346   C.ar      1 RES1   0.0000
   142 C58      -2.8033    4.4299   -1.4366   C.ar      1 RES1   0.0000
   143 C59      -3.7955    4.6476   -0.4954   C.ar      1 RES1   0.0000
   144 C60      -3.8790    3.7972    0.5952   C.ar      1 RES1   0.0000
   145 C61      -3.0606    2.6781    0.6862   C.ar      1 RES1   0.0000
   146 C62      -3.2020    1.6510    1.7584   C.3       1 RES1   0.0000
   147 P4       -1.6568    1.4311    2.8591   P.3       1 RES1   0.0000
   148 O5       -0.3808    1.5491    2.0809   O.2       1 RES1   0.0000
   149 C63      -1.9895    2.8941    3.9524   C.3       1 RES1   0.0000
   150 C64      -3.2376    2.6832    4.8347   C.3       1 RES1   0.0000
   151 C65      -4.3125    3.7611    4.6796   C.3       1 RES1   0.0000
   152 C66      -5.6164    3.3695    5.4056   C.3       1 RES1   0.0000
   153 C67      -6.7487    3.0161    4.4348   C.3       1 RES1   0.0000
   154 C68      -8.0385    2.6120    5.1537   C.3       1 RES1   0.0000
   155 C69      -9.1705    2.1937    4.2046   C.3       1 RES1   0.0000
   156 C70      -9.0267    0.7857    3.6325   C.3       1 RES1   0.0000
   157 C71      -1.6685    0.1189    4.2008   C.3       1 RES1   0.0000
   158 C72      -1.1654   -1.3300    4.0949   C.3       1 RES1   0.0000
   159 C73      -2.3445   -2.3129    3.9883   C.3       1 RES1   0.0000
   160 C74      -1.9177   -3.7676    3.7719   C.3       1 RES1   0.0000
   161 C75      -3.0783   -4.7773    3.7851   C.3       1 RES1   0.0000
   162 C76      -4.2678   -4.5045    2.8576   C.3       1 RES1   0.0000
   163 C77      -4.1146   -4.9052    1.3892   C.3       1 RES1   0.0000
   164 C78      -5.4864   -5.1488    0.7583   C.3       1 RES1   0.0000
   165 N2       -2.2048    2.4281   -0.3314   N.ar      1 RES1   0.0000
   166 O6       -1.6376    1.2566   -0.4073   O.co2     1 RES1   0.0000
   167 H76      -2.3984    9.4343   -1.5512   H         1 RES1   0.0000
   168 H77      -1.2847    9.3194   -0.1858   H         1 RES1   0.0000
   169 H78      -2.8580   10.0857    0.0172   H         1 RES1   0.0000
   170 H79      -2.5055    7.1371   -0.6904   H         1 RES1   0.0000
   171 H80      -4.0114    7.9778   -0.3564   H         1 RES1   0.0000
   172 H81      -3.7628    7.2277    1.7668   H         1 RES1   0.0000
   173 H82      -2.6099    8.5398    1.9393   H         1 RES1   0.0000
   174 H83      -1.9384    5.6479    1.2495   H         1 RES1   0.0000
   175 H84      -1.8840    6.3760    2.8502   H         1 RES1   0.0000
   176 H85       0.3263    6.5004    2.3513   H         1 RES1   0.0000
   177 H86      -0.1925    8.0692    1.7562   H         1 RES1   0.0000
   178 H87       1.3113    7.1099    0.1523   H         1 RES1   0.0000
   179 H88      -0.2889    7.0442   -0.5766   H         1 RES1   0.0000
   180 H89      -0.4720    4.6388    0.1598   H         1 RES1   0.0000
   181 H90       1.1429    4.7335    0.8156   H         1 RES1   0.0000
   182 H91       2.1479    4.9900   -1.3524   H         1 RES1   0.0000
   183 H92       0.6038    5.3694   -2.1025   H         1 RES1   0.0000
   184 H93       1.7100    1.3784   -3.2028   H         1 RES1   0.0000
   185 H94       2.9014    2.5243   -2.6352   H         1 RES1   0.0000
   186 H95       2.7970    3.4107   -4.7614   H         1 RES1   0.0000
   187 H96       1.3945    4.2346   -4.1337   H         1 RES1   0.0000
   188 H97       0.8199    3.3708   -6.2319   H         1 RES1   0.0000
   189 H98      -0.0238    2.3274   -5.0937   H         1 RES1   0.0000
   190 H99       2.7170    1.4883   -6.0428   H         1 RES1   0.0000
   191 H100      1.3944    1.3893   -7.1923   H         1 RES1   0.0000
   192 H101      0.0926   -0.0148   -5.6679   H         1 RES1   0.0000
   193 H102      1.4019   -0.0458   -4.4975   H         1 RES1   0.0000
   194 H103      2.0386   -0.8795   -7.3227   H         1 RES1   0.0000
   195 H104      1.0688   -1.9632   -6.3345   H         1 RES1   0.0000
   196 H105      3.2761   -2.6973   -6.1041   H         1 RES1   0.0000
   197 H106      2.8394   -1.9299   -4.5800   H         1 RES1   0.0000
   198 H107      4.4866   -0.5748   -6.7743   H         1 RES1   0.0000
   199 H108      5.1764   -1.4135   -5.3852   H         1 RES1   0.0000
   200 H109      4.2104    0.0441   -5.1417   H         1 RES1   0.0000
   201 H110     -1.1406    1.8944   -2.6468   H         1 RES1   0.0000
   202 H111     -1.0289    3.5842   -3.2110   H         1 RES1   0.0000
   203 H112     -2.6668    5.1101   -2.2608   H         1 RES1   0.0000
   204 H113     -4.4836    5.4676   -0.6107   H         1 RES1   0.0000
   205 H114     -4.6125    3.9803    1.3635   H         1 RES1   0.0000
   206 H115     -3.4983    0.7087    1.2960   H         1 RES1   0.0000
   207 H116     -4.0084    1.9665    2.4193   H         1 RES1   0.0000
   208 H117     -2.1171    3.7659    3.3098   H         1 RES1   0.0000
   209 H118     -1.1034    3.0827    4.5616   H         1 RES1   0.0000
   210 H119     -2.9354    2.6449    5.8846   H         1 RES1   0.0000
   211 H120     -3.7081    1.7258    4.5963   H         1 RES1   0.0000
   212 H121     -4.5262    3.9179    3.6196   H         1 RES1   0.0000
   213 H122     -3.9223    4.7056    5.0576   H         1 RES1   0.0000
   214 H123     -5.9438    4.1860    6.0504   H         1 RES1   0.0000
   215 H124     -5.4333    2.5121    6.0574   H         1 RES1   0.0000
   216 H125     -6.4235    2.1988    3.7854   H         1 RES1   0.0000
   217 H126     -6.9619    3.8870    3.8096   H         1 RES1   0.0000
   218 H127     -8.3838    3.4634    5.7416   H         1 RES1   0.0000
   219 H128     -7.8313    1.7974    5.8513   H         1 RES1   0.0000
   220 H129     -9.2310    2.9112    3.3824   H         1 RES1   0.0000
   221 H130    -10.1136    2.2369    4.7528   H         1 RES1   0.0000
   222 H131     -8.1189    0.6932    3.0424   H         1 RES1   0.0000
   223 H132     -9.8708    0.5486    2.9861   H         1 RES1   0.0000
   224 H133     -9.0048    0.0527    4.4385   H         1 RES1   0.0000
   225 H134     -2.6816    0.0564    4.5880   H         1 RES1   0.0000
   226 H135     -1.0675    0.6563    4.9397   H         1 RES1   0.0000
   227 H136     -0.6052   -1.5496    5.0074   H         1 RES1   0.0000
   228 H137     -0.4733   -1.4606    3.2592   H         1 RES1   0.0000
   229 H138     -2.9844   -2.0039    3.1644   H         1 RES1   0.0000
   230 H139     -2.9314   -2.2565    4.9096   H         1 RES1   0.0000
   231 H140     -1.2240   -4.0542    4.5677   H         1 RES1   0.0000
   232 H141     -1.3733   -3.8362    2.8310   H         1 RES1   0.0000
   233 H142     -3.4585   -4.8212    4.8050   H         1 RES1   0.0000
   234 H143     -2.6784   -5.7681    3.5649   H         1 RES1   0.0000
   235 H144     -4.5332   -3.4516    2.8854   H         1 RES1   0.0000
   236 H145     -5.1102   -5.0685    3.2568   H         1 RES1   0.0000
   237 H146     -3.5051   -5.8090    1.3149   H         1 RES1   0.0000
   238 H147     -3.6096   -4.1137    0.8388   H         1 RES1   0.0000
   239 H148     -5.9948   -5.9650    1.2624   H         1 RES1   0.0000
   240 H149     -5.4092   -5.4002   -0.2975   H         1 RES1   0.0000
   241 H150     -6.1100   -4.2649    0.8533   H         1 RES1   0.0000
   242 N3       -2.2025   -1.1681    0.6976   N.3       1 RES1   0.0000
   243 O7       -3.2052   -1.7685    0.9546   O.2       1 RES1   0.0000
   244 O8       -1.7552   -1.1385   -0.4447   O.co2     1 RES1   0.0000
   245 O9       -1.5722   -0.5897    1.5759   O.co2     1 RES1   0.0000
@<TRIPOS>BOND
     1     1    11    1
     2     1    28    1
     3     1    46    1
     4     1   131    1
     5     1   148    1
     6     1   166    1
     7     1   244    1
     8     1   245    1
     9     2     3    1
    10     2    47    1
    11     2    48    1
    12     2    49    1
    13     3     4    1
    14     3    50    1
    15     3    51    1
    16     4     5    1
    17     4    52    1
    18     4    53    1
    19     5     6    1
    20     5    54    1
    21     5    55    1
    22     6     7    1
    23     6    56    1
    24     6    57    1
    25     7     8    1
    26     7    58    1
    27     7    59    1
    28     8     9    1
    29     8    60    1
    30     8    61    1
    31     9    10    1
    32     9    62    1
    33     9    63    1
    34    10    11    2
    35    10    12    1
    36    10    20    1
    37    12    13    1
    38    12    64    1
    39    12    65    1
    40    13    14    1
    41    13    66    1
    42    13    67    1
    43    14    15    1
    44    14    68    1
    45    14    69    1
    46    15    16    1
    47    15    70    1
    48    15    71    1
    49    16    17    1
    50    16    72    1
    51    16    73    1
    52    17    18    1
    53    17    74    1
    54    17    75    1
    55    18    19    1
    56    18    76    1
    57    18    77    1
    58    19    78    1
    59    19    79    1
    60    19    80    1
    61    20    21    1
    62    20    81    1
    63    20    82    1
    64    21    22    1
    65    21    45    2
    66    22    23    2
    67    22    83    1
    68    23    24    1
    69    23    84    1
    70    24    25    2
    71    24    85    1
    72    25    26    1
    73    25    45    1
    74    26    27    1
    75    26    86    1
    76    26    87    1
    77    27    28    2
    78    27    29    1
    79    27    37    1
    80    29    30    1
    81    29    88    1
    82    29    89    1
    83    30    31    1
    84    30    90    1
    85    30    91    1
    86    31    32    1
    87    31    92    1
    88    31    93    1
    89    32    33    1
    90    32    94    1
    91    32    95    1
    92    33    34    1
    93    33    96    1
    94    33    97    1
    95    34    35    1
    96    34    98    1
    97    34    99    1
    98    35    36    1
    99    35   100    1
   100    35   101    1
   101    36   102    1
   102    36   103    1
   103    36   104    1
   104    37    38    1
   105    37   105    1
   106    37   106    1
   107    38    39    1
   108    38   107    1
   109    38   108    1
   110    39    40    1
   111    39   109    1
   112    39   110    1
   113    40    41    1
   114    40   111    1
   115    40   112    1
   116    41    42    1
   117    41   113    1
   118    41   114    1
   119    42    43    1
   120    42   115    1
   121    42   116    1
   122    43    44    1
   123    43   117    1
   124    43   118    1
   125    44   119    1
   126    44   120    1
   127    44   121    1
   128    45    46    1
   129   122   123    1
   130   122   167    1
   131   122   168    1
   132   122   169    1
   133   123   124    1
   134   123   170    1
   135   123   171    1
   136   124   125    1
   137   124   172    1
   138   124   173    1
   139   125   126    1
   140   125   174    1
   141   125   175    1
   142   126   127    1
   143   126   176    1
   144   126   177    1
   145   127   128    1
   146   127   178    1
   147   127   179    1
   148   128   129    1
   149   128   180    1
   150   128   181    1
   151   129   130    1
   152   129   182    1
   153   129   183    1
   154   130   131    2
   155   130   132    1
   156   130   140    1
   157   132   133    1
   158   132   184    1
   159   132   185    1
   160   133   134    1
   161   133   186    1
   162   133   187    1
   163   134   135    1
   164   134   188    1
   165   134   189    1
   166   135   136    1
   167   135   190    1
   168   135   191    1
   169   136   137    1
   170   136   192    1
   171   136   193    1
   172   137   138    1
   173   137   194    1
   174   137   195    1
   175   138   139    1
   176   138   196    1
   177   138   197    1
   178   139   198    1
   179   139   199    1
   180   139   200    1
   181   140   141    1
   182   140   201    1
   183   140   202    1
   184   141   142    1
   185   141   165    2
   186   142   143    2
   187   142   203    1
   188   143   144    1
   189   143   204    1
   190   144   145    2
   191   144   205    1
   192   145   146    1
   193   145   165    1
   194   146   147    1
   195   146   206    1
   196   146   207    1
   197   147   148    2
   198   147   149    1
   199   147   157    1
   200   149   150    1
   201   149   208    1
   202   149   209    1
   203   150   151    1
   204   150   210    1
   205   150   211    1
   206   151   152    1
   207   151   212    1
   208   151   213    1
   209   152   153    1
   210   152   214    1
   211   152   215    1
   212   153   154    1
   213   153   216    1
   214   153   217    1
   215   154   155    1
   216   154   218    1
   217   154   219    1
   218   155   156    1
   219   155   220    1
   220   155   221    1
   221   156   222    1
   222   156   223    1
   223   156   224    1
   224   157   158    1
   225   157   225    1
   226   157   226    1
   227   158   159    1
   228   158   227    1
   229   158   228    1
   230   159   160    1
   231   159   229    1
   232   159   230    1
   233   160   161    1
   234   160   231    1
   235   160   232    1
   236   161   162    1
   237   161   233    1
   238   161   234    1
   239   162   163    1
   240   162   235    1
   241   162   236    1
   242   163   164    1
   243   163   237    1
   244   163   238    1
   245   164   239    1
   246   164   240    1
   247   164   241    1
   248   165   166    1
   249   242   243    2
   250   242   244    1
   251   242   245    1
@<TRIPOS>SUBSTRUCTURE
     1 RES1      245 GROUP             0 ****  ****    0  
