@<TRIPOS>MOLECULE
square_prismatic_0_nunpairedes_0_charge_2 Charge: 2 Unpaired_Electrons: 0 XTB_Unpaired_Electrons: 0 XTB_Charge: 2
   327   331     1     0     0
SMALL
NoCharges
****
Generated from Architector

@<TRIPOS>ATOM
     1 Lu1       0.0879    0.2040   -0.1884   Lu        1 RES1   0.0000
     2 C1       -4.8012   -2.7988   -5.8057   C.3       1 RES1   0.0000
     3 C2       -5.1058   -1.4629   -5.1356   C.3       1 RES1   0.0000
     4 C3       -4.2327   -1.2431   -3.8967   C.3       1 RES1   0.0000
     5 C4       -4.8829   -0.3644   -2.8280   C.3       1 RES1   0.0000
     6 C5       -5.1029    1.0879   -3.2685   C.3       1 RES1   0.0000
     7 C6       -3.8851    1.9730   -2.9953   C.3       1 RES1   0.0000
     8 C7       -3.6171    2.2659   -1.5139   C.3       1 RES1   0.0000
     9 C8       -2.7588    3.5241   -1.3480   C.3       1 RES1   0.0000
    10 C9       -2.2717    3.7123    0.0902   C.3       1 RES1   0.0000
    11 C10      -1.2656    4.8609    0.2333   C.3       1 RES1   0.0000
    12 C11      -0.6535    4.9840    1.6446   C.3       1 RES1   0.0000
    13 C12       0.7918    4.4566    1.7734   C.3       1 RES1   0.0000
    14 N1        0.9817    3.3464    2.7079   N.am      1 RES1   0.0000
    15 C13       1.5004    3.5918    4.0471   C.3       1 RES1   0.0000
    16 C14       2.9635    3.1551    4.2969   C.3       1 RES1   0.0000
    17 C15       3.1101    2.2951    5.5599   C.3       1 RES1   0.0000
    18 C16       4.5343    2.2636    6.1237   C.3       1 RES1   0.0000
    19 C17       5.5324    1.3379    5.4220   C.3       1 RES1   0.0000
    20 C18       5.3392   -0.1636    5.7007   C.3       1 RES1   0.0000
    21 C19       6.6817   -0.9119    5.7572   C.3       1 RES1   0.0000
    22 C20       6.6244   -2.3934    5.3699   C.3       1 RES1   0.0000
    23 C21       6.0027   -3.3444    6.3972   C.3       1 RES1   0.0000
    24 C22       5.9273   -4.7495    5.7939   C.3       1 RES1   0.0000
    25 C23       5.4463   -5.8454    6.7448   C.3       1 RES1   0.0000
    26 C24       3.9299   -5.9214    6.8709   C.3       1 RES1   0.0000
    27 C25       0.6792    2.1439    2.2600   C.2       1 RES1   0.0000
    28 O1        0.1335    1.9501    1.1517   O.2       1 RES1   0.0000
    29 C26       1.0233    0.8944    3.0629   C.3       1 RES1   0.0000
    30 O2        0.3355   -0.2139    2.4937   O.3       1 RES1   0.0000
    31 C27      -0.9145   -0.5015    3.1212   C.3       1 RES1   0.0000
    32 C28      -1.9955   -0.7558    2.0665   C.2       1 RES1   0.0000
    33 O3       -1.8648   -0.2328    0.9411   O.2       1 RES1   0.0000
    34 N2       -3.0481   -1.4903    2.4239   N.am      1 RES1   0.0000
    35 C29      -2.9477   -2.4154    3.5569   C.3       1 RES1   0.0000
    36 C30      -1.8652   -3.4994    3.3008   C.3       1 RES1   0.0000
    37 C31      -2.3912   -4.9451    3.3310   C.3       1 RES1   0.0000
    38 C32      -1.8246   -5.8560    2.2364   C.3       1 RES1   0.0000
    39 C33      -0.3467   -6.2393    2.3526   C.3       1 RES1   0.0000
    40 C34       0.1348   -6.8810    1.0479   C.3       1 RES1   0.0000
    41 C35       1.6490   -7.0509    0.9134   C.3       1 RES1   0.0000
    42 C36       1.9806   -7.6873   -0.4439   C.3       1 RES1   0.0000
    43 C37       3.3916   -7.4309   -0.9843   C.3       1 RES1   0.0000
    44 C38       3.7838   -5.9590   -1.1253   C.3       1 RES1   0.0000
    45 C39       2.7301   -5.1058   -1.8268   C.3       1 RES1   0.0000
    46 C40       3.1896   -3.6535   -1.9271   C.3       1 RES1   0.0000
    47 C41      -4.1671   -1.6711    1.4832   C.3       1 RES1   0.0000
    48 C42      -4.8550   -0.3846    1.0135   C.3       1 RES1   0.0000
    49 C43      -5.7052    0.3406    2.0600   C.3       1 RES1   0.0000
    50 C44      -5.9678    1.7851    1.6154   C.3       1 RES1   0.0000
    51 C45      -6.3737    2.7426    2.7443   C.3       1 RES1   0.0000
    52 C46      -5.8814    4.1730    2.4833   C.3       1 RES1   0.0000
    53 C47      -6.6713    4.9244    1.4023   C.3       1 RES1   0.0000
    54 C48      -5.7769    5.7258    0.4533   C.3       1 RES1   0.0000
    55 C49      -4.8677    6.7412    1.1463   C.3       1 RES1   0.0000
    56 C50      -4.0520    7.5488    0.1349   C.3       1 RES1   0.0000
    57 C51      -2.9986    8.4347    0.7998   C.3       1 RES1   0.0000
    58 C52      -2.1519    9.1990   -0.2118   C.3       1 RES1   0.0000
    59 H1       -5.1054   -3.6273   -5.1687   H         1 RES1   0.0000
    60 H2       -5.3472   -2.8788   -6.7401   H         1 RES1   0.0000
    61 H3       -3.7403   -2.9028   -6.0263   H         1 RES1   0.0000
    62 H4       -6.1576   -1.4446   -4.8542   H         1 RES1   0.0000
    63 H5       -4.9478   -0.6622   -5.8537   H         1 RES1   0.0000
    64 H6       -3.2799   -0.7978   -4.1906   H         1 RES1   0.0000
    65 H7       -4.0134   -2.2188   -3.4512   H         1 RES1   0.0000
    66 H8       -4.2339   -0.3648   -1.9442   H         1 RES1   0.0000
    67 H9       -5.8372   -0.8185   -2.5552   H         1 RES1   0.0000
    68 H10      -5.9683    1.5084   -2.7555   H         1 RES1   0.0000
    69 H11      -5.3310    1.1148   -4.3345   H         1 RES1   0.0000
    70 H12      -4.0364    2.9174   -3.5146   H         1 RES1   0.0000
    71 H13      -2.9984    1.4958   -3.4118   H         1 RES1   0.0000
    72 H14      -3.0787    1.4216   -1.0572   H         1 RES1   0.0000
    73 H15      -4.5631    2.3891   -0.9804   H         1 RES1   0.0000
    74 H16      -3.3256    4.4035   -1.6601   H         1 RES1   0.0000
    75 H17      -1.9015    3.4355   -2.0134   H         1 RES1   0.0000
    76 H18      -1.8215    2.7696    0.4279   H         1 RES1   0.0000
    77 H19      -3.1293    3.9219    0.7332   H         1 RES1   0.0000
    78 H20      -1.7761    5.7955   -0.0015   H         1 RES1   0.0000
    79 H21      -0.4738    4.7463   -0.5074   H         1 RES1   0.0000
    80 H22      -1.3023    4.4738    2.3565   H         1 RES1   0.0000
    81 H23      -0.6473    6.0350    1.9325   H         1 RES1   0.0000
    82 H24       1.4516    5.2560    2.1016   H         1 RES1   0.0000
    83 H25       1.1332    4.1035    0.7969   H         1 RES1   0.0000
    84 H26       0.8515    3.0930    4.7714   H         1 RES1   0.0000
    85 H27       1.3907    4.6596    4.2300   H         1 RES1   0.0000
    86 H28       3.5831    4.0421    4.4322   H         1 RES1   0.0000
    87 H29       3.3438    2.6380    3.4167   H         1 RES1   0.0000
    88 H30       2.7673    1.2744    5.3866   H         1 RES1   0.0000
    89 H31       2.4656    2.7308    6.3247   H         1 RES1   0.0000
    90 H32       4.4804    1.9691    7.1721   H         1 RES1   0.0000
    91 H33       4.9320    3.2789    6.0945   H         1 RES1   0.0000
    92 H34       6.5255    1.6165    5.7778   H         1 RES1   0.0000
    93 H35       5.5199    1.5207    4.3453   H         1 RES1   0.0000
    94 H36       4.7167   -0.6102    4.9219   H         1 RES1   0.0000
    95 H37       4.8213   -0.2849    6.6521   H         1 RES1   0.0000
    96 H38       7.1025   -0.8328    6.7603   H         1 RES1   0.0000
    97 H39       7.3793   -0.4254    5.0708   H         1 RES1   0.0000
    98 H40       7.6469   -2.7376    5.1948   H         1 RES1   0.0000
    99 H41       6.0928   -2.4978    4.4160   H         1 RES1   0.0000
   100 H42       5.0178   -2.9948    6.7103   H         1 RES1   0.0000
   101 H43       6.6296   -3.3690    7.2890   H         1 RES1   0.0000
   102 H44       6.9279   -5.0068    5.4415   H         1 RES1   0.0000
   103 H45       5.2728   -4.7341    4.9175   H         1 RES1   0.0000
   104 H46       5.8857   -5.6915    7.7296   H         1 RES1   0.0000
   105 H47       5.8037   -6.8050    6.3700   H         1 RES1   0.0000
   106 H48       3.5284   -5.0306    7.3477   H         1 RES1   0.0000
   107 H49       3.6479   -6.7798    7.4747   H         1 RES1   0.0000
   108 H50       3.4776   -6.0378    5.8860   H         1 RES1   0.0000
   109 H51       0.8116    0.9970    4.1320   H         1 RES1   0.0000
   110 H52       2.0932    0.7032    2.9237   H         1 RES1   0.0000
   111 H53      -1.2612    0.3497    3.7173   H         1 RES1   0.0000
   112 H54      -0.7462   -1.3512    3.7872   H         1 RES1   0.0000
   113 H55      -3.9202   -2.8904    3.6977   H         1 RES1   0.0000
   114 H56      -2.7465   -1.8627    4.4787   H         1 RES1   0.0000
   115 H57      -1.0657   -3.4142    4.0393   H         1 RES1   0.0000
   116 H58      -1.4269   -3.3039    2.3189   H         1 RES1   0.0000
   117 H59      -3.4697   -4.9255    3.1897   H         1 RES1   0.0000
   118 H60      -2.1960   -5.3807    4.3105   H         1 RES1   0.0000
   119 H61      -1.9885   -5.3638    1.2726   H         1 RES1   0.0000
   120 H62      -2.4115   -6.7749    2.2318   H         1 RES1   0.0000
   121 H63      -0.2080   -6.9349    3.1816   H         1 RES1   0.0000
   122 H64       0.2571   -5.3524    2.5682   H         1 RES1   0.0000
   123 H65      -0.2089   -6.2617    0.2111   H         1 RES1   0.0000
   124 H66      -0.3436   -7.8542    0.9316   H         1 RES1   0.0000
   125 H67       2.0260   -7.6703    1.7268   H         1 RES1   0.0000
   126 H68       2.1347   -6.0751    0.9959   H         1 RES1   0.0000
   127 H69       1.2550   -7.3336   -1.1814   H         1 RES1   0.0000
   128 H70       1.8468   -8.7668   -0.3704   H         1 RES1   0.0000
   129 H71       3.4512   -7.9021   -1.9669   H         1 RES1   0.0000
   130 H72       4.1255   -7.9213   -0.3439   H         1 RES1   0.0000
   131 H73       4.7129   -5.9042   -1.6946   H         1 RES1   0.0000
   132 H74       3.9876   -5.5334   -0.1384   H         1 RES1   0.0000
   133 H75       1.7936   -5.1639   -1.2658   H         1 RES1   0.0000
   134 H76       2.5378   -5.5104   -2.8218   H         1 RES1   0.0000
   135 H77       3.6846   -3.3484   -1.0060   H         1 RES1   0.0000
   136 H78       2.3607   -2.9663   -2.1019   H         1 RES1   0.0000
   137 H79       3.9011   -3.5461   -2.7390   H         1 RES1   0.0000
   138 H80      -4.9090   -2.3100    1.9653   H         1 RES1   0.0000
   139 H81      -3.7831   -2.1893    0.5942   H         1 RES1   0.0000
   140 H82      -5.4874   -0.6666    0.1710   H         1 RES1   0.0000
   141 H83      -4.1000    0.3023    0.6330   H         1 RES1   0.0000
   142 H84      -6.6462   -0.1901    2.2173   H         1 RES1   0.0000
   143 H85      -5.1716    0.3480    3.0124   H         1 RES1   0.0000
   144 H86      -6.7282    1.7897    0.8347   H         1 RES1   0.0000
   145 H87      -5.0463    2.1674    1.1728   H         1 RES1   0.0000
   146 H88      -5.9370    2.3966    3.6843   H         1 RES1   0.0000
   147 H89      -7.4563    2.7491    2.8725   H         1 RES1   0.0000
   148 H90      -4.8343    4.1191    2.1754   H         1 RES1   0.0000
   149 H91      -5.9141    4.7443    3.4137   H         1 RES1   0.0000
   150 H92      -7.3911    5.5934    1.8745   H         1 RES1   0.0000
   151 H93      -7.2386    4.2100    0.8031   H         1 RES1   0.0000
   152 H94      -6.4136    6.2529   -0.2590   H         1 RES1   0.0000
   153 H95      -5.1590    5.0288   -0.1171   H         1 RES1   0.0000
   154 H96      -4.1807    6.2235    1.8200   H         1 RES1   0.0000
   155 H97      -5.4700    7.4185    1.7535   H         1 RES1   0.0000
   156 H98      -4.7232    8.1740   -0.4552   H         1 RES1   0.0000
   157 H99      -3.5612    6.8601   -0.5578   H         1 RES1   0.0000
   158 H100     -2.3445    7.8164    1.4216   H         1 RES1   0.0000
   159 H101     -3.4954    9.1478    1.4593   H         1 RES1   0.0000
   160 H102     -1.6326    8.5176   -0.8827   H         1 RES1   0.0000
   161 H103     -1.4100    9.8071    0.2997   H         1 RES1   0.0000
   162 H104     -2.7735    9.8576   -0.8118   H         1 RES1   0.0000
   163 C53       4.6914    5.9184    2.2639   C.3       1 RES1   0.0000
   164 C54       5.0436    5.3296    0.9023   C.3       1 RES1   0.0000
   165 C55       4.6186    3.8651    0.7781   C.3       1 RES1   0.0000
   166 C56       5.3987    3.0892   -0.2857   C.3       1 RES1   0.0000
   167 C57       5.2349    3.5877   -1.7242   C.3       1 RES1   0.0000
   168 C58       3.9590    3.1458   -2.4418   C.3       1 RES1   0.0000
   169 C59       3.8737    1.6419   -2.6944   C.3       1 RES1   0.0000
   170 C60       2.7614    1.3010   -3.6887   C.3       1 RES1   0.0000
   171 C61       2.3681   -0.1735   -3.6001   C.3       1 RES1   0.0000
   172 C62       1.1567   -0.5063   -4.4714   C.3       1 RES1   0.0000
   173 C63       0.8514   -2.0151   -4.5456   C.3       1 RES1   0.0000
   174 C64      -0.6127   -2.3892   -4.2388   C.3       1 RES1   0.0000
   175 N3       -0.7601   -3.1358   -2.9869   N.am      1 RES1   0.0000
   176 C65      -1.0804   -4.5517   -3.0413   C.3       1 RES1   0.0000
   177 C66      -2.5776   -4.8688   -2.8677   C.3       1 RES1   0.0000
   178 C67      -2.7569   -6.1393   -2.0310   C.3       1 RES1   0.0000
   179 C68      -4.1714   -6.7256   -2.0437   C.3       1 RES1   0.0000
   180 C69      -5.2123   -5.9686   -1.2119   C.3       1 RES1   0.0000
   181 C70      -5.0197   -6.0348    0.3125   C.3       1 RES1   0.0000
   182 C71      -6.3678   -5.9751    1.0451   C.3       1 RES1   0.0000
   183 C72      -6.3101   -5.4418    2.4795   C.3       1 RES1   0.0000
   184 C73      -5.7422   -6.3930    3.5353   C.3       1 RES1   0.0000
   185 C74      -5.8317   -5.7167    4.9057   C.3       1 RES1   0.0000
   186 C75      -5.4165   -6.5832    6.0928   C.3       1 RES1   0.0000
   187 C76      -3.9069   -6.7470    6.2154   C.3       1 RES1   0.0000
   188 C77      -0.6188   -2.4627   -1.8595   C.2       1 RES1   0.0000
   189 O4       -0.2609   -1.2673   -1.8226   O.2       1 RES1   0.0000
   190 C78      -0.9301   -3.1031   -0.5054   C.3       1 RES1   0.0000
   191 O5       -0.1846   -2.4122    0.4930   O.3       1 RES1   0.0000
   192 C79       1.0732   -3.0271    0.7855   C.3       1 RES1   0.0000
   193 C80       2.1523   -1.9546    0.9576   C.2       1 RES1   0.0000
   194 O6        1.9993   -0.8785    0.3511   O.2       1 RES1   0.0000
   195 N4        3.2171   -2.2438    1.6982   N.am      1 RES1   0.0000
   196 C81       3.1599   -3.3452    2.6625   C.3       1 RES1   0.0000
   197 C82       2.0585   -3.1189    3.7319   C.3       1 RES1   0.0000
   198 C83       2.5779   -2.9501    5.1710   C.3       1 RES1   0.0000
   199 C84       2.0260   -1.7271    5.9089   C.3       1 RES1   0.0000
   200 C85       0.5925   -1.8448    6.4296   C.3       1 RES1   0.0000
   201 C86       0.1180   -0.4967    6.9793   C.3       1 RES1   0.0000
   202 C87      -1.3905   -0.3862    7.2027   C.3       1 RES1   0.0000
   203 C88      -1.7427    0.9971    7.7678   C.3       1 RES1   0.0000
   204 C89      -3.1496    1.5086    7.4413   C.3       1 RES1   0.0000
   205 C90      -3.4824    1.6056    5.9499   C.3       1 RES1   0.0000
   206 C91      -2.3897    2.2797    5.1233   C.3       1 RES1   0.0000
   207 C92      -2.7958    2.4061    3.6559   C.3       1 RES1   0.0000
   208 C93       4.3131   -1.2667    1.8250   C.3       1 RES1   0.0000
   209 C94       4.9592   -0.7702    0.5251   C.3       1 RES1   0.0000
   210 C95       5.8971   -1.7548   -0.1850   C.3       1 RES1   0.0000
   211 C96       6.0304   -1.3980   -1.6725   C.3       1 RES1   0.0000
   212 C97       6.5502   -2.5367   -2.5619   C.3       1 RES1   0.0000
   213 C98       6.0497   -2.4105   -4.0088   C.3       1 RES1   0.0000
   214 C99       6.7744   -1.3392   -4.8389   C.3       1 RES1   0.0000
   215 C100      5.8264   -0.4022   -5.5918   C.3       1 RES1   0.0000
   216 C101      4.8854   -1.0992   -6.5751   C.3       1 RES1   0.0000
   217 C102      4.0166   -0.0911   -7.3296   C.3       1 RES1   0.0000
   218 C103      2.9685   -0.7583   -8.2185   C.3       1 RES1   0.0000
   219 C104      2.1161    0.2529   -8.9777   C.3       1 RES1   0.0000
   220 H105      5.0034    6.9572    2.3215   H         1 RES1   0.0000
   221 H106      5.1937    5.3696    3.0583   H         1 RES1   0.0000
   222 H107      3.6181    5.8791    2.4418   H         1 RES1   0.0000
   223 H108      6.1234    5.3986    0.7620   H         1 RES1   0.0000
   224 H109      4.5666    5.9235    0.1230   H         1 RES1   0.0000
   225 H110      3.5489    3.7991    0.5719   H         1 RES1   0.0000
   226 H111      4.8005    3.3772    1.7410   H         1 RES1   0.0000
   227 H112      5.0995    2.0419   -0.2401   H         1 RES1   0.0000
   228 H113      6.4585    3.1412   -0.0259   H         1 RES1   0.0000
   229 H114      6.0914    3.2386   -2.3058   H         1 RES1   0.0000
   230 H115      5.2626    4.6761   -1.7264   H         1 RES1   0.0000
   231 H116      3.9233    3.6589   -3.4050   H         1 RES1   0.0000
   232 H117      3.0800    3.4545   -1.8766   H         1 RES1   0.0000
   233 H118      3.6602    1.1260   -1.7553   H         1 RES1   0.0000
   234 H119      4.8317    1.2728   -3.0665   H         1 RES1   0.0000
   235 H120      3.0844    1.5408   -4.7042   H         1 RES1   0.0000
   236 H121      1.8918    1.9305   -3.4877   H         1 RES1   0.0000
   237 H122      2.1393   -0.4151   -2.5489   H         1 RES1   0.0000
   238 H123      3.2247   -0.7749   -3.9089   H         1 RES1   0.0000
   239 H124      1.3404   -0.1267   -5.4768   H         1 RES1   0.0000
   240 H125      0.2991    0.0359   -4.0661   H         1 RES1   0.0000
   241 H126      1.4900   -2.5564   -3.8458   H         1 RES1   0.0000
   242 H127      1.1106   -2.3888   -5.5363   H         1 RES1   0.0000
   243 H128     -1.0293   -3.0080   -5.0312   H         1 RES1   0.0000
   244 H129     -1.2209   -1.4839   -4.1454   H         1 RES1   0.0000
   245 H130     -0.4997   -5.0802   -2.2793   H         1 RES1   0.0000
   246 H131     -0.7322   -4.9364   -4.0003   H         1 RES1   0.0000
   247 H132     -3.0274   -5.0106   -3.8522   H         1 RES1   0.0000
   248 H133     -3.0787   -4.0234   -2.3940   H         1 RES1   0.0000
   249 H134     -2.4552   -5.9417   -0.9987   H         1 RES1   0.0000
   250 H135     -2.0798   -6.8945   -2.4336   H         1 RES1   0.0000
   251 H136     -4.1117   -7.7529   -1.6783   H         1 RES1   0.0000
   252 H137     -4.5256   -6.7709   -3.0768   H         1 RES1   0.0000
   253 H138     -6.1897   -6.3961   -1.4447   H         1 RES1   0.0000
   254 H139     -5.2366   -4.9240   -1.5319   H         1 RES1   0.0000
   255 H140     -4.4048   -5.1937    0.6414   H         1 RES1   0.0000
   256 H141     -4.5010   -6.9555    0.5791   H         1 RES1   0.0000
   257 H142     -6.8229   -6.9661    1.0619   H         1 RES1   0.0000
   258 H143     -7.0349   -5.3172    0.4817   H         1 RES1   0.0000
   259 H144     -7.3300   -5.1961    2.7869   H         1 RES1   0.0000
   260 H145     -5.7412   -4.5039    2.4974   H         1 RES1   0.0000
   261 H146     -4.7142   -6.6698    3.2977   H         1 RES1   0.0000
   262 H147     -6.3280   -7.3126    3.5461   H         1 RES1   0.0000
   263 H148     -6.8678   -5.4039    5.0491   H         1 RES1   0.0000
   264 H149     -5.2182   -4.8105    4.9043   H         1 RES1   0.0000
   265 H150     -5.8885   -7.5619    6.0117   H         1 RES1   0.0000
   266 H151     -5.7863   -6.1124    7.0051   H         1 RES1   0.0000
   267 H152     -3.4949   -7.2451    5.3412   H         1 RES1   0.0000
   268 H153     -3.6626   -7.3440    7.0899   H         1 RES1   0.0000
   269 H154     -3.4357   -5.7706    6.3282   H         1 RES1   0.0000
   270 H155     -0.7441   -4.1784   -0.4548   H         1 RES1   0.0000
   271 H156     -1.9903   -2.9111   -0.2983   H         1 RES1   0.0000
   272 H157      1.4048   -3.6568   -0.0467   H         1 RES1   0.0000
   273 H158      0.9316   -3.6526    1.6676   H         1 RES1   0.0000
   274 H159      4.1345   -3.4241    3.1448   H         1 RES1   0.0000
   275 H160      3.0017   -4.2897    2.1326   H         1 RES1   0.0000
   276 H161      1.3636   -3.9606    3.7227   H         1 RES1   0.0000
   277 H162      1.4994   -2.2227    3.4516   H         1 RES1   0.0000
   278 H163      3.6595   -2.8493    5.1410   H         1 RES1   0.0000
   279 H164      2.3503   -3.8475    5.7437   H         1 RES1   0.0000
   280 H165      2.0921   -0.8667    5.2374   H         1 RES1   0.0000
   281 H166      2.6748   -1.5252    6.7617   H         1 RES1   0.0000
   282 H167      0.5474   -2.5994    7.2163   H         1 RES1   0.0000
   283 H168     -0.0790   -2.1714    5.6286   H         1 RES1   0.0000
   284 H169      0.4166    0.2906    6.2779   H         1 RES1   0.0000
   285 H170      0.6338   -0.2908    7.9178   H         1 RES1   0.0000
   286 H171     -1.7206   -1.1698    7.8843   H         1 RES1   0.0000
   287 H172     -1.9098   -0.5434    6.2538   H         1 RES1   0.0000
   288 H173     -1.0118    1.7227    7.4022   H         1 RES1   0.0000
   289 H174     -1.6415    0.9780    8.8531   H         1 RES1   0.0000
   290 H175     -3.2435    2.5021    7.8828   H         1 RES1   0.0000
   291 H176     -3.8921    0.8682    7.9193   H         1 RES1   0.0000
   292 H177     -4.4077    2.1745    5.8428   H         1 RES1   0.0000
   293 H178     -3.6712    0.6064    5.5458   H         1 RES1   0.0000
   294 H179     -1.4700    1.6940    5.2075   H         1 RES1   0.0000
   295 H180     -2.1836    3.2683    5.5374   H         1 RES1   0.0000
   296 H181     -3.3197    1.5127    3.3161   H         1 RES1   0.0000
   297 H182     -1.9315    2.5552    3.0077   H         1 RES1   0.0000
   298 H183     -3.4683    3.2496    3.5297   H         1 RES1   0.0000
   299 H184      5.0897   -1.7212    2.4409   H         1 RES1   0.0000
   300 H185      3.9123   -0.3920    2.3530   H         1 RES1   0.0000
   301 H186      5.5246    0.1205    0.8038   H         1 RES1   0.0000
   302 H187      4.1785   -0.4521   -0.1660   H         1 RES1   0.0000
   303 H188      6.8776   -1.7514    0.2954   H         1 RES1   0.0000
   304 H189      5.4967   -2.7658   -0.0921   H         1 RES1   0.0000
   305 H190      6.6749   -0.5261   -1.7798   H         1 RES1   0.0000
   306 H191      5.0419   -1.1136   -2.0366   H         1 RES1   0.0000
   307 H192      6.2054   -3.4924   -2.1602   H         1 RES1   0.0000
   308 H193      7.6402   -2.5644   -2.5573   H         1 RES1   0.0000
   309 H194      4.9835   -2.1727   -3.9819   H         1 RES1   0.0000
   310 H195      6.1478   -3.3758   -4.5096   H         1 RES1   0.0000
   311 H196      7.4420   -1.8222   -5.5532   H         1 RES1   0.0000
   312 H197      7.3950   -0.7287   -4.1802   H         1 RES1   0.0000
   313 H198      6.4273    0.3262   -6.1388   H         1 RES1   0.0000
   314 H199      5.2299    0.1509   -4.8648   H         1 RES1   0.0000
   315 H200      4.2362   -1.7963   -6.0396   H         1 RES1   0.0000
   316 H201      5.4696   -1.6826   -7.2881   H         1 RES1   0.0000
   317 H202      4.6550    0.5432   -7.9462   H         1 RES1   0.0000
   318 H203      3.5124    0.5574   -6.6091   H         1 RES1   0.0000
   319 H204      2.3175   -1.3867   -7.6036   H         1 RES1   0.0000
   320 H205      3.4689   -1.4093   -8.9368   H         1 RES1   0.0000
   321 H206      1.5981    0.9227   -8.2939   H         1 RES1   0.0000
   322 H207      1.3725   -0.2589   -9.5839   H         1 RES1   0.0000
   323 H208      2.7333    0.8561   -9.6378   H         1 RES1   0.0000
   324 N5        0.5133    2.1287   -1.4301   N.3       1 RES1   0.0000
   325 O7        0.5785    3.2861   -1.6907   O.2       1 RES1   0.0000
   326 O8       -0.5063    1.4619   -1.6616   O.co2     1 RES1   0.0000
   327 O9        1.4636    1.5311   -0.9038   O.co2     1 RES1   0.0000
@<TRIPOS>BOND
     1     1    28    1
     2     1    30    1
     3     1    33    1
     4     1   189    1
     5     1   191    1
     6     1   194    1
     7     1   326    1
     8     1   327    1
     9     2     3    1
    10     2    59    1
    11     2    60    1
    12     2    61    1
    13     3     4    1
    14     3    62    1
    15     3    63    1
    16     4     5    1
    17     4    64    1
    18     4    65    1
    19     5     6    1
    20     5    66    1
    21     5    67    1
    22     6     7    1
    23     6    68    1
    24     6    69    1
    25     7     8    1
    26     7    70    1
    27     7    71    1
    28     8     9    1
    29     8    72    1
    30     8    73    1
    31     9    10    1
    32     9    74    1
    33     9    75    1
    34    10    11    1
    35    10    76    1
    36    10    77    1
    37    11    12    1
    38    11    78    1
    39    11    79    1
    40    12    13    1
    41    12    80    1
    42    12    81    1
    43    13    14    1
    44    13    82    1
    45    13    83    1
    46    14    15    1
    47    14    27    1
    48    15    16    1
    49    15    84    1
    50    15    85    1
    51    16    17    1
    52    16    86    1
    53    16    87    1
    54    17    18    1
    55    17    88    1
    56    17    89    1
    57    18    19    1
    58    18    90    1
    59    18    91    1
    60    19    20    1
    61    19    92    1
    62    19    93    1
    63    20    21    1
    64    20    94    1
    65    20    95    1
    66    21    22    1
    67    21    96    1
    68    21    97    1
    69    22    23    1
    70    22    98    1
    71    22    99    1
    72    23    24    1
    73    23   100    1
    74    23   101    1
    75    24    25    1
    76    24   102    1
    77    24   103    1
    78    25    26    1
    79    25   104    1
    80    25   105    1
    81    26   106    1
    82    26   107    1
    83    26   108    1
    84    27    28    2
    85    27    29    1
    86    29    30    1
    87    29   109    1
    88    29   110    1
    89    30    31    1
    90    31    32    1
    91    31   111    1
    92    31   112    1
    93    32    33    2
    94    32    34    1
    95    34    35    1
    96    34    47    1
    97    35    36    1
    98    35   113    1
    99    35   114    1
   100    36    37    1
   101    36   115    1
   102    36   116    1
   103    37    38    1
   104    37   117    1
   105    37   118    1
   106    38    39    1
   107    38   119    1
   108    38   120    1
   109    39    40    1
   110    39   121    1
   111    39   122    1
   112    40    41    1
   113    40   123    1
   114    40   124    1
   115    41    42    1
   116    41   125    1
   117    41   126    1
   118    42    43    1
   119    42   127    1
   120    42   128    1
   121    43    44    1
   122    43   129    1
   123    43   130    1
   124    44    45    1
   125    44   131    1
   126    44   132    1
   127    45    46    1
   128    45   133    1
   129    45   134    1
   130    46   135    1
   131    46   136    1
   132    46   137    1
   133    47    48    1
   134    47   138    1
   135    47   139    1
   136    48    49    1
   137    48   140    1
   138    48   141    1
   139    49    50    1
   140    49   142    1
   141    49   143    1
   142    50    51    1
   143    50   144    1
   144    50   145    1
   145    51    52    1
   146    51   146    1
   147    51   147    1
   148    52    53    1
   149    52   148    1
   150    52   149    1
   151    53    54    1
   152    53   150    1
   153    53   151    1
   154    54    55    1
   155    54   152    1
   156    54   153    1
   157    55    56    1
   158    55   154    1
   159    55   155    1
   160    56    57    1
   161    56   156    1
   162    56   157    1
   163    57    58    1
   164    57   158    1
   165    57   159    1
   166    58   160    1
   167    58   161    1
   168    58   162    1
   169   163   164    1
   170   163   220    1
   171   163   221    1
   172   163   222    1
   173   164   165    1
   174   164   223    1
   175   164   224    1
   176   165   166    1
   177   165   225    1
   178   165   226    1
   179   166   167    1
   180   166   227    1
   181   166   228    1
   182   167   168    1
   183   167   229    1
   184   167   230    1
   185   168   169    1
   186   168   231    1
   187   168   232    1
   188   169   170    1
   189   169   233    1
   190   169   234    1
   191   170   171    1
   192   170   235    1
   193   170   236    1
   194   171   172    1
   195   171   237    1
   196   171   238    1
   197   172   173    1
   198   172   239    1
   199   172   240    1
   200   173   174    1
   201   173   241    1
   202   173   242    1
   203   174   175    1
   204   174   243    1
   205   174   244    1
   206   175   176    1
   207   175   188    1
   208   176   177    1
   209   176   245    1
   210   176   246    1
   211   177   178    1
   212   177   247    1
   213   177   248    1
   214   178   179    1
   215   178   249    1
   216   178   250    1
   217   179   180    1
   218   179   251    1
   219   179   252    1
   220   180   181    1
   221   180   253    1
   222   180   254    1
   223   181   182    1
   224   181   255    1
   225   181   256    1
   226   182   183    1
   227   182   257    1
   228   182   258    1
   229   183   184    1
   230   183   259    1
   231   183   260    1
   232   184   185    1
   233   184   261    1
   234   184   262    1
   235   185   186    1
   236   185   263    1
   237   185   264    1
   238   186   187    1
   239   186   265    1
   240   186   266    1
   241   187   267    1
   242   187   268    1
   243   187   269    1
   244   188   189    2
   245   188   190    1
   246   190   191    1
   247   190   270    1
   248   190   271    1
   249   191   192    1
   250   192   193    1
   251   192   272    1
   252   192   273    1
   253   193   194    2
   254   193   195    1
   255   195   196    1
   256   195   208    1
   257   196   197    1
   258   196   274    1
   259   196   275    1
   260   197   198    1
   261   197   276    1
   262   197   277    1
   263   198   199    1
   264   198   278    1
   265   198   279    1
   266   199   200    1
   267   199   280    1
   268   199   281    1
   269   200   201    1
   270   200   282    1
   271   200   283    1
   272   201   202    1
   273   201   284    1
   274   201   285    1
   275   202   203    1
   276   202   286    1
   277   202   287    1
   278   203   204    1
   279   203   288    1
   280   203   289    1
   281   204   205    1
   282   204   290    1
   283   204   291    1
   284   205   206    1
   285   205   292    1
   286   205   293    1
   287   206   207    1
   288   206   294    1
   289   206   295    1
   290   207   296    1
   291   207   297    1
   292   207   298    1
   293   208   209    1
   294   208   299    1
   295   208   300    1
   296   209   210    1
   297   209   301    1
   298   209   302    1
   299   210   211    1
   300   210   303    1
   301   210   304    1
   302   211   212    1
   303   211   305    1
   304   211   306    1
   305   212   213    1
   306   212   307    1
   307   212   308    1
   308   213   214    1
   309   213   309    1
   310   213   310    1
   311   214   215    1
   312   214   311    1
   313   214   312    1
   314   215   216    1
   315   215   313    1
   316   215   314    1
   317   216   217    1
   318   216   315    1
   319   216   316    1
   320   217   218    1
   321   217   317    1
   322   217   318    1
   323   218   219    1
   324   218   319    1
   325   218   320    1
   326   219   321    1
   327   219   322    1
   328   219   323    1
   329   324   325    2
   330   324   326    1
   331   324   327    1
@<TRIPOS>SUBSTRUCTURE
     1 RES1      327 GROUP             0 ****  ****    0  
