@<TRIPOS>MOLECULE
YEMSEP_geometry_0_nunpairedes_0_charge_3 Charge: 3 Unpaired_Electrons: 0 XTB_Unpaired_Electrons: 0 XTB_Charge: 3
   145   158     1     0     0
SMALL
NoCharges
****
Generated from Architector

@<TRIPOS>ATOM
     1 Lu1      -0.0482   -0.1016    0.0116   Lu        1 RES1   0.0000
     2 C1        4.2214    2.4354   -1.4955   C.3       1 RES1   0.0000
     3 C2        3.5775    1.3497   -2.3494   C.3       1 RES1   0.0000
     4 N1        3.7354    0.0410   -1.7020   N.am      1 RES1   0.0000
     5 C3        2.6569   -0.5566   -1.2271   C.2       1 RES1   0.0000
     6 O1        1.5176   -0.0525   -1.4205   O.2       1 RES1   0.0000
     7 C4        2.6829   -1.7975   -0.3749   C.ar      1 RES1   0.0000
     8 C5        3.6371   -2.8094   -0.3105   C.ar      1 RES1   0.0000
     9 C6        3.5076   -3.7534    0.7016   C.ar      1 RES1   0.0000
    10 C7        2.4011   -3.7358    1.5406   C.ar      1 RES1   0.0000
    11 C8        1.4014   -2.7910    1.2997   C.ar      1 RES1   0.0000
    12 C9        0.0455   -2.8116    1.9014   C.ar      1 RES1   0.0000
    13 C10      -0.5295   -3.9603    2.4440   C.ar      1 RES1   0.0000
    14 C11      -1.8964   -3.9646    2.6450   C.ar      1 RES1   0.0000
    15 C12      -2.6437   -2.8167    2.4022   C.ar      1 RES1   0.0000
    16 C13      -1.9714   -1.6475    2.0471   C.ar      1 RES1   0.0000
    17 C14      -2.5194   -0.2464    1.7909   C.2       1 RES1   0.0000
    18 O2       -1.9260    0.3629    0.8655   O.2       1 RES1   0.0000
    19 N2       -3.4953    0.3154    2.5043   N.am      1 RES1   0.0000
    20 C15      -4.2226   -0.4875    3.4877   C.3       1 RES1   0.0000
    21 C16      -5.4822   -1.1237    2.8995   C.3       1 RES1   0.0000
    22 C17      -3.9371    1.6722    2.3054   C.ar      1 RES1   0.0000
    23 C18      -3.2313    2.6206    1.5549   C.ar      1 RES1   0.0000
    24 C19      -3.7245    3.9052    1.3719   C.ar      1 RES1   0.0000
    25 C20      -2.9922    4.9119    0.5382   C.3       1 RES1   0.0000
    26 C21      -4.9278    4.2737    1.9594   C.ar      1 RES1   0.0000
    27 C22      -5.6306    3.3700    2.7341   C.ar      1 RES1   0.0000
    28 C23      -6.9250    3.7425    3.3804   C.3       1 RES1   0.0000
    29 C24      -5.1288    2.0832    2.8984   C.ar      1 RES1   0.0000
    30 N3       -0.6614   -1.6865    1.7606   N.ar      1 RES1   0.0000
    31 N4        1.5789   -1.8380    0.3832   N.ar      1 RES1   0.0000
    32 C25       5.0924   -0.3951   -1.6211   C.ar      1 RES1   0.0000
    33 C26       5.7204   -0.6875   -0.4158   C.ar      1 RES1   0.0000
    34 C27       7.0779   -0.9837   -0.4013   C.ar      1 RES1   0.0000
    35 C28       7.7688   -1.3456    0.8738   C.3       1 RES1   0.0000
    36 C29       7.8003   -0.9164   -1.5900   C.ar      1 RES1   0.0000
    37 C30       7.1838   -0.6315   -2.7980   C.ar      1 RES1   0.0000
    38 C31       7.9577   -0.4814   -4.0654   C.3       1 RES1   0.0000
    39 C32       5.8111   -0.4154   -2.8050   C.ar      1 RES1   0.0000
    40 H1        4.1561    3.3964   -1.9972   H         1 RES1   0.0000
    41 H2        5.2717    2.2099   -1.3255   H         1 RES1   0.0000
    42 H3        3.7163    2.5117   -0.5338   H         1 RES1   0.0000
    43 H4        4.0500    1.3199   -3.3321   H         1 RES1   0.0000
    44 H5        2.5096    1.5422   -2.4774   H         1 RES1   0.0000
    45 H6        4.4451   -2.8765   -1.0196   H         1 RES1   0.0000
    46 H7        4.2732   -4.5019    0.8351   H         1 RES1   0.0000
    47 H8        2.3146   -4.4497    2.3434   H         1 RES1   0.0000
    48 H9        0.0512   -4.8468    2.6403   H         1 RES1   0.0000
    49 H10      -2.3994   -4.8623    2.9698   H         1 RES1   0.0000
    50 H11      -3.7185   -2.8782    2.4393   H         1 RES1   0.0000
    51 H12      -4.4862    0.1488    4.3315   H         1 RES1   0.0000
    52 H13      -3.5457   -1.2521    3.8679   H         1 RES1   0.0000
    53 H14      -6.2131   -0.3723    2.6195   H         1 RES1   0.0000
    54 H15      -5.9247   -1.7831    3.6409   H         1 RES1   0.0000
    55 H16      -5.2559   -1.7066    2.0122   H         1 RES1   0.0000
    56 H17      -2.2913    2.3743    1.0919   H         1 RES1   0.0000
    57 H18      -2.1153    4.4871    0.0592   H         1 RES1   0.0000
    58 H19      -2.6794    5.7541    1.1533   H         1 RES1   0.0000
    59 H20      -3.6557    5.3039   -0.2307   H         1 RES1   0.0000
    60 H21      -5.3215    5.2660    1.8038   H         1 RES1   0.0000
    61 H22      -7.1641    4.7886    3.2070   H         1 RES1   0.0000
    62 H23      -6.8782    3.5689    4.4548   H         1 RES1   0.0000
    63 H24      -7.7332    3.1318    2.9777   H         1 RES1   0.0000
    64 H25      -5.7224    1.4276    3.5083   H         1 RES1   0.0000
    65 H26       5.1628   -0.6717    0.5081   H         1 RES1   0.0000
    66 H27       7.0949   -1.2969    1.7253   H         1 RES1   0.0000
    67 H28       8.6090   -0.6778    1.0554   H         1 RES1   0.0000
    68 H29       8.1719   -2.3555    0.8115   H         1 RES1   0.0000
    69 H30       8.8651   -1.0906   -1.5787   H         1 RES1   0.0000
    70 H31       8.9684   -0.8651   -3.9684   H         1 RES1   0.0000
    71 H32       8.0210    0.5787   -4.3185   H         1 RES1   0.0000
    72 H33       7.4614   -0.9906   -4.8894   H         1 RES1   0.0000
    73 H34       5.3086   -0.2512   -3.7458   H         1 RES1   0.0000
    74 C33      -3.6425   -2.2354   -4.7251   C.3       1 RES1   0.0000
    75 C34      -2.1298   -2.0344   -4.6036   C.3       1 RES1   0.0000
    76 N5       -1.6324   -2.2934   -3.2504   N.am      1 RES1   0.0000
    77 C35      -1.5327   -1.3045   -2.3594   C.2       1 RES1   0.0000
    78 O3       -1.1905   -1.5063   -1.1664   O.2       1 RES1   0.0000
    79 C36      -1.7920    0.1693   -2.6851   C.ar      1 RES1   0.0000
    80 C37      -2.7366    0.7312   -3.5474   C.ar      1 RES1   0.0000
    81 C38      -2.8201    2.1142   -3.6447   C.ar      1 RES1   0.0000
    82 C39      -1.9789    2.9180   -2.8945   C.ar      1 RES1   0.0000
    83 C40      -1.1092    2.2934   -2.0034   C.ar      1 RES1   0.0000
    84 C41      -0.2715    3.0445   -1.0288   C.ar      1 RES1   0.0000
    85 C42       0.0840    4.3891   -1.1565   C.ar      1 RES1   0.0000
    86 C43       0.7574    4.9973   -0.1053   C.ar      1 RES1   0.0000
    87 C44       1.0581    4.2766    1.0435   C.ar      1 RES1   0.0000
    88 C45       0.7402    2.9200    1.0603   C.ar      1 RES1   0.0000
    89 C46       1.1925    1.8863    2.0410   C.2       1 RES1   0.0000
    90 O4        1.1906    0.7026    1.6033   O.2       1 RES1   0.0000
    91 N6        1.7009    2.1585    3.2333   N.am      1 RES1   0.0000
    92 C47       2.3910    1.0632    3.9221   C.3       1 RES1   0.0000
    93 C48       1.5402    0.4736    5.0384   C.3       1 RES1   0.0000
    94 C49       1.4421    3.3113    4.0256   C.ar      1 RES1   0.0000
    95 C50       2.4515    3.8140    4.8393   C.ar      1 RES1   0.0000
    96 C51       2.1739    4.7884    5.7849   C.ar      1 RES1   0.0000
    97 C52       3.2205    5.2563    6.7403   C.3       1 RES1   0.0000
    98 C53       0.8801    5.2989    5.8591   C.ar      1 RES1   0.0000
    99 C54      -0.1227    4.8533    5.0128   C.ar      1 RES1   0.0000
   100 C55      -1.5099    5.4077    5.0913   C.3       1 RES1   0.0000
   101 C56       0.1587    3.8369    4.1053   C.ar      1 RES1   0.0000
   102 N7        0.0965    2.3367    0.0408   N.ar      1 RES1   0.0000
   103 N8       -1.0348    0.9611   -1.9123   N.ar      1 RES1   0.0000
   104 C57      -1.3363   -3.6690   -2.9422   C.ar      1 RES1   0.0000
   105 C58      -0.5961   -4.0740   -1.8235   C.ar      1 RES1   0.0000
   106 C59      -0.3855   -5.4212   -1.5613   C.ar      1 RES1   0.0000
   107 C60       0.3778   -5.8767   -0.3555   C.3       1 RES1   0.0000
   108 C61      -0.9005   -6.3878   -2.4151   C.ar      1 RES1   0.0000
   109 C62      -1.5920   -6.0148   -3.5530   C.ar      1 RES1   0.0000
   110 C63      -2.1275   -7.0226   -4.5183   C.3       1 RES1   0.0000
   111 C64      -1.7948   -4.6635   -3.8022   C.ar      1 RES1   0.0000
   112 H35      -3.9644   -1.9240   -5.7154   H         1 RES1   0.0000
   113 H36      -4.1901   -1.6742   -3.9753   H         1 RES1   0.0000
   114 H37      -3.9121   -3.2777   -4.6002   H         1 RES1   0.0000
   115 H38      -1.8472   -1.0225   -4.8902   H         1 RES1   0.0000
   116 H39      -1.6068   -2.7073   -5.2853   H         1 RES1   0.0000
   117 H40      -3.4303    0.1369   -4.1173   H         1 RES1   0.0000
   118 H41      -3.5558    2.5542   -4.2966   H         1 RES1   0.0000
   119 H42      -2.0377    3.9919   -2.9752   H         1 RES1   0.0000
   120 H43      -0.1489    4.9377   -2.0539   H         1 RES1   0.0000
   121 H44       1.0481    6.0355   -0.1802   H         1 RES1   0.0000
   122 H45       1.5307    4.7551    1.8876   H         1 RES1   0.0000
   123 H46       3.3272    1.4484    4.3288   H         1 RES1   0.0000
   124 H47       2.6162    0.2995    3.1736   H         1 RES1   0.0000
   125 H48       1.3016    1.2397    5.7730   H         1 RES1   0.0000
   126 H49       2.0869   -0.3245    5.5335   H         1 RES1   0.0000
   127 H50       0.6154    0.0629    4.6382   H         1 RES1   0.0000
   128 H51       3.4608    3.4422    4.7517   H         1 RES1   0.0000
   129 H52       4.1512    4.7058    6.6238   H         1 RES1   0.0000
   130 H53       2.8612    5.1293    7.7617   H         1 RES1   0.0000
   131 H54       3.4230    6.3168    6.5969   H         1 RES1   0.0000
   132 H55       0.6565    6.0513    6.5999   H         1 RES1   0.0000
   133 H56      -1.5817    6.2155    5.8133   H         1 RES1   0.0000
   134 H57      -2.2097    4.6253    5.3828   H         1 RES1   0.0000
   135 H58      -1.8195    5.7870    4.1193   H         1 RES1   0.0000
   136 H59      -0.6358    3.4353    3.4916   H         1 RES1   0.0000
   137 H60      -0.1679   -3.3494   -1.1512   H         1 RES1   0.0000
   138 H61       0.9035   -5.0592    0.1277   H         1 RES1   0.0000
   139 H62       1.0984   -6.6417   -0.6397   H         1 RES1   0.0000
   140 H63      -0.3103   -6.3311    0.3586   H         1 RES1   0.0000
   141 H64      -0.7586   -7.4319   -2.1884   H         1 RES1   0.0000
   142 H65      -1.9056   -8.0375   -4.1972   H         1 RES1   0.0000
   143 H66      -1.6869   -6.8642   -5.5041   H         1 RES1   0.0000
   144 H67      -3.2088   -6.9125   -4.6108   H         1 RES1   0.0000
   145 H68      -2.3301   -4.4420   -4.7092   H         1 RES1   0.0000
@<TRIPOS>BOND
     1     1     6    1
     2     1    18    1
     3     1    30    1
     4     1    31    1
     5     1    78    1
     6     1    90    1
     7     1   102    1
     8     1   103    1
     9     2     3    1
    10     2    40    1
    11     2    41    1
    12     2    42    1
    13     3     4    1
    14     3    43    1
    15     3    44    1
    16     4     5    1
    17     4    32    1
    18     5     6    2
    19     5     7    1
    20     7     8    1
    21     7    31    2
    22     8     9    2
    23     8    45    1
    24     9    10    1
    25     9    46    1
    26    10    11    2
    27    10    47    1
    28    11    12    1
    29    11    31    1
    30    12    13    1
    31    12    30    2
    32    13    14    2
    33    13    48    1
    34    14    15    1
    35    14    49    1
    36    15    16    2
    37    15    50    1
    38    16    17    1
    39    16    30    1
    40    17    18    2
    41    17    19    1
    42    19    20    1
    43    19    22    1
    44    20    21    1
    45    20    51    1
    46    20    52    1
    47    21    53    1
    48    21    54    1
    49    21    55    1
    50    22    23    1
    51    22    29    2
    52    23    24    2
    53    23    56    1
    54    24    25    1
    55    24    26    1
    56    25    57    1
    57    25    58    1
    58    25    59    1
    59    26    27    2
    60    26    60    1
    61    27    28    1
    62    27    29    1
    63    28    61    1
    64    28    62    1
    65    28    63    1
    66    29    64    1
    67    32    33    1
    68    32    39    2
    69    33    34    2
    70    33    65    1
    71    34    35    1
    72    34    36    1
    73    35    66    1
    74    35    67    1
    75    35    68    1
    76    36    37    2
    77    36    69    1
    78    37    38    1
    79    37    39    1
    80    38    70    1
    81    38    71    1
    82    38    72    1
    83    39    73    1
    84    74    75    1
    85    74   112    1
    86    74   113    1
    87    74   114    1
    88    75    76    1
    89    75   115    1
    90    75   116    1
    91    76    77    1
    92    76   104    1
    93    77    78    2
    94    77    79    1
    95    79    80    1
    96    79   103    2
    97    80    81    2
    98    80   117    1
    99    81    82    1
   100    81   118    1
   101    82    83    2
   102    82   119    1
   103    83    84    1
   104    83   103    1
   105    84    85    1
   106    84   102    2
   107    85    86    2
   108    85   120    1
   109    86    87    1
   110    86   121    1
   111    87    88    2
   112    87   122    1
   113    88    89    1
   114    88   102    1
   115    89    90    2
   116    89    91    1
   117    91    92    1
   118    91    94    1
   119    92    93    1
   120    92   123    1
   121    92   124    1
   122    93   125    1
   123    93   126    1
   124    93   127    1
   125    94    95    1
   126    94   101    2
   127    95    96    2
   128    95   128    1
   129    96    97    1
   130    96    98    1
   131    97   129    1
   132    97   130    1
   133    97   131    1
   134    98    99    2
   135    98   132    1
   136    99   100    1
   137    99   101    1
   138   100   133    1
   139   100   134    1
   140   100   135    1
   141   101   136    1
   142   104   105    1
   143   104   111    2
   144   105   106    2
   145   105   137    1
   146   106   107    1
   147   106   108    1
   148   107   138    1
   149   107   139    1
   150   107   140    1
   151   108   109    2
   152   108   141    1
   153   109   110    1
   154   109   111    1
   155   110   142    1
   156   110   143    1
   157   110   144    1
   158   111   145    1
@<TRIPOS>SUBSTRUCTURE
     1 RES1      145 GROUP             0 ****  ****    0  
