@<TRIPOS>MOLECULE
bicapped_trigonal_prismatic_0_nunpairedes_0_charge_3 Charge: 3 Unpaired_Electrons: 0 XTB_Unpaired_Electrons: 0 XTB_Charge: 3
   337   342     1     0     0
SMALL
NoCharges
****
Generated from Architector

@<TRIPOS>ATOM
     1 Lu1       0.2089    0.0257   -0.1164   Lu        1 RES1   0.0000
     2 C1       -0.1599   -3.2584   -8.7149   C.3       1 RES1   0.0000
     3 C2       -0.9529   -4.5614   -8.7011   C.3       1 RES1   0.0000
     4 C3       -2.3812   -4.4114   -8.1763   C.3       1 RES1   0.0000
     5 C4       -2.4038   -4.2475   -6.6578   C.3       1 RES1   0.0000
     6 C5       -3.7768   -4.4445   -6.0011   C.3       1 RES1   0.0000
     7 C6       -4.6902   -3.2159   -6.0692   C.3       1 RES1   0.0000
     8 C7       -5.7444   -3.1961   -4.9511   C.3       1 RES1   0.0000
     9 C8       -6.2552   -1.7854   -4.6118   C.3       1 RES1   0.0000
    10 C9       -5.6900   -1.2022   -3.3049   C.3       1 RES1   0.0000
    11 C10      -6.5230   -1.5841   -2.0774   C.3       1 RES1   0.0000
    12 C11      -5.7343   -1.6045   -0.7637   C.3       1 RES1   0.0000
    13 C12      -4.9916   -0.3015   -0.4358   C.3       1 RES1   0.0000
    14 N1       -4.2536   -0.4259    0.8269   N.am      1 RES1   0.0000
    15 C13      -5.0646   -0.3548    2.0328   C.3       1 RES1   0.0000
    16 C14      -5.7019    1.0350    2.2157   C.3       1 RES1   0.0000
    17 C15      -5.9534    1.3302    3.6985   C.3       1 RES1   0.0000
    18 C16      -4.7589    1.9267    4.4592   C.3       1 RES1   0.0000
    19 C17      -4.6748    3.4599    4.3602   C.3       1 RES1   0.0000
    20 C18      -3.6823    3.9663    3.3137   C.3       1 RES1   0.0000
    21 C19      -3.7780    5.4826    3.1367   C.3       1 RES1   0.0000
    22 C20      -2.9383    6.0493    1.9769   C.3       1 RES1   0.0000
    23 C21      -3.7212    6.5434    0.7512   C.3       1 RES1   0.0000
    24 C22      -4.3498    5.4940   -0.1710   C.3       1 RES1   0.0000
    25 C23      -5.6667    4.8757    0.3060   C.3       1 RES1   0.0000
    26 C24      -6.8400    5.8422    0.2172   C.3       1 RES1   0.0000
    27 C25      -2.9362   -0.5613    0.8295   C.2       1 RES1   0.0000
    28 O1       -2.2195   -0.3518   -0.1805   O.2       1 RES1   0.0000
    29 C26      -2.2228   -1.0496    2.0938   C.3       1 RES1   0.0000
    30 O2       -0.8243   -1.1161    1.7925   O.3       1 RES1   0.0000
    31 C27      -0.0888   -2.2061    2.3513   C.3       1 RES1   0.0000
    32 C28       0.5336   -3.0349    1.2272   C.3       1 RES1   0.0000
    33 O3        1.1052   -2.1264    0.2796   O.3       1 RES1   0.0000
    34 C29       2.3493   -2.5330   -0.2967   C.3       1 RES1   0.0000
    35 C30       3.0237   -1.2552   -0.8221   C.2       1 RES1   0.0000
    36 O4        2.3419   -0.2000   -0.8153   O.2       1 RES1   0.0000
    37 N2        4.2962   -1.3029   -1.1739   N.am      1 RES1   0.0000
    38 C31       5.0661   -2.5202   -1.4110   C.3       1 RES1   0.0000
    39 C32       5.1979   -2.7841   -2.9184   C.3       1 RES1   0.0000
    40 C33       6.2041   -3.8645   -3.3418   C.3       1 RES1   0.0000
    41 C34       6.0880   -5.2493   -2.6956   C.3       1 RES1   0.0000
    42 C35       6.5655   -5.3847   -1.2446   C.3       1 RES1   0.0000
    43 C36       7.9321   -4.7656   -0.9638   C.3       1 RES1   0.0000
    44 C37       8.3048   -4.8703    0.5146   C.3       1 RES1   0.0000
    45 C38       9.5663   -4.0677    0.8414   C.3       1 RES1   0.0000
    46 C39       9.2985   -2.5634    0.9879   C.3       1 RES1   0.0000
    47 C40      10.4762   -1.7022    0.5275   C.3       1 RES1   0.0000
    48 C41      10.5492   -1.6018   -0.9959   C.3       1 RES1   0.0000
    49 C42      11.7242   -0.7545   -1.4632   C.3       1 RES1   0.0000
    50 C43       5.0557   -0.0654   -1.3203   C.3       1 RES1   0.0000
    51 C44       5.9241    0.1846   -0.0830   C.3       1 RES1   0.0000
    52 C45       5.1081    0.2259    1.2162   C.3       1 RES1   0.0000
    53 C46       5.2051   -1.0340    2.0792   C.3       1 RES1   0.0000
    54 C47       4.4072   -0.8528    3.3715   C.3       1 RES1   0.0000
    55 C48       4.5316   -2.0052    4.3749   C.3       1 RES1   0.0000
    56 C49       3.4672   -3.0936    4.2310   C.3       1 RES1   0.0000
    57 C50       3.5391   -4.1231    5.3674   C.3       1 RES1   0.0000
    58 C51       3.0138   -3.6209    6.7157   C.3       1 RES1   0.0000
    59 C52       1.4901   -3.5232    6.8260   C.3       1 RES1   0.0000
    60 C53       0.8011   -4.8862    6.8726   C.3       1 RES1   0.0000
    61 C54      -0.6801   -4.7603    7.2011   C.3       1 RES1   0.0000
    62 H1        0.8854   -3.4602   -8.9436   H         1 RES1   0.0000
    63 H2       -0.2129   -2.7582   -7.7490   H         1 RES1   0.0000
    64 H3       -0.5456   -2.5839   -9.4761   H         1 RES1   0.0000
    65 H4       -0.4320   -5.2913   -8.0756   H         1 RES1   0.0000
    66 H5       -0.9826   -4.9603   -9.7135   H         1 RES1   0.0000
    67 H6       -2.9392   -5.3101   -8.4401   H         1 RES1   0.0000
    68 H7       -2.8697   -3.5655   -8.6583   H         1 RES1   0.0000
    69 H8       -2.0204   -3.2573   -6.3968   H         1 RES1   0.0000
    70 H9       -1.7206   -4.9871   -6.2307   H         1 RES1   0.0000
    71 H10      -3.6089   -4.6998   -4.9484   H         1 RES1   0.0000
    72 H11      -4.2766   -5.2983   -6.4578   H         1 RES1   0.0000
    73 H12      -5.2031   -3.2017   -7.0298   H         1 RES1   0.0000
    74 H13      -4.0774   -2.3115   -6.0207   H         1 RES1   0.0000
    75 H14      -5.3367   -3.6650   -4.0511   H         1 RES1   0.0000
    76 H15      -6.5798   -3.8192   -5.2627   H         1 RES1   0.0000
    77 H16      -7.3409   -1.7962   -4.5311   H         1 RES1   0.0000
    78 H17      -6.0109   -1.1147   -5.4394   H         1 RES1   0.0000
    79 H18      -5.6656   -0.1145   -3.3898   H         1 RES1   0.0000
    80 H19      -4.6688   -1.5519   -3.1547   H         1 RES1   0.0000
    81 H20      -6.9165   -2.5926   -2.2208   H         1 RES1   0.0000
    82 H21      -7.3791   -0.9120   -1.9960   H         1 RES1   0.0000
    83 H22      -5.0047   -2.4133   -0.8076   H         1 RES1   0.0000
    84 H23      -6.4432   -1.8352    0.0321   H         1 RES1   0.0000
    85 H24      -5.7053    0.5181   -0.3543   H         1 RES1   0.0000
    86 H25      -4.2673   -0.0743   -1.2162   H         1 RES1   0.0000
    87 H26      -4.4467   -0.5732    2.8973   H         1 RES1   0.0000
    88 H27      -5.8572   -1.1038    1.9870   H         1 RES1   0.0000
    89 H28      -6.6586    1.0685    1.6961   H         1 RES1   0.0000
    90 H29      -5.0591    1.8052    1.7878   H         1 RES1   0.0000
    91 H30      -6.2699    0.4037    4.1807   H         1 RES1   0.0000
    92 H31      -6.7864    2.0271    3.7880   H         1 RES1   0.0000
    93 H32      -3.8241    1.4816    4.1039   H         1 RES1   0.0000
    94 H33      -4.8666    1.6489    5.5095   H         1 RES1   0.0000
    95 H34      -4.3977    3.8684    5.3322   H         1 RES1   0.0000
    96 H35      -5.6659    3.8486    4.1276   H         1 RES1   0.0000
    97 H36      -3.8796    3.4707    2.3604   H         1 RES1   0.0000
    98 H37      -2.6726    3.7001    3.6386   H         1 RES1   0.0000
    99 H38      -3.4589    5.9494    4.0697   H         1 RES1   0.0000
   100 H39      -4.8190    5.7618    2.9871   H         1 RES1   0.0000
   101 H40      -2.1827    5.3205    1.6584   H         1 RES1   0.0000
   102 H41      -2.3885    6.9156    2.3477   H         1 RES1   0.0000
   103 H42      -3.0226    7.1274    0.1457   H         1 RES1   0.0000
   104 H43      -4.4937    7.2297    1.0913   H         1 RES1   0.0000
   105 H44      -3.6188    4.7013   -0.3665   H         1 RES1   0.0000
   106 H45      -4.5428    5.9804   -1.1289   H         1 RES1   0.0000
   107 H46      -5.5725    4.5191    1.3293   H         1 RES1   0.0000
   108 H47      -5.8811    4.0118   -0.3283   H         1 RES1   0.0000
   109 H48      -6.6956    6.7032    0.8630   H         1 RES1   0.0000
   110 H49      -7.7568    5.3442    0.5203   H         1 RES1   0.0000
   111 H50      -6.9703    6.1968   -0.8019   H         1 RES1   0.0000
   112 H51      -2.6251   -2.0379    2.3449   H         1 RES1   0.0000
   113 H52      -2.3724   -0.3687    2.9402   H         1 RES1   0.0000
   114 H53      -0.7254   -2.8366    2.9823   H         1 RES1   0.0000
   115 H54       0.7065   -1.7715    2.9671   H         1 RES1   0.0000
   116 H55      -0.2323   -3.6335    0.7248   H         1 RES1   0.0000
   117 H56       1.2916   -3.6930    1.6573   H         1 RES1   0.0000
   118 H57       2.1706   -3.2663   -1.0924   H         1 RES1   0.0000
   119 H58       2.9795   -2.9708    0.4881   H         1 RES1   0.0000
   120 H59       4.5857   -3.3687   -0.9299   H         1 RES1   0.0000
   121 H60       6.0566   -2.3967   -0.9697   H         1 RES1   0.0000
   122 H61       5.5071   -1.8616   -3.4119   H         1 RES1   0.0000
   123 H62       4.2108   -3.0375   -3.3010   H         1 RES1   0.0000
   124 H63       7.2173   -3.4920   -3.2049   H         1 RES1   0.0000
   125 H64       6.0602   -4.0024   -4.4183   H         1 RES1   0.0000
   126 H65       6.6960   -5.9217   -3.3039   H         1 RES1   0.0000
   127 H66       5.0551   -5.5961   -2.7652   H         1 RES1   0.0000
   128 H67       6.6121   -6.4515   -1.0150   H         1 RES1   0.0000
   129 H68       5.8338   -4.9574   -0.5547   H         1 RES1   0.0000
   130 H69       7.9388   -3.7125   -1.2507   H         1 RES1   0.0000
   131 H70       8.6902   -5.2720   -1.5631   H         1 RES1   0.0000
   132 H71       8.4672   -5.9197    0.7620   H         1 RES1   0.0000
   133 H72       7.4762   -4.5101    1.1329   H         1 RES1   0.0000
   134 H73      10.3000   -4.2434    0.0543   H         1 RES1   0.0000
   135 H74       9.9988   -4.4415    1.7697   H         1 RES1   0.0000
   136 H75       9.0721   -2.3445    2.0341   H         1 RES1   0.0000
   137 H76       8.4181   -2.2810    0.4010   H         1 RES1   0.0000
   138 H77      11.4040   -2.1260    0.9135   H         1 RES1   0.0000
   139 H78      10.3763   -0.6973    0.9450   H         1 RES1   0.0000
   140 H79       9.6161   -1.1652   -1.3677   H         1 RES1   0.0000
   141 H80      10.6400   -2.6016   -1.4229   H         1 RES1   0.0000
   142 H81      11.6422    0.2626   -1.0873   H         1 RES1   0.0000
   143 H82      11.7566   -0.7181   -2.5491   H         1 RES1   0.0000
   144 H83      12.6607   -1.1749   -1.1079   H         1 RES1   0.0000
   145 H84       4.3446    0.7513   -1.4506   H         1 RES1   0.0000
   146 H85       5.6909   -0.1324   -2.2052   H         1 RES1   0.0000
   147 H86       6.4330    1.1375   -0.2320   H         1 RES1   0.0000
   148 H87       6.6963   -0.5802    0.0025   H         1 RES1   0.0000
   149 H88       4.0579    0.4049    0.9709   H         1 RES1   0.0000
   150 H89       5.4589    1.0615    1.8206   H         1 RES1   0.0000
   151 H90       6.2503   -1.2120    2.3311   H         1 RES1   0.0000
   152 H91       4.8473   -1.9055    1.5306   H         1 RES1   0.0000
   153 H92       3.3517   -0.6897    3.1229   H         1 RES1   0.0000
   154 H93       4.7700    0.0565    3.8516   H         1 RES1   0.0000
   155 H94       4.4592   -1.5940    5.3804   H         1 RES1   0.0000
   156 H95       5.5169   -2.4597    4.2838   H         1 RES1   0.0000
   157 H96       3.6017   -3.6164    3.2775   H         1 RES1   0.0000
   158 H97       2.4728   -2.6337    4.2270   H         1 RES1   0.0000
   159 H98       4.5823   -4.4178    5.4929   H         1 RES1   0.0000
   160 H99       2.9826   -5.0179    5.0834   H         1 RES1   0.0000
   161 H100      3.4495   -2.6448    6.9365   H         1 RES1   0.0000
   162 H101      3.3616   -4.3061    7.4892   H         1 RES1   0.0000
   163 H102      1.0819   -2.9312    6.0003   H         1 RES1   0.0000
   164 H103      1.2546   -2.9896    7.7498   H         1 RES1   0.0000
   165 H104      1.2834   -5.4961    7.6364   H         1 RES1   0.0000
   166 H105      0.9138   -5.4005    5.9160   H         1 RES1   0.0000
   167 H106     -0.8137   -4.2798    8.1671   H         1 RES1   0.0000
   168 H107     -1.1475   -5.7399    7.2418   H         1 RES1   0.0000
   169 H108     -1.1910   -4.1668    6.4459   H         1 RES1   0.0000
   170 C55      -2.1851   -1.0871    6.0011   C.3       1 RES1   0.0000
   171 C56      -3.3247   -1.9362    6.5579   C.3       1 RES1   0.0000
   172 C57      -4.2464   -2.5007    5.4769   C.3       1 RES1   0.0000
   173 C58      -3.6084   -3.6073    4.6367   C.3       1 RES1   0.0000
   174 C59      -4.5242   -4.0266    3.4866   C.3       1 RES1   0.0000
   175 C60      -3.7970   -4.7327    2.3426   C.3       1 RES1   0.0000
   176 C61      -4.6851   -4.8198    1.1008   C.3       1 RES1   0.0000
   177 C62      -3.9573   -5.2756   -0.1673   C.3       1 RES1   0.0000
   178 C63      -2.8237   -4.3217   -0.5798   C.3       1 RES1   0.0000
   179 C64      -2.8455   -3.8995   -2.0521   C.3       1 RES1   0.0000
   180 C65      -2.0283   -2.6203   -2.2121   C.3       1 RES1   0.0000
   181 C66      -2.0132   -2.0358   -3.6259   C.3       1 RES1   0.0000
   182 N3       -1.8658   -0.5730   -3.6496   N.am      1 RES1   0.0000
   183 C67      -2.5861    0.1255   -4.7150   C.3       1 RES1   0.0000
   184 C68      -2.0409   -0.1918   -6.1253   C.3       1 RES1   0.0000
   185 C69      -1.1468    0.8776   -6.7637   C.3       1 RES1   0.0000
   186 C70       0.2706    1.1169   -6.2285   C.3       1 RES1   0.0000
   187 C71       1.2419   -0.0672   -6.3456   C.3       1 RES1   0.0000
   188 C72       1.2354   -0.9224   -5.0785   C.3       1 RES1   0.0000
   189 C73       1.9392   -2.2825   -5.1840   C.3       1 RES1   0.0000
   190 C74       1.2807   -3.2570   -4.2041   C.3       1 RES1   0.0000
   191 C75       1.9730   -4.6000   -4.0029   C.3       1 RES1   0.0000
   192 C76       1.2235   -5.4736   -2.9930   C.3       1 RES1   0.0000
   193 C77      -0.0822   -6.0763   -3.5153   C.3       1 RES1   0.0000
   194 C78       0.1190   -7.1565   -4.5695   C.3       1 RES1   0.0000
   195 C79      -1.0392    0.0182   -2.8075   C.2       1 RES1   0.0000
   196 O5       -0.2360   -0.6019   -2.0726   O.2       1 RES1   0.0000
   197 C80      -1.0956    1.5465   -2.6480   C.3       1 RES1   0.0000
   198 O6       -0.3386    1.9047   -1.4862   O.3       1 RES1   0.0000
   199 C81      -0.8662    3.0534   -0.8113   C.3       1 RES1   0.0000
   200 C82      -1.8890    2.6041    0.2320   C.3       1 RES1   0.0000
   201 O7       -1.2720    1.7158    1.1668   O.3       1 RES1   0.0000
   202 C83      -0.6398    2.3703    2.2615   C.3       1 RES1   0.0000
   203 C84       0.8651    2.0991    2.2475   C.2       1 RES1   0.0000
   204 O8        1.2863    1.2220    1.4504   O.2       1 RES1   0.0000
   205 N4        1.6142    2.8102    3.0626   N.am      1 RES1   0.0000
   206 C85       1.0654    3.6947    4.0843   C.3       1 RES1   0.0000
   207 C86       0.5303    2.9190    5.2985   C.3       1 RES1   0.0000
   208 C87       0.5749    3.6909    6.6243   C.3       1 RES1   0.0000
   209 C88      -0.3488    4.9113    6.7075   C.3       1 RES1   0.0000
   210 C89       0.0956    6.1614    5.9427   C.3       1 RES1   0.0000
   211 C90       1.4695    6.6816    6.3573   C.3       1 RES1   0.0000
   212 C91       1.9670    7.8190    5.4635   C.3       1 RES1   0.0000
   213 C92       3.4697    8.0504    5.6480   C.3       1 RES1   0.0000
   214 C93       4.3127    7.0133    4.8971   C.3       1 RES1   0.0000
   215 C94       5.6903    6.7897    5.5239   C.3       1 RES1   0.0000
   216 C95       5.6193    5.8952    6.7615   C.3       1 RES1   0.0000
   217 C96       6.9888    5.6690    7.3854   C.3       1 RES1   0.0000
   218 C97       3.0566    2.6122    3.1273   C.3       1 RES1   0.0000
   219 C98       3.8875    3.7886    2.5992   C.3       1 RES1   0.0000
   220 C99       4.0813    3.8052    1.0799   C.3       1 RES1   0.0000
   221 C100      2.9858    4.5371    0.3092   C.3       1 RES1   0.0000
   222 C101      3.2290    4.4404   -1.2029   C.3       1 RES1   0.0000
   223 C102      2.6264    5.5957   -2.0043   C.3       1 RES1   0.0000
   224 C103      1.1030    5.6416   -1.9353   C.3       1 RES1   0.0000
   225 C104      0.4844    6.8132   -2.7017   C.3       1 RES1   0.0000
   226 C105      0.5583    6.6931   -4.2240   C.3       1 RES1   0.0000
   227 C106     -0.1949    5.5005   -4.8192   C.3       1 RES1   0.0000
   228 C107     -1.6891    5.4907   -4.4914   C.3       1 RES1   0.0000
   229 C108     -2.4449    4.4532   -5.3131   C.3       1 RES1   0.0000
   230 H109     -1.5796   -0.7026    6.8172   H         1 RES1   0.0000
   231 H110     -2.5791   -0.2393    5.4396   H         1 RES1   0.0000
   232 H111     -1.5371   -1.6713    5.3494   H         1 RES1   0.0000
   233 H112     -3.9189   -1.3171    7.2313   H         1 RES1   0.0000
   234 H113     -2.9093   -2.7551    7.1447   H         1 RES1   0.0000
   235 H114     -4.5678   -1.6814    4.8249   H         1 RES1   0.0000
   236 H115     -5.1403   -2.9032    5.9544   H         1 RES1   0.0000
   237 H116     -3.4003   -4.4668    5.2724   H         1 RES1   0.0000
   238 H117     -2.6464   -3.2627    4.2410   H         1 RES1   0.0000
   239 H118     -5.0198   -3.1373    3.0876   H         1 RES1   0.0000
   240 H119     -5.3056   -4.6797    3.8714   H         1 RES1   0.0000
   241 H120     -3.4980   -5.7322    2.6552   H         1 RES1   0.0000
   242 H121     -2.8779   -4.1888    2.0967   H         1 RES1   0.0000
   243 H122     -5.1333   -3.8393    0.9144   H         1 RES1   0.0000
   244 H123     -5.5027   -5.5131    1.3007   H         1 RES1   0.0000
   245 H124     -4.6910   -5.3340   -0.9717   H         1 RES1   0.0000
   246 H125     -3.5646   -6.2811   -0.0191   H         1 RES1   0.0000
   247 H126     -1.8592   -4.7860   -0.3612   H         1 RES1   0.0000
   248 H127     -2.8900   -3.4128    0.0306   H         1 RES1   0.0000
   249 H128     -3.8730   -3.7224   -2.3694   H         1 RES1   0.0000
   250 H129     -2.4370   -4.6973   -2.6695   H         1 RES1   0.0000
   251 H130     -1.0091   -2.8187   -1.8748   H         1 RES1   0.0000
   252 H131     -2.4523   -1.8657   -1.5513   H         1 RES1   0.0000
   253 H132     -2.9522   -2.2651   -4.1272   H         1 RES1   0.0000
   254 H133     -1.2055   -2.4880   -4.1999   H         1 RES1   0.0000
   255 H134     -2.5551    1.2004   -4.5559   H         1 RES1   0.0000
   256 H135     -3.6336   -0.1782   -4.6552   H         1 RES1   0.0000
   257 H136     -2.8961   -0.3037   -6.7947   H         1 RES1   0.0000
   258 H137     -1.5306   -1.1524   -6.1103   H         1 RES1   0.0000
   259 H138     -1.6823    1.8285   -6.7256   H         1 RES1   0.0000
   260 H139     -1.0496    0.6138   -7.8181   H         1 RES1   0.0000
   261 H140      0.2437    1.4483   -5.1871   H         1 RES1   0.0000
   262 H141      0.6674    1.9483   -6.8140   H         1 RES1   0.0000
   263 H142      2.2518    0.3080   -6.5203   H         1 RES1   0.0000
   264 H143      0.9658   -0.6746   -7.2089   H         1 RES1   0.0000
   265 H144      0.1978   -1.1066   -4.8212   H         1 RES1   0.0000
   266 H145      1.6719   -0.3550   -4.2488   H         1 RES1   0.0000
   267 H146      3.0023   -2.1713   -4.9704   H         1 RES1   0.0000
   268 H147      1.8503   -2.6730   -6.1984   H         1 RES1   0.0000
   269 H148      0.2827   -3.4717   -4.5864   H         1 RES1   0.0000
   270 H149      1.1734   -2.7518   -3.2349   H         1 RES1   0.0000
   271 H150      2.9875   -4.4423   -3.6392   H         1 RES1   0.0000
   272 H151      2.0538   -5.1219   -4.9542   H         1 RES1   0.0000
   273 H152      0.9925   -4.8676   -2.1070   H         1 RES1   0.0000
   274 H153      1.8764   -6.2858   -2.6707   H         1 RES1   0.0000
   275 H154     -0.6156   -6.5136   -2.6673   H         1 RES1   0.0000
   276 H155     -0.7085   -5.2841   -3.9317   H         1 RES1   0.0000
   277 H156      0.5695   -6.7514   -5.4717   H         1 RES1   0.0000
   278 H157     -0.8409   -7.5908   -4.8360   H         1 RES1   0.0000
   279 H158      0.7567   -7.9510   -4.1910   H         1 RES1   0.0000
   280 H159     -2.1448    1.8465   -2.5247   H         1 RES1   0.0000
   281 H160     -0.6626    2.0496   -3.5235   H         1 RES1   0.0000
   282 H161     -1.3159    3.7622   -1.5159   H         1 RES1   0.0000
   283 H162     -0.0127    3.5352   -0.3173   H         1 RES1   0.0000
   284 H163     -2.6855    2.0307   -0.2503   H         1 RES1   0.0000
   285 H164     -2.3300    3.4595    0.7518   H         1 RES1   0.0000
   286 H165     -1.0714    1.9696    3.1847   H         1 RES1   0.0000
   287 H166     -0.8203    3.4451    2.2122   H         1 RES1   0.0000
   288 H167      0.2872    4.3326    3.6646   H         1 RES1   0.0000
   289 H168      1.8789    4.3421    4.4052   H         1 RES1   0.0000
   290 H169      1.1332    2.0155    5.4201   H         1 RES1   0.0000
   291 H170     -0.5023    2.6102    5.1251   H         1 RES1   0.0000
   292 H171      1.5991    3.9820    6.8560   H         1 RES1   0.0000
   293 H172      0.2635    2.9896    7.4039   H         1 RES1   0.0000
   294 H173     -0.4355    5.1792    7.7618   H         1 RES1   0.0000
   295 H174     -1.3454    4.6187    6.3644   H         1 RES1   0.0000
   296 H175     -0.6468    6.9410    6.1205   H         1 RES1   0.0000
   297 H176      0.0913    5.9736    4.8686   H         1 RES1   0.0000
   298 H177      2.2024    5.8748    6.3222   H         1 RES1   0.0000
   299 H178      1.4290    7.0306    7.3892   H         1 RES1   0.0000
   300 H179      1.4223    8.7315    5.7056   H         1 RES1   0.0000
   301 H180      1.7661    7.5890    4.4121   H         1 RES1   0.0000
   302 H181      3.6952    8.0182    6.7140   H         1 RES1   0.0000
   303 H182      3.7342    9.0469    5.2932   H         1 RES1   0.0000
   304 H183      4.4271    7.3361    3.8593   H         1 RES1   0.0000
   305 H184      3.7906    6.0510    4.8837   H         1 RES1   0.0000
   306 H185      6.1287    7.7518    5.7912   H         1 RES1   0.0000
   307 H186      6.3497    6.3231    4.7873   H         1 RES1   0.0000
   308 H187      5.1832    4.9309    6.4791   H         1 RES1   0.0000
   309 H188      4.9615    6.3501    7.5033   H         1 RES1   0.0000
   310 H189      7.6595    5.1810    6.6823   H         1 RES1   0.0000
   311 H190      6.9048    5.0441    8.2702   H         1 RES1   0.0000
   312 H191      7.4321    6.6161    7.6775   H         1 RES1   0.0000
   313 H192      3.2874    1.7135    2.5604   H         1 RES1   0.0000
   314 H193      3.3018    2.4422    4.1770   H         1 RES1   0.0000
   315 H194      4.8663    3.7113    3.0742   H         1 RES1   0.0000
   316 H195      3.4542    4.7380    2.9137   H         1 RES1   0.0000
   317 H196      4.1506    2.7833    0.7083   H         1 RES1   0.0000
   318 H197      5.0269    4.3023    0.8650   H         1 RES1   0.0000
   319 H198      2.9762    5.5867    0.6096   H         1 RES1   0.0000
   320 H199      2.0112    4.1058    0.5614   H         1 RES1   0.0000
   321 H200      2.8407    3.4845   -1.5692   H         1 RES1   0.0000
   322 H201      4.3057    4.4398   -1.3810   H         1 RES1   0.0000
   323 H202      2.9357    5.4923   -3.0439   H         1 RES1   0.0000
   324 H203      3.0354    6.5338   -1.6303   H         1 RES1   0.0000
   325 H204      0.7996    5.7295   -0.8879   H         1 RES1   0.0000
   326 H205      0.7112    4.7016   -2.3298   H         1 RES1   0.0000
   327 H206      0.9928    7.7309   -2.4050   H         1 RES1   0.0000
   328 H207     -0.5618    6.9178   -2.4057   H         1 RES1   0.0000
   329 H208      1.6016    6.6339   -4.5348   H         1 RES1   0.0000
   330 H209      0.1475    7.6079   -4.6529   H         1 RES1   0.0000
   331 H210      0.2625    4.5617   -4.4907   H         1 RES1   0.0000
   332 H211     -0.0824    5.5446   -5.9044   H         1 RES1   0.0000
   333 H212     -2.1037    6.4759   -4.7047   H         1 RES1   0.0000
   334 H213     -1.8439    5.2916   -3.4257   H         1 RES1   0.0000
   335 H214     -2.3686    4.6860   -6.3713   H         1 RES1   0.0000
   336 H215     -3.4992    4.4381   -5.0456   H         1 RES1   0.0000
   337 H216     -2.0299    3.4575   -5.1553   H         1 RES1   0.0000
@<TRIPOS>BOND
     1     1    28    1
     2     1    30    1
     3     1    33    1
     4     1    36    1
     5     1   196    1
     6     1   198    1
     7     1   201    1
     8     1   204    1
     9     2     3    1
    10     2    62    1
    11     2    63    1
    12     2    64    1
    13     3     4    1
    14     3    65    1
    15     3    66    1
    16     4     5    1
    17     4    67    1
    18     4    68    1
    19     5     6    1
    20     5    69    1
    21     5    70    1
    22     6     7    1
    23     6    71    1
    24     6    72    1
    25     7     8    1
    26     7    73    1
    27     7    74    1
    28     8     9    1
    29     8    75    1
    30     8    76    1
    31     9    10    1
    32     9    77    1
    33     9    78    1
    34    10    11    1
    35    10    79    1
    36    10    80    1
    37    11    12    1
    38    11    81    1
    39    11    82    1
    40    12    13    1
    41    12    83    1
    42    12    84    1
    43    13    14    1
    44    13    85    1
    45    13    86    1
    46    14    15    1
    47    14    27    1
    48    15    16    1
    49    15    87    1
    50    15    88    1
    51    16    17    1
    52    16    89    1
    53    16    90    1
    54    17    18    1
    55    17    91    1
    56    17    92    1
    57    18    19    1
    58    18    93    1
    59    18    94    1
    60    19    20    1
    61    19    95    1
    62    19    96    1
    63    20    21    1
    64    20    97    1
    65    20    98    1
    66    21    22    1
    67    21    99    1
    68    21   100    1
    69    22    23    1
    70    22   101    1
    71    22   102    1
    72    23    24    1
    73    23   103    1
    74    23   104    1
    75    24    25    1
    76    24   105    1
    77    24   106    1
    78    25    26    1
    79    25   107    1
    80    25   108    1
    81    26   109    1
    82    26   110    1
    83    26   111    1
    84    27    28    2
    85    27    29    1
    86    29    30    1
    87    29   112    1
    88    29   113    1
    89    30    31    1
    90    31    32    1
    91    31   114    1
    92    31   115    1
    93    32    33    1
    94    32   116    1
    95    32   117    1
    96    33    34    1
    97    34    35    1
    98    34   118    1
    99    34   119    1
   100    35    36    2
   101    35    37    1
   102    37    38    1
   103    37    50    1
   104    38    39    1
   105    38   120    1
   106    38   121    1
   107    39    40    1
   108    39   122    1
   109    39   123    1
   110    40    41    1
   111    40   124    1
   112    40   125    1
   113    41    42    1
   114    41   126    1
   115    41   127    1
   116    42    43    1
   117    42   128    1
   118    42   129    1
   119    43    44    1
   120    43   130    1
   121    43   131    1
   122    44    45    1
   123    44   132    1
   124    44   133    1
   125    45    46    1
   126    45   134    1
   127    45   135    1
   128    46    47    1
   129    46   136    1
   130    46   137    1
   131    47    48    1
   132    47   138    1
   133    47   139    1
   134    48    49    1
   135    48   140    1
   136    48   141    1
   137    49   142    1
   138    49   143    1
   139    49   144    1
   140    50    51    1
   141    50   145    1
   142    50   146    1
   143    51    52    1
   144    51   147    1
   145    51   148    1
   146    52    53    1
   147    52   149    1
   148    52   150    1
   149    53    54    1
   150    53   151    1
   151    53   152    1
   152    54    55    1
   153    54   153    1
   154    54   154    1
   155    55    56    1
   156    55   155    1
   157    55   156    1
   158    56    57    1
   159    56   157    1
   160    56   158    1
   161    57    58    1
   162    57   159    1
   163    57   160    1
   164    58    59    1
   165    58   161    1
   166    58   162    1
   167    59    60    1
   168    59   163    1
   169    59   164    1
   170    60    61    1
   171    60   165    1
   172    60   166    1
   173    61   167    1
   174    61   168    1
   175    61   169    1
   176   170   171    1
   177   170   230    1
   178   170   231    1
   179   170   232    1
   180   171   172    1
   181   171   233    1
   182   171   234    1
   183   172   173    1
   184   172   235    1
   185   172   236    1
   186   173   174    1
   187   173   237    1
   188   173   238    1
   189   174   175    1
   190   174   239    1
   191   174   240    1
   192   175   176    1
   193   175   241    1
   194   175   242    1
   195   176   177    1
   196   176   243    1
   197   176   244    1
   198   177   178    1
   199   177   245    1
   200   177   246    1
   201   178   179    1
   202   178   247    1
   203   178   248    1
   204   179   180    1
   205   179   249    1
   206   179   250    1
   207   180   181    1
   208   180   251    1
   209   180   252    1
   210   181   182    1
   211   181   253    1
   212   181   254    1
   213   182   183    1
   214   182   195    1
   215   183   184    1
   216   183   255    1
   217   183   256    1
   218   184   185    1
   219   184   257    1
   220   184   258    1
   221   185   186    1
   222   185   259    1
   223   185   260    1
   224   186   187    1
   225   186   261    1
   226   186   262    1
   227   187   188    1
   228   187   263    1
   229   187   264    1
   230   188   189    1
   231   188   265    1
   232   188   266    1
   233   189   190    1
   234   189   267    1
   235   189   268    1
   236   190   191    1
   237   190   269    1
   238   190   270    1
   239   191   192    1
   240   191   271    1
   241   191   272    1
   242   192   193    1
   243   192   273    1
   244   192   274    1
   245   193   194    1
   246   193   275    1
   247   193   276    1
   248   194   277    1
   249   194   278    1
   250   194   279    1
   251   195   196    2
   252   195   197    1
   253   197   198    1
   254   197   280    1
   255   197   281    1
   256   198   199    1
   257   199   200    1
   258   199   282    1
   259   199   283    1
   260   200   201    1
   261   200   284    1
   262   200   285    1
   263   201   202    1
   264   202   203    1
   265   202   286    1
   266   202   287    1
   267   203   204    2
   268   203   205    1
   269   205   206    1
   270   205   218    1
   271   206   207    1
   272   206   288    1
   273   206   289    1
   274   207   208    1
   275   207   290    1
   276   207   291    1
   277   208   209    1
   278   208   292    1
   279   208   293    1
   280   209   210    1
   281   209   294    1
   282   209   295    1
   283   210   211    1
   284   210   296    1
   285   210   297    1
   286   211   212    1
   287   211   298    1
   288   211   299    1
   289   212   213    1
   290   212   300    1
   291   212   301    1
   292   213   214    1
   293   213   302    1
   294   213   303    1
   295   214   215    1
   296   214   304    1
   297   214   305    1
   298   215   216    1
   299   215   306    1
   300   215   307    1
   301   216   217    1
   302   216   308    1
   303   216   309    1
   304   217   310    1
   305   217   311    1
   306   217   312    1
   307   218   219    1
   308   218   313    1
   309   218   314    1
   310   219   220    1
   311   219   315    1
   312   219   316    1
   313   220   221    1
   314   220   317    1
   315   220   318    1
   316   221   222    1
   317   221   319    1
   318   221   320    1
   319   222   223    1
   320   222   321    1
   321   222   322    1
   322   223   224    1
   323   223   323    1
   324   223   324    1
   325   224   225    1
   326   224   325    1
   327   224   326    1
   328   225   226    1
   329   225   327    1
   330   225   328    1
   331   226   227    1
   332   226   329    1
   333   226   330    1
   334   227   228    1
   335   227   331    1
   336   227   332    1
   337   228   229    1
   338   228   333    1
   339   228   334    1
   340   229   335    1
   341   229   336    1
   342   229   337    1
@<TRIPOS>SUBSTRUCTURE
     1 RES1      337 GROUP             0 ****  ****    0  
