@<TRIPOS>MOLECULE
ICIGOT_geomtry_0_nunpairedes_0_charge_3 Charge: 3 Unpaired_Electrons: 0 XTB_Unpaired_Electrons: 0 XTB_Charge: 3
   161   164     1     0     0
SMALL
NoCharges
****
Generated from Architector

@<TRIPOS>ATOM
     1 Lu1      -0.0111   -0.1813   -0.0415   Lu        1 RES1   0.0000
     2 C1       -5.9857    3.9556   -2.0203   C.3       1 RES1   0.0000
     3 C2       -4.7837    3.4060   -2.7760   C.3       1 RES1   0.0000
     4 C3       -5.1797    2.7685   -4.1041   C.3       1 RES1   0.0000
     5 C4       -3.9858    2.2780   -4.9272   C.3       1 RES1   0.0000
     6 C5       -3.2214    1.1232   -4.2737   C.3       1 RES1   0.0000
     7 C6       -2.1590    0.4937   -5.1840   C.3       1 RES1   0.0000
     8 C7       -1.0078    1.4128   -5.6102   C.3       1 RES1   0.0000
     9 C8        0.0673    1.6721   -4.5460   C.3       1 RES1   0.0000
    10 N1       -0.4102    2.4770   -3.4201   N.am      1 RES1   0.0000
    11 C9       -0.6063    3.8969   -3.6824   C.3       1 RES1   0.0000
    12 C10       0.6060    4.7183   -3.2559   C.3       1 RES1   0.0000
    13 C11      -0.5619    1.9196   -2.2375   C.2       1 RES1   0.0000
    14 O1       -0.2433    0.7291   -1.9943   O.2       1 RES1   0.0000
    15 C12      -1.1363    2.7355   -1.0681   C.3       1 RES1   0.0000
    16 O2       -1.4942    1.8873    0.0369   O.3       1 RES1   0.0000
    17 C13      -2.8886    1.5407    0.1204   C.3       1 RES1   0.0000
    18 C14      -3.1044    0.0369   -0.1155   C.2       1 RES1   0.0000
    19 O3       -2.1009   -0.6523   -0.4244   O.2       1 RES1   0.0000
    20 N2       -4.2861   -0.4960    0.1224   N.am      1 RES1   0.0000
    21 C15      -5.5299    0.2624    0.1934   C.3       1 RES1   0.0000
    22 C16      -6.3583    0.0463   -1.0704   C.3       1 RES1   0.0000
    23 C17      -4.4004   -1.9583    0.1481   C.3       1 RES1   0.0000
    24 C18      -5.2145   -2.4810    1.3357   C.3       1 RES1   0.0000
    25 C19      -4.7379   -2.0390    2.7216   C.3       1 RES1   0.0000
    26 C20      -5.6497   -2.6306    3.8040   C.3       1 RES1   0.0000
    27 C21      -5.3464   -2.1327    5.2198   C.3       1 RES1   0.0000
    28 C22      -5.6930   -0.6589    5.4376   C.3       1 RES1   0.0000
    29 C23      -5.6459   -0.2435    6.9083   C.3       1 RES1   0.0000
    30 C24      -4.2529   -0.3073    7.5214   C.3       1 RES1   0.0000
    31 H1       -5.6852    4.4054   -1.0755   H         1 RES1   0.0000
    32 H2       -6.4794    4.7210   -2.6103   H         1 RES1   0.0000
    33 H3       -6.7110    3.1702   -1.8227   H         1 RES1   0.0000
    34 H4       -4.0732    4.2160   -2.9582   H         1 RES1   0.0000
    35 H5       -4.2848    2.6495   -2.1610   H         1 RES1   0.0000
    36 H6       -5.8632    1.9381   -3.9170   H         1 RES1   0.0000
    37 H7       -5.7247    3.5073   -4.6911   H         1 RES1   0.0000
    38 H8       -4.3598    1.9391   -5.8944   H         1 RES1   0.0000
    39 H9       -3.3170    3.1220   -5.1071   H         1 RES1   0.0000
    40 H10      -2.7591    1.4508   -3.3389   H         1 RES1   0.0000
    41 H11      -3.9413    0.3409   -4.0192   H         1 RES1   0.0000
    42 H12      -1.7488   -0.3910   -4.6882   H         1 RES1   0.0000
    43 H13      -2.6612    0.1550   -6.0921   H         1 RES1   0.0000
    44 H14      -0.4937    0.9423   -6.4516   H         1 RES1   0.0000
    45 H15      -1.4166    2.3557   -5.9719   H         1 RES1   0.0000
    46 H16       0.4291    0.7200   -4.1494   H         1 RES1   0.0000
    47 H17       0.9005    2.2139   -5.0020   H         1 RES1   0.0000
    48 H18      -0.7558    4.0157   -4.7557   H         1 RES1   0.0000
    49 H19      -1.5040    4.2615   -3.1815   H         1 RES1   0.0000
    50 H20       1.4916    4.4031   -3.8021   H         1 RES1   0.0000
    51 H21       0.4247    5.7621   -3.4913   H         1 RES1   0.0000
    52 H22       0.7952    4.6397   -2.1873   H         1 RES1   0.0000
    53 H23      -0.3627    3.4130   -0.6887   H         1 RES1   0.0000
    54 H24      -1.9955    3.3253   -1.3964   H         1 RES1   0.0000
    55 H25      -3.2184    1.7764    1.1396   H         1 RES1   0.0000
    56 H26      -3.4791    2.1427   -0.5783   H         1 RES1   0.0000
    57 H27      -6.0817   -0.0813    1.0678   H         1 RES1   0.0000
    58 H28      -5.3198    1.3238    0.3124   H         1 RES1   0.0000
    59 H29      -6.7009   -0.9811   -1.1410   H         1 RES1   0.0000
    60 H30      -7.2374    0.6821   -1.0423   H         1 RES1   0.0000
    61 H31      -5.7817    0.2967   -1.9589   H         1 RES1   0.0000
    62 H32      -4.8590   -2.3126   -0.7782   H         1 RES1   0.0000
    63 H33      -3.3852   -2.3639    0.1735   H         1 RES1   0.0000
    64 H34      -6.2638   -2.2069    1.2217   H         1 RES1   0.0000
    65 H35      -5.1655   -3.5695    1.2875   H         1 RES1   0.0000
    66 H36      -3.7160   -2.3887    2.8986   H         1 RES1   0.0000
    67 H37      -4.7472   -0.9484    2.7972   H         1 RES1   0.0000
    68 H38      -6.6872   -2.3946    3.5620   H         1 RES1   0.0000
    69 H39      -5.5515   -3.7180    3.7809   H         1 RES1   0.0000
    70 H40      -5.9433   -2.7261    5.9132   H         1 RES1   0.0000
    71 H41      -4.2953   -2.3173    5.4530   H         1 RES1   0.0000
    72 H42      -5.0113   -0.0201    4.8663   H         1 RES1   0.0000
    73 H43      -6.7049   -0.4812    5.0683   H         1 RES1   0.0000
    74 H44      -6.0166    0.7788    6.9906   H         1 RES1   0.0000
    75 H45      -6.3177   -0.8801    7.4829   H         1 RES1   0.0000
    76 H46      -3.5484    0.2982    6.9509   H         1 RES1   0.0000
    77 H47      -4.2793    0.0776    8.5364   H         1 RES1   0.0000
    78 H48      -3.8855   -1.3289    7.5638   H         1 RES1   0.0000
    79 C25       6.0991    3.0473    3.1198   C.3       1 RES1   0.0000
    80 C26       5.1077    2.0212    3.6488   C.3       1 RES1   0.0000
    81 C27       5.8182    0.8646    4.3466   C.3       1 RES1   0.0000
    82 C28       4.8592   -0.1759    4.9243   C.3       1 RES1   0.0000
    83 C29       4.1348   -0.9851    3.8484   C.3       1 RES1   0.0000
    84 C30       3.2281   -2.0798    4.4160   C.3       1 RES1   0.0000
    85 C31       2.0664   -1.5731    5.2755   C.3       1 RES1   0.0000
    86 C32       0.9072   -0.9369    4.5011   C.3       1 RES1   0.0000
    87 N3        1.1551    0.3920    3.9361   N.am      1 RES1   0.0000
    88 C33       1.1358    1.4981    4.8841   C.3       1 RES1   0.0000
    89 C34      -0.2808    1.9692    5.2029   C.3       1 RES1   0.0000
    90 C35       1.2079    0.5406    2.6309   C.2       1 RES1   0.0000
    91 O4        1.1344   -0.4174    1.8178   O.2       1 RES1   0.0000
    92 C36       1.2437    1.9461    2.0053   C.3       1 RES1   0.0000
    93 O5        1.4037    1.8419    0.5873   O.3       1 RES1   0.0000
    94 C37       2.7759    1.7251    0.1665   C.3       1 RES1   0.0000
    95 C38       2.9855    0.4451   -0.6463   C.2       1 RES1   0.0000
    96 O6        1.9911   -0.2979   -0.8344   O.2       1 RES1   0.0000
    97 N4        4.1748    0.1801   -1.1394   N.am      1 RES1   0.0000
    98 C39       5.3776    0.9440   -0.8335   C.3       1 RES1   0.0000
    99 C40       6.2752    0.1807    0.1361   C.3       1 RES1   0.0000
   100 C41       4.3417   -1.0338   -1.9431   C.3       1 RES1   0.0000
   101 C42       5.0580   -0.7931   -3.2704   C.3       1 RES1   0.0000
   102 C43       4.3817    0.2527   -4.1548   C.3       1 RES1   0.0000
   103 C44       5.1587    0.4274   -5.4614   C.3       1 RES1   0.0000
   104 C45       4.6285    1.5602   -6.3408   C.3       1 RES1   0.0000
   105 C46       4.8381    2.9456   -5.7297   C.3       1 RES1   0.0000
   106 C47       4.5273    4.0813   -6.7030   C.3       1 RES1   0.0000
   107 C48       3.0592    4.1544   -7.1020   C.3       1 RES1   0.0000
   108 H49       5.5895    3.8759    2.6324   H         1 RES1   0.0000
   109 H50       6.6890    3.4512    3.9363   H         1 RES1   0.0000
   110 H51       6.7850    2.5889    2.4123   H         1 RES1   0.0000
   111 H52       4.4301    2.5062    4.3549   H         1 RES1   0.0000
   112 H53       4.5035    1.6363    2.8180   H         1 RES1   0.0000
   113 H54       6.5059    0.3819    3.6500   H         1 RES1   0.0000
   114 H55       6.4158    1.2737    5.1608   H         1 RES1   0.0000
   115 H56       5.4268   -0.8665    5.5491   H         1 RES1   0.0000
   116 H57       4.1409    0.3359    5.5676   H         1 RES1   0.0000
   117 H58       3.5485   -0.3236    3.2065   H         1 RES1   0.0000
   118 H59       4.8880   -1.4631    3.2180   H         1 RES1   0.0000
   119 H60       2.8298   -2.6753    3.5901   H         1 RES1   0.0000
   120 H61       3.8396   -2.7438    5.0299   H         1 RES1   0.0000
   121 H62       1.6378   -2.4299    5.8002   H         1 RES1   0.0000
   122 H63       2.4414   -0.8849    6.0311   H         1 RES1   0.0000
   123 H64       0.6461   -1.5943    3.6676   H         1 RES1   0.0000
   124 H65       0.0592   -0.8091    5.1807   H         1 RES1   0.0000
   125 H66       1.6066    1.1549    5.8050   H         1 RES1   0.0000
   126 H67       1.7289    2.3325    4.5134   H         1 RES1   0.0000
   127 H68      -0.8455    1.1887    5.7065   H         1 RES1   0.0000
   128 H69      -0.2103    2.8170    5.8780   H         1 RES1   0.0000
   129 H70      -0.8174    2.2834    4.3092   H         1 RES1   0.0000
   130 H71       0.2582    2.4018    2.1649   H         1 RES1   0.0000
   131 H72       2.0095    2.6017    2.4312   H         1 RES1   0.0000
   132 H73       3.0089    2.5879   -0.4672   H         1 RES1   0.0000
   133 H74       3.4446    1.7301    1.0327   H         1 RES1   0.0000
   134 H75       5.9072    1.1193   -1.7690   H         1 RES1   0.0000
   135 H76       5.1188    1.9148   -0.4139   H         1 RES1   0.0000
   136 H77       6.6745   -0.7153   -0.3299   H         1 RES1   0.0000
   137 H78       7.1171    0.8052    0.4187   H         1 RES1   0.0000
   138 H79       5.7296   -0.0914    1.0377   H         1 RES1   0.0000
   139 H80       4.8943   -1.7740   -1.3593   H         1 RES1   0.0000
   140 H81       3.3425   -1.4302   -2.1383   H         1 RES1   0.0000
   141 H82       6.0975   -0.5102   -3.1022   H         1 RES1   0.0000
   142 H83       5.0746   -1.7458   -3.8010   H         1 RES1   0.0000
   143 H84       3.3578   -0.0566   -4.3796   H         1 RES1   0.0000
   144 H85       4.3311    1.2079   -3.6279   H         1 RES1   0.0000
   145 H86       6.2079    0.6202   -5.2296   H         1 RES1   0.0000
   146 H87       5.1158   -0.5103   -6.0192   H         1 RES1   0.0000
   147 H88       5.1596    1.5215   -7.2922   H         1 RES1   0.0000
   148 H89       3.5696    1.3898   -6.5463   H         1 RES1   0.0000
   149 H90       4.2157    3.0627   -4.8369   H         1 RES1   0.0000
   150 H91       5.8814    3.0355   -5.4218   H         1 RES1   0.0000
   151 H92       4.8129    5.0259   -6.2384   H         1 RES1   0.0000
   152 H93       5.1348    3.9629   -7.5992   H         1 RES1   0.0000
   153 H94       2.4213    4.2514   -6.2229   H         1 RES1   0.0000
   154 H95       2.8897    5.0197   -7.7355   H         1 RES1   0.0000
   155 H96       2.7581    3.2704   -7.6570   H         1 RES1   0.0000
   156 O7       -1.4843   -0.7046    2.1257   O.3       1 RES1   0.0000
   157 H97      -1.6386   -1.6605    2.1612   H         1 RES1   0.0000
   158 H98      -2.1369   -0.3259    2.7318   H         1 RES1   0.0000
   159 O8        0.2202   -2.3368   -1.0294   O.3       1 RES1   0.0000
   160 H99       0.8750   -3.0503   -0.9590   H         1 RES1   0.0000
   161 H100      0.0905   -2.2066   -1.9823   H         1 RES1   0.0000
@<TRIPOS>BOND
     1     1    14    1
     2     1    16    1
     3     1    19    1
     4     1    91    1
     5     1    93    1
     6     1    96    1
     7     1   156    1
     8     1   159    1
     9     2     3    1
    10     2    31    1
    11     2    32    1
    12     2    33    1
    13     3     4    1
    14     3    34    1
    15     3    35    1
    16     4     5    1
    17     4    36    1
    18     4    37    1
    19     5     6    1
    20     5    38    1
    21     5    39    1
    22     6     7    1
    23     6    40    1
    24     6    41    1
    25     7     8    1
    26     7    42    1
    27     7    43    1
    28     8     9    1
    29     8    44    1
    30     8    45    1
    31     9    10    1
    32     9    46    1
    33     9    47    1
    34    10    11    1
    35    10    13    1
    36    11    12    1
    37    11    48    1
    38    11    49    1
    39    12    50    1
    40    12    51    1
    41    12    52    1
    42    13    14    2
    43    13    15    1
    44    15    16    1
    45    15    53    1
    46    15    54    1
    47    16    17    1
    48    17    18    1
    49    17    55    1
    50    17    56    1
    51    18    19    2
    52    18    20    1
    53    20    21    1
    54    20    23    1
    55    21    22    1
    56    21    57    1
    57    21    58    1
    58    22    59    1
    59    22    60    1
    60    22    61    1
    61    23    24    1
    62    23    62    1
    63    23    63    1
    64    24    25    1
    65    24    64    1
    66    24    65    1
    67    25    26    1
    68    25    66    1
    69    25    67    1
    70    26    27    1
    71    26    68    1
    72    26    69    1
    73    27    28    1
    74    27    70    1
    75    27    71    1
    76    28    29    1
    77    28    72    1
    78    28    73    1
    79    29    30    1
    80    29    74    1
    81    29    75    1
    82    30    76    1
    83    30    77    1
    84    30    78    1
    85    79    80    1
    86    79   108    1
    87    79   109    1
    88    79   110    1
    89    80    81    1
    90    80   111    1
    91    80   112    1
    92    81    82    1
    93    81   113    1
    94    81   114    1
    95    82    83    1
    96    82   115    1
    97    82   116    1
    98    83    84    1
    99    83   117    1
   100    83   118    1
   101    84    85    1
   102    84   119    1
   103    84   120    1
   104    85    86    1
   105    85   121    1
   106    85   122    1
   107    86    87    1
   108    86   123    1
   109    86   124    1
   110    87    88    1
   111    87    90    1
   112    88    89    1
   113    88   125    1
   114    88   126    1
   115    89   127    1
   116    89   128    1
   117    89   129    1
   118    90    91    2
   119    90    92    1
   120    92    93    1
   121    92   130    1
   122    92   131    1
   123    93    94    1
   124    94    95    1
   125    94   132    1
   126    94   133    1
   127    95    96    2
   128    95    97    1
   129    97    98    1
   130    97   100    1
   131    98    99    1
   132    98   134    1
   133    98   135    1
   134    99   136    1
   135    99   137    1
   136    99   138    1
   137   100   101    1
   138   100   139    1
   139   100   140    1
   140   101   102    1
   141   101   141    1
   142   101   142    1
   143   102   103    1
   144   102   143    1
   145   102   144    1
   146   103   104    1
   147   103   145    1
   148   103   146    1
   149   104   105    1
   150   104   147    1
   151   104   148    1
   152   105   106    1
   153   105   149    1
   154   105   150    1
   155   106   107    1
   156   106   151    1
   157   106   152    1
   158   107   153    1
   159   107   154    1
   160   107   155    1
   161   156   157    1
   162   156   158    1
   163   159   160    1
   164   159   161    1
@<TRIPOS>SUBSTRUCTURE
     1 RES1      161 GROUP             0 ****  ****    0  
