@<TRIPOS>MOLECULE
ICIGOT_geomtry_0_nunpairedes_0_charge_3 Charge: 3 Unpaired_Electrons: 0 XTB_Unpaired_Electrons: 0 XTB_Charge: 3
   281   288     1     0     0
SMALL
NoCharges
****
Generated from Architector

@<TRIPOS>ATOM
     1 Lu1      -0.1243    0.1080    0.2041   Lu        1 RES1   0.0000
     2 C1       -6.9450    5.8916   -6.6672   C.3       1 RES1   0.0000
     3 C2       -5.5008    5.9200   -7.1648   C.3       1 RES1   0.0000
     4 C3       -4.7280    4.6862   -6.7078   C.3       1 RES1   0.0000
     5 C4       -3.2263    4.8049   -6.9606   C.3       1 RES1   0.0000
     6 C5       -2.4513    3.6540   -6.3219   C.3       1 RES1   0.0000
     7 C6       -2.5496    3.7280   -4.8015   C.3       1 RES1   0.0000
     8 C7       -1.5765    2.8078   -4.0785   C.3       1 RES1   0.0000
     9 C8       -2.0469    1.3567   -4.1466   C.3       1 RES1   0.0000
    10 P1       -2.4826    0.6414   -2.5289   P.3       1 RES1   0.0000
    11 O1       -1.4673    0.9981   -1.4971   O.2       1 RES1   0.0000
    12 C9       -2.4270   -1.1825   -2.8656   C.3       1 RES1   0.0000
    13 C10      -2.5526   -1.8920   -1.5544   C.2       1 RES1   0.0000
    14 O2       -1.7009   -1.6391   -0.6643   O.2       1 RES1   0.0000
    15 N1       -3.5358   -2.7842   -1.3827   N.am      1 RES1   0.0000
    16 C11      -4.6538   -2.9992   -2.3038   C.3       1 RES1   0.0000
    17 C12      -4.6069   -4.1351   -3.3584   C.3       1 RES1   0.0000
    18 C13      -4.9475   -5.5180   -2.7978   C.3       1 RES1   0.0000
    19 C14      -3.3039   -4.1811   -4.1531   C.3       1 RES1   0.0000
    20 C15      -3.6910   -3.3449   -0.0505   C.3       1 RES1   0.0000
    21 C16      -3.3868   -4.8412    0.0609   C.3       1 RES1   0.0000
    22 C17      -2.0381   -5.1614   -0.5790   C.3       1 RES1   0.0000
    23 C18      -3.4211   -5.2045    1.5433   C.3       1 RES1   0.0000
    24 C19      -4.1756    1.0165   -2.0008   C.ar      1 RES1   0.0000
    25 C20      -5.2720    0.4166   -2.6071   C.ar      1 RES1   0.0000
    26 C21      -6.5467    0.6784   -2.1447   C.ar      1 RES1   0.0000
    27 C22      -6.7374    1.6157   -1.1434   C.ar      1 RES1   0.0000
    28 C23      -5.6513    2.2570   -0.5731   C.ar      1 RES1   0.0000
    29 C24      -4.3684    1.9307   -0.9738   C.ar      1 RES1   0.0000
    30 H1       -7.4889    6.7477   -7.0593   H         1 RES1   0.0000
    31 H2       -6.9796    5.9255   -5.5773   H         1 RES1   0.0000
    32 H3       -7.4601    4.9888   -6.9924   H         1 RES1   0.0000
    33 H4       -5.0013    6.8110   -6.7731   H         1 RES1   0.0000
    34 H5       -5.4888    5.9907   -8.2550   H         1 RES1   0.0000
    35 H6       -5.1132    3.8023   -7.2195   H         1 RES1   0.0000
    36 H7       -4.9017    4.5625   -5.6353   H         1 RES1   0.0000
    37 H8       -2.8736    5.7520   -6.5429   H         1 RES1   0.0000
    38 H9       -3.0076    4.8245   -8.0287   H         1 RES1   0.0000
    39 H10      -1.3978    3.7217   -6.6028   H         1 RES1   0.0000
    40 H11      -2.8304    2.7013   -6.6932   H         1 RES1   0.0000
    41 H12      -3.5627    3.5046   -4.4591   H         1 RES1   0.0000
    42 H13      -2.3262    4.7572   -4.5337   H         1 RES1   0.0000
    43 H14      -1.4646    3.1123   -3.0347   H         1 RES1   0.0000
    44 H15      -0.5882    2.9056   -4.5306   H         1 RES1   0.0000
    45 H16      -1.2408    0.7097   -4.4859   H         1 RES1   0.0000
    46 H17      -2.8951    1.2606   -4.8228   H         1 RES1   0.0000
    47 H18      -1.4097   -1.3196   -3.2337   H         1 RES1   0.0000
    48 H19      -3.1430   -1.4712   -3.6249   H         1 RES1   0.0000
    49 H20      -4.8378   -2.0658   -2.8296   H         1 RES1   0.0000
    50 H21      -5.5333   -3.1795   -1.6811   H         1 RES1   0.0000
    51 H22      -5.4137   -3.8686   -4.0493   H         1 RES1   0.0000
    52 H23      -4.0655   -6.0155   -2.4078   H         1 RES1   0.0000
    53 H24      -5.3509   -6.1503   -3.5844   H         1 RES1   0.0000
    54 H25      -5.7012   -5.4477   -2.0164   H         1 RES1   0.0000
    55 H26      -2.4487   -4.2449   -3.4830   H         1 RES1   0.0000
    56 H27      -3.1890   -3.3109   -4.7960   H         1 RES1   0.0000
    57 H28      -3.3042   -5.0619   -4.7902   H         1 RES1   0.0000
    58 H29      -4.7130   -3.1565    0.2973   H         1 RES1   0.0000
    59 H30      -2.9817   -2.8136    0.5914   H         1 RES1   0.0000
    60 H31      -4.1661   -5.4181   -0.4347   H         1 RES1   0.0000
    61 H32      -1.3195   -4.3897   -0.3141   H         1 RES1   0.0000
    62 H33      -2.1179   -5.1924   -1.6627   H         1 RES1   0.0000
    63 H34      -1.6773   -6.1314   -0.2432   H         1 RES1   0.0000
    64 H35      -2.6910   -4.6198    2.1005   H         1 RES1   0.0000
    65 H36      -3.2088   -6.2612    1.6856   H         1 RES1   0.0000
    66 H37      -4.4089   -4.9996    1.9513   H         1 RES1   0.0000
    67 H38      -5.1460   -0.2378   -3.4546   H         1 RES1   0.0000
    68 H39      -7.3867    0.1631   -2.5780   H         1 RES1   0.0000
    69 H40      -7.7327    1.8526   -0.8116   H         1 RES1   0.0000
    70 H41      -5.8005    2.9982    0.1970   H         1 RES1   0.0000
    71 H42      -3.4971    2.3520   -0.4983   H         1 RES1   0.0000
    72 C25       2.0233    9.1018   -3.7115   C.3       1 RES1   0.0000
    73 C26       0.5026    9.2103   -3.7195   C.3       1 RES1   0.0000
    74 C27      -0.1296    8.2345   -2.7303   C.3       1 RES1   0.0000
    75 C28      -1.6541    8.3131   -2.7077   C.3       1 RES1   0.0000
    76 C29      -2.2890    7.3703   -1.6808   C.3       1 RES1   0.0000
    77 C30      -2.0771    5.9127   -2.0772   C.3       1 RES1   0.0000
    78 C31      -2.8547    4.8675   -1.2779   C.3       1 RES1   0.0000
    79 C32      -2.4750    4.7536    0.2009   C.3       1 RES1   0.0000
    80 P2       -1.1012    3.5883    0.5944   P.3       1 RES1   0.0000
    81 O3       -1.5041    2.1509    0.6561   O.2       1 RES1   0.0000
    82 C33      -0.5601    4.0260    2.3035   C.3       1 RES1   0.0000
    83 C34       0.8216    3.4119    2.2924   C.2       1 RES1   0.0000
    84 O4        0.9539    2.2994    1.7363   O.2       1 RES1   0.0000
    85 N2        1.8686    4.1271    2.7108   N.am      1 RES1   0.0000
    86 C35       1.7636    5.4567    3.3144   C.3       1 RES1   0.0000
    87 C36       1.4789    5.5776    4.8323   C.3       1 RES1   0.0000
    88 C37       2.7281    5.3772    5.6910   C.3       1 RES1   0.0000
    89 C38       0.3215    4.6944    5.2875   C.3       1 RES1   0.0000
    90 C39       3.1874    3.6856    2.2578   C.3       1 RES1   0.0000
    91 C40       3.8461    2.4926    2.9869   C.3       1 RES1   0.0000
    92 C41       3.0241    2.0040    4.1728   C.3       1 RES1   0.0000
    93 C42       4.0985    1.3519    2.0058   C.3       1 RES1   0.0000
    94 C43       0.3330    3.9872   -0.4650   C.ar      1 RES1   0.0000
    95 C44       0.7780    5.3082   -0.4438   C.ar      1 RES1   0.0000
    96 C45       1.8138    5.7224   -1.2641   C.ar      1 RES1   0.0000
    97 C46       2.4038    4.8166   -2.1334   C.ar      1 RES1   0.0000
    98 C47       2.0225    3.4831   -2.0986   C.ar      1 RES1   0.0000
    99 C48       0.9960    3.0610   -1.2632   C.ar      1 RES1   0.0000
   100 H43       2.4621    9.8096   -4.4093   H         1 RES1   0.0000
   101 H44       2.3423    8.0993   -3.9945   H         1 RES1   0.0000
   102 H45       2.4158    9.3210   -2.7208   H         1 RES1   0.0000
   103 H46       0.1339    9.0030   -4.7250   H         1 RES1   0.0000
   104 H47       0.2123   10.2299   -3.4647   H         1 RES1   0.0000
   105 H48       0.2560    8.4493   -1.7306   H         1 RES1   0.0000
   106 H49       0.1863    7.2244   -2.9982   H         1 RES1   0.0000
   107 H50      -2.0448    8.0793   -3.7001   H         1 RES1   0.0000
   108 H51      -1.9471    9.3368   -2.4771   H         1 RES1   0.0000
   109 H52      -3.3595    7.5782   -1.6276   H         1 RES1   0.0000
   110 H53      -1.8552    7.5713   -0.7009   H         1 RES1   0.0000
   111 H54      -1.0159    5.6727   -2.0568   H         1 RES1   0.0000
   112 H55      -2.4120    5.8315   -3.1088   H         1 RES1   0.0000
   113 H56      -2.7129    3.8971   -1.7586   H         1 RES1   0.0000
   114 H57      -3.9182    5.1041   -1.3449   H         1 RES1   0.0000
   115 H58      -3.3221    4.3728    0.7769   H         1 RES1   0.0000
   116 H59      -2.2338    5.7423    0.5826   H         1 RES1   0.0000
   117 H60      -1.2428    3.4908    2.9653   H         1 RES1   0.0000
   118 H61      -0.5891    5.0860    2.5256   H         1 RES1   0.0000
   119 H62       0.9933    6.0195    2.7842   H         1 RES1   0.0000
   120 H63       2.7028    5.9787    3.1331   H         1 RES1   0.0000
   121 H64       1.1669    6.6195    4.9723   H         1 RES1   0.0000
   122 H65       3.1237    4.3690    5.6267   H         1 RES1   0.0000
   123 H66       2.4785    5.5732    6.7302   H         1 RES1   0.0000
   124 H67       3.5081    6.0751    5.3957   H         1 RES1   0.0000
   125 H68       0.4952    3.6546    5.0204   H         1 RES1   0.0000
   126 H69      -0.6143    5.0299    4.8473   H         1 RES1   0.0000
   127 H70       0.2138    4.7569    6.3658   H         1 RES1   0.0000
   128 H71       3.8363    4.5561    2.3197   H         1 RES1   0.0000
   129 H72       3.0660    3.4223    1.2039   H         1 RES1   0.0000
   130 H73       4.8099    2.8411    3.3613   H         1 RES1   0.0000
   131 H74       2.2728    1.2907    3.8394   H         1 RES1   0.0000
   132 H75       2.5194    2.8229    4.6709   H         1 RES1   0.0000
   133 H76       3.6752    1.5310    4.8997   H         1 RES1   0.0000
   134 H77       3.1508    1.0035    1.5959   H         1 RES1   0.0000
   135 H78       4.5874    0.5302    2.5190   H         1 RES1   0.0000
   136 H79       4.7379    1.6758    1.1891   H         1 RES1   0.0000
   137 H80       0.2979    6.0189    0.2145   H         1 RES1   0.0000
   138 H81       2.1615    6.7445   -1.2314   H         1 RES1   0.0000
   139 H82       3.1739    5.1486   -2.8156   H         1 RES1   0.0000
   140 H83       2.5477    2.7696   -2.7169   H         1 RES1   0.0000
   141 H84       0.7086    1.9995   -1.2463   H         1 RES1   0.0000
   142 C49       2.8689   -7.6897    5.5005   C.3       1 RES1   0.0000
   143 C50       3.6932   -6.7079    6.3178   C.3       1 RES1   0.0000
   144 C51       3.1405   -5.2873    6.2772   C.3       1 RES1   0.0000
   145 C52       4.0122   -4.3473    7.1075   C.3       1 RES1   0.0000
   146 C53       3.5989   -2.8789    6.9674   C.3       1 RES1   0.0000
   147 C54       4.0843   -2.3028    5.6285   C.3       1 RES1   0.0000
   148 C55       3.1617   -1.2813    4.9501   C.3       1 RES1   0.0000
   149 C56       1.7689   -1.8545    4.7299   C.3       1 RES1   0.0000
   150 P3        0.6359   -1.2989    3.3611   P.3       1 RES1   0.0000
   151 O5        1.1638   -0.6169    2.1343   O.2       1 RES1   0.0000
   152 C57      -0.7000   -0.2369    4.1237   C.3       1 RES1   0.0000
   153 C58      -1.8960   -0.5187    3.2479   C.2       1 RES1   0.0000
   154 O6       -1.7013   -0.4297    2.0098   O.2       1 RES1   0.0000
   155 N3       -3.0691   -0.8971    3.7669   N.am      1 RES1   0.0000
   156 C59      -3.2457   -1.3955    5.1352   C.3       1 RES1   0.0000
   157 C60      -3.8149   -0.4705    6.2350   C.3       1 RES1   0.0000
   158 C61      -5.3071   -0.1833    6.0754   C.3       1 RES1   0.0000
   159 C62      -3.0302    0.8304    6.3628   C.3       1 RES1   0.0000
   160 C63      -4.1460   -1.1708    2.8168   C.3       1 RES1   0.0000
   161 C64      -5.2168   -0.0822    2.6657   C.3       1 RES1   0.0000
   162 C65      -4.5651    1.2716    2.4249   C.3       1 RES1   0.0000
   163 C66      -6.1251   -0.4823    1.5062   C.3       1 RES1   0.0000
   164 C67      -0.0448   -2.9408    2.9939   C.ar      1 RES1   0.0000
   165 C68      -0.4638   -3.7528    4.0457   C.ar      1 RES1   0.0000
   166 C69      -0.5363   -5.1227    3.8865   C.ar      1 RES1   0.0000
   167 C70      -0.1481   -5.6901    2.6812   C.ar      1 RES1   0.0000
   168 C71       0.1967   -4.8805    1.6109   C.ar      1 RES1   0.0000
   169 C72       0.2256   -3.5019    1.7534   C.ar      1 RES1   0.0000
   170 H85       3.3354   -8.6691    5.5201   H         1 RES1   0.0000
   171 H86       2.7987   -7.3671    4.4640   H         1 RES1   0.0000
   172 H87       1.8644   -7.7807    5.9041   H         1 RES1   0.0000
   173 H88       4.7171   -6.6945    5.9405   H         1 RES1   0.0000
   174 H89       3.7310   -7.0427    7.3537   H         1 RES1   0.0000
   175 H90       2.1206   -5.2655    6.6691   H         1 RES1   0.0000
   176 H91       3.0945   -4.9518    5.2365   H         1 RES1   0.0000
   177 H92       5.0554   -4.4609    6.8097   H         1 RES1   0.0000
   178 H93       3.9453   -4.6635    8.1490   H         1 RES1   0.0000
   179 H94       4.0112   -2.3146    7.8043   H         1 RES1   0.0000
   180 H95       2.5121   -2.8352    7.0382   H         1 RES1   0.0000
   181 H96       4.2047   -3.1315    4.9346   H         1 RES1   0.0000
   182 H97       5.0724   -1.8567    5.7550   H         1 RES1   0.0000
   183 H98       3.5970   -1.0249    3.9834   H         1 RES1   0.0000
   184 H99       3.0898   -0.3883    5.5611   H         1 RES1   0.0000
   185 H100      1.1704   -1.7589    5.6387   H         1 RES1   0.0000
   186 H101      1.8868   -2.9230    4.5329   H         1 RES1   0.0000
   187 H102     -0.3896    0.7960    3.9380   H         1 RES1   0.0000
   188 H103     -0.8411   -0.3779    5.1900   H         1 RES1   0.0000
   189 H104     -2.2843   -1.7728    5.4839   H         1 RES1   0.0000
   190 H105     -3.9158   -2.2567    5.0671   H         1 RES1   0.0000
   191 H106     -3.6848   -1.0479    7.1585   H         1 RES1   0.0000
   192 H107     -5.4676    0.6679    5.4207   H         1 RES1   0.0000
   193 H108     -5.7411    0.0655    7.0393   H         1 RES1   0.0000
   194 H109     -5.8382   -1.0502    5.6869   H         1 RES1   0.0000
   195 H110     -3.0230    1.3554    5.4092   H         1 RES1   0.0000
   196 H111     -2.0082    0.6489    6.6899   H         1 RES1   0.0000
   197 H112     -3.4992    1.4729    7.1026   H         1 RES1   0.0000
   198 H113     -4.6238   -2.1110    3.1012   H         1 RES1   0.0000
   199 H114     -3.6623   -1.2828    1.8424   H         1 RES1   0.0000
   200 H115     -5.8417   -0.0303    3.5571   H         1 RES1   0.0000
   201 H116     -3.9403    1.2321    1.5368   H         1 RES1   0.0000
   202 H117     -3.9467    1.5580    3.2714   H         1 RES1   0.0000
   203 H118     -5.3242    2.0347    2.2927   H         1 RES1   0.0000
   204 H119     -5.5761   -0.5146    0.5673   H         1 RES1   0.0000
   205 H120     -6.9263    0.2399    1.3996   H         1 RES1   0.0000
   206 H121     -6.5800   -1.4532    1.6895   H         1 RES1   0.0000
   207 H122     -0.6964   -3.3048    5.0000   H         1 RES1   0.0000
   208 H123     -0.8431   -5.7509    4.7079   H         1 RES1   0.0000
   209 H124     -0.1229   -6.7619    2.5685   H         1 RES1   0.0000
   210 H125      0.4791   -5.3248    0.6685   H         1 RES1   0.0000
   211 H126      0.5070   -2.8466    0.9316   H         1 RES1   0.0000
   212 C73      -5.7603    1.2592   -5.9393   C.3       1 RES1   0.0000
   213 C74      -5.7080   -0.1051   -6.6265   C.3       1 RES1   0.0000
   214 C75      -4.3553   -0.8380   -6.5052   C.3       1 RES1   0.0000
   215 C76      -3.3742   -0.5859   -7.6730   C.3       1 RES1   0.0000
   216 C77      -1.9088   -0.2692   -7.3133   C.3       1 RES1   0.0000
   217 C78      -1.2460   -1.3195   -6.4215   C.3       1 RES1   0.0000
   218 C79       0.1661   -0.9399   -5.9562   C.3       1 RES1   0.0000
   219 C80       0.6592   -1.9171   -4.8783   C.3       1 RES1   0.0000
   220 P4        1.4325   -1.2359   -3.3351   P.3       1 RES1   0.0000
   221 O7        0.5839   -0.3269   -2.5026   O.2       1 RES1   0.0000
   222 C81       1.7231   -2.8239   -2.4156   C.3       1 RES1   0.0000
   223 C82       2.3819   -2.4526   -1.1117   C.2       1 RES1   0.0000
   224 O8        1.8692   -1.5374   -0.4271   O.2       1 RES1   0.0000
   225 N4        3.5172   -3.0693   -0.7621   N.am      1 RES1   0.0000
   226 C83       4.4376   -2.3584    0.1285   C.3       1 RES1   0.0000
   227 C84       4.6994   -2.9709    1.5168   C.3       1 RES1   0.0000
   228 C85       5.8103   -4.0204    1.5487   C.3       1 RES1   0.0000
   229 C86       3.4114   -3.5022    2.1203   C.3       1 RES1   0.0000
   230 C87       4.1167   -4.2143   -1.4604   C.3       1 RES1   0.0000
   231 C88       3.3171   -5.5227   -1.6220   C.3       1 RES1   0.0000
   232 C89       3.3136   -6.3810   -0.3598   C.3       1 RES1   0.0000
   233 C90       3.9927   -6.3175   -2.7402   C.3       1 RES1   0.0000
   234 C91       3.0000   -0.4522   -3.7938   C.ar      1 RES1   0.0000
   235 C92       4.2425   -1.0427   -3.6191   C.ar      1 RES1   0.0000
   236 C93       5.3916   -0.3612   -3.9812   C.ar      1 RES1   0.0000
   237 C94       5.3014    0.9122   -4.5198   C.ar      1 RES1   0.0000
   238 C95       4.0600    1.4999   -4.7125   C.ar      1 RES1   0.0000
   239 C96       2.9107    0.8181   -4.3544   C.ar      1 RES1   0.0000
   240 H127     -6.7888    1.5624   -5.7523   H         1 RES1   0.0000
   241 H128     -5.2879    2.0132   -6.5564   H         1 RES1   0.0000
   242 H129     -5.2458    1.2451   -4.9825   H         1 RES1   0.0000
   243 H130     -5.9525    0.0211   -7.6821   H         1 RES1   0.0000
   244 H131     -6.4769   -0.7479   -6.1952   H         1 RES1   0.0000
   245 H132     -4.5605   -1.9114   -6.4588   H         1 RES1   0.0000
   246 H133     -3.8848   -0.5572   -5.5567   H         1 RES1   0.0000
   247 H134     -3.7418    0.2519   -8.2671   H         1 RES1   0.0000
   248 H135     -3.3685   -1.4560   -8.3337   H         1 RES1   0.0000
   249 H136     -1.8410    0.7074   -6.8287   H         1 RES1   0.0000
   250 H137     -1.3477   -0.1942   -8.2497   H         1 RES1   0.0000
   251 H138     -1.2067   -2.2717   -6.9496   H         1 RES1   0.0000
   252 H139     -1.8669   -1.4603   -5.5381   H         1 RES1   0.0000
   253 H140      0.1560    0.0784   -5.5628   H         1 RES1   0.0000
   254 H141      0.8527   -0.9310   -6.8043   H         1 RES1   0.0000
   255 H142      1.3787   -2.6182   -5.3011   H         1 RES1   0.0000
   256 H143     -0.1830   -2.5163   -4.5226   H         1 RES1   0.0000
   257 H144      2.2919   -3.5171   -3.0236   H         1 RES1   0.0000
   258 H145      0.7233   -3.2272   -2.2335   H         1 RES1   0.0000
   259 H146      4.0309   -1.3521    0.2620   H         1 RES1   0.0000
   260 H147      5.3956   -2.2721   -0.3942   H         1 RES1   0.0000
   261 H148      5.0415   -2.1225    2.1216   H         1 RES1   0.0000
   262 H149      5.5685   -4.9242    0.9920   H         1 RES1   0.0000
   263 H150      5.9798   -4.3258    2.5779   H         1 RES1   0.0000
   264 H151      6.7332   -3.5817    1.1769   H         1 RES1   0.0000
   265 H152      2.6577   -2.7163    2.1092   H         1 RES1   0.0000
   266 H153      3.0502   -4.3532    1.5574   H         1 RES1   0.0000
   267 H154      3.5937   -3.8481    3.1308   H         1 RES1   0.0000
   268 H155      5.0197   -4.4569   -0.9026   H         1 RES1   0.0000
   269 H156      4.4466   -3.8932   -2.4546   H         1 RES1   0.0000
   270 H157      2.2785   -5.3060   -1.8932   H         1 RES1   0.0000
   271 H158      4.3273   -6.6674   -0.0846   H         1 RES1   0.0000
   272 H159      2.7487   -7.2929   -0.5378   H         1 RES1   0.0000
   273 H160      2.8464   -5.8615    0.4714   H         1 RES1   0.0000
   274 H161      5.0187   -6.5534   -2.4672   H         1 RES1   0.0000
   275 H162      4.0089   -5.7725   -3.6793   H         1 RES1   0.0000
   276 H163      3.4704   -7.2512   -2.9111   H         1 RES1   0.0000
   277 H164      4.3161   -2.0222   -3.1764   H         1 RES1   0.0000
   278 H165      6.3574   -0.8222   -3.8378   H         1 RES1   0.0000
   279 H166      6.1967    1.4478   -4.7932   H         1 RES1   0.0000
   280 H167      3.9906    2.4908   -5.1355   H         1 RES1   0.0000
   281 H168      1.9357    1.2708   -4.4759   H         1 RES1   0.0000
@<TRIPOS>BOND
     1     1    11    1
     2     1    14    1
     3     1    81    1
     4     1    84    1
     5     1   151    1
     6     1   154    1
     7     1   221    1
     8     1   224    1
     9     2     3    1
    10     2    30    1
    11     2    31    1
    12     2    32    1
    13     3     4    1
    14     3    33    1
    15     3    34    1
    16     4     5    1
    17     4    35    1
    18     4    36    1
    19     5     6    1
    20     5    37    1
    21     5    38    1
    22     6     7    1
    23     6    39    1
    24     6    40    1
    25     7     8    1
    26     7    41    1
    27     7    42    1
    28     8     9    1
    29     8    43    1
    30     8    44    1
    31     9    10    1
    32     9    45    1
    33     9    46    1
    34    10    11    2
    35    10    12    1
    36    10    24    1
    37    12    13    1
    38    12    47    1
    39    12    48    1
    40    13    14    2
    41    13    15    1
    42    15    16    1
    43    15    20    1
    44    16    17    1
    45    16    49    1
    46    16    50    1
    47    17    18    1
    48    17    19    1
    49    17    51    1
    50    18    52    1
    51    18    53    1
    52    18    54    1
    53    19    55    1
    54    19    56    1
    55    19    57    1
    56    20    21    1
    57    20    58    1
    58    20    59    1
    59    21    22    1
    60    21    23    1
    61    21    60    1
    62    22    61    1
    63    22    62    1
    64    22    63    1
    65    23    64    1
    66    23    65    1
    67    23    66    1
    68    24    25    1
    69    24    29    2
    70    25    26    2
    71    25    67    1
    72    26    27    1
    73    26    68    1
    74    27    28    2
    75    27    69    1
    76    28    29    1
    77    28    70    1
    78    29    71    1
    79    72    73    1
    80    72   100    1
    81    72   101    1
    82    72   102    1
    83    73    74    1
    84    73   103    1
    85    73   104    1
    86    74    75    1
    87    74   105    1
    88    74   106    1
    89    75    76    1
    90    75   107    1
    91    75   108    1
    92    76    77    1
    93    76   109    1
    94    76   110    1
    95    77    78    1
    96    77   111    1
    97    77   112    1
    98    78    79    1
    99    78   113    1
   100    78   114    1
   101    79    80    1
   102    79   115    1
   103    79   116    1
   104    80    81    2
   105    80    82    1
   106    80    94    1
   107    82    83    1
   108    82   117    1
   109    82   118    1
   110    83    84    2
   111    83    85    1
   112    85    86    1
   113    85    90    1
   114    86    87    1
   115    86   119    1
   116    86   120    1
   117    87    88    1
   118    87    89    1
   119    87   121    1
   120    88   122    1
   121    88   123    1
   122    88   124    1
   123    89   125    1
   124    89   126    1
   125    89   127    1
   126    90    91    1
   127    90   128    1
   128    90   129    1
   129    91    92    1
   130    91    93    1
   131    91   130    1
   132    92   131    1
   133    92   132    1
   134    92   133    1
   135    93   134    1
   136    93   135    1
   137    93   136    1
   138    94    95    1
   139    94    99    2
   140    95    96    2
   141    95   137    1
   142    96    97    1
   143    96   138    1
   144    97    98    2
   145    97   139    1
   146    98    99    1
   147    98   140    1
   148    99   141    1
   149   142   143    1
   150   142   170    1
   151   142   171    1
   152   142   172    1
   153   143   144    1
   154   143   173    1
   155   143   174    1
   156   144   145    1
   157   144   175    1
   158   144   176    1
   159   145   146    1
   160   145   177    1
   161   145   178    1
   162   146   147    1
   163   146   179    1
   164   146   180    1
   165   147   148    1
   166   147   181    1
   167   147   182    1
   168   148   149    1
   169   148   183    1
   170   148   184    1
   171   149   150    1
   172   149   185    1
   173   149   186    1
   174   150   151    2
   175   150   152    1
   176   150   164    1
   177   152   153    1
   178   152   187    1
   179   152   188    1
   180   153   154    2
   181   153   155    1
   182   155   156    1
   183   155   160    1
   184   156   157    1
   185   156   189    1
   186   156   190    1
   187   157   158    1
   188   157   159    1
   189   157   191    1
   190   158   192    1
   191   158   193    1
   192   158   194    1
   193   159   195    1
   194   159   196    1
   195   159   197    1
   196   160   161    1
   197   160   198    1
   198   160   199    1
   199   161   162    1
   200   161   163    1
   201   161   200    1
   202   162   201    1
   203   162   202    1
   204   162   203    1
   205   163   204    1
   206   163   205    1
   207   163   206    1
   208   164   165    1
   209   164   169    2
   210   165   166    2
   211   165   207    1
   212   166   167    1
   213   166   208    1
   214   167   168    2
   215   167   209    1
   216   168   169    1
   217   168   210    1
   218   169   211    1
   219   212   213    1
   220   212   240    1
   221   212   241    1
   222   212   242    1
   223   213   214    1
   224   213   243    1
   225   213   244    1
   226   214   215    1
   227   214   245    1
   228   214   246    1
   229   215   216    1
   230   215   247    1
   231   215   248    1
   232   216   217    1
   233   216   249    1
   234   216   250    1
   235   217   218    1
   236   217   251    1
   237   217   252    1
   238   218   219    1
   239   218   253    1
   240   218   254    1
   241   219   220    1
   242   219   255    1
   243   219   256    1
   244   220   221    2
   245   220   222    1
   246   220   234    1
   247   222   223    1
   248   222   257    1
   249   222   258    1
   250   223   224    2
   251   223   225    1
   252   225   226    1
   253   225   230    1
   254   226   227    1
   255   226   259    1
   256   226   260    1
   257   227   228    1
   258   227   229    1
   259   227   261    1
   260   228   262    1
   261   228   263    1
   262   228   264    1
   263   229   265    1
   264   229   266    1
   265   229   267    1
   266   230   231    1
   267   230   268    1
   268   230   269    1
   269   231   232    1
   270   231   233    1
   271   231   270    1
   272   232   271    1
   273   232   272    1
   274   232   273    1
   275   233   274    1
   276   233   275    1
   277   233   276    1
   278   234   235    1
   279   234   239    2
   280   235   236    2
   281   235   277    1
   282   236   237    1
   283   236   278    1
   284   237   238    2
   285   237   279    1
   286   238   239    1
   287   238   280    1
   288   239   281    1
@<TRIPOS>SUBSTRUCTURE
     1 RES1      281 GROUP             0 ****  ****    0  
