@<TRIPOS>MOLECULE
ICIGOT_geomtry_0_nunpairedes_0_charge_3 Charge: 3 Unpaired_Electrons: 0 XTB_Unpaired_Electrons: 0 XTB_Charge: 3
   117   130     1     0     0
SMALL
NoCharges
****
Generated from Architector

@<TRIPOS>ATOM
     1 Lu1      -0.0650    0.3766    0.3589   Lu        1 RES1   0.0000
     2 C1       -1.1143    5.8706    4.6776   C.3       1 RES1   0.0000
     3 C2       -1.9379    5.5848    3.4220   C.3       1 RES1   0.0000
     4 C3       -1.3069    4.4585    2.6029   C.3       1 RES1   0.0000
     5 C4       -1.4030    3.1467    3.3762   C.3       1 RES1   0.0000
     6 C5       -0.3404    2.1286    2.9809   C.3       1 RES1   0.0000
     7 C6        1.0882    2.5450    3.3941   C.3       1 RES1   0.0000
     8 N1        2.1349    1.7232    2.7898   N.ar      1 RES1   0.0000
     9 C7        3.4226    2.1602    2.2471   C.ar      1 RES1   0.0000
    10 C8        3.3581    3.0384    1.1041   C.ar      1 RES1   0.0000
    11 C9        2.2036    3.2058    0.3128   C.ar      1 RES1   0.0000
    12 C10       2.2459    3.9521   -0.8479   C.ar      1 RES1   0.0000
    13 C11       3.4241    4.5823   -1.2316   C.ar      1 RES1   0.0000
    14 C12       4.5526    4.4802   -0.4343   C.ar      1 RES1   0.0000
    15 C13       4.5256    3.7190    0.7186   C.ar      1 RES1   0.0000
    16 C14       4.4111    1.1124    2.3822   C.ar      1 RES1   0.0000
    17 C15       4.5775    0.5877    3.6923   C.ar      1 RES1   0.0000
    18 C16       4.3560    1.4897    4.7582   C.ar      1 RES1   0.0000
    19 C17       4.1823    1.0222    6.0381   C.ar      1 RES1   0.0000
    20 C18       4.2802   -0.3403    6.3029   C.ar      1 RES1   0.0000
    21 C19       4.6009   -1.2267    5.2737   C.ar      1 RES1   0.0000
    22 C20       4.7669   -0.7805    3.9816   C.ar      1 RES1   0.0000
    23 C21       4.2747    0.2576    1.1560   C.ar      1 RES1   0.0000
    24 C22       4.9205   -0.2592    0.0508   C.ar      1 RES1   0.0000
    25 C23       4.1340   -0.7370   -1.0602   C.ar      1 RES1   0.0000
    26 C24       4.4842   -1.5466   -2.1936   C.ar      1 RES1   0.0000
    27 C25       3.5468   -2.0410   -3.0640   C.ar      1 RES1   0.0000
    28 C26       2.1392   -1.7219   -2.9982   C.ar      1 RES1   0.0000
    29 C27       1.0264   -2.3359   -3.6023   C.ar      1 RES1   0.0000
    30 C28      -0.2930   -1.9823   -3.2153   C.ar      1 RES1   0.0000
    31 C29      -1.4779   -2.7977   -3.3138   C.ar      1 RES1   0.0000
    32 C30      -1.3960   -4.1627   -3.8861   C.ar      1 RES1   0.0000
    33 C31      -1.4544   -5.2522   -3.0167   C.ar      1 RES1   0.0000
    34 C32      -1.3913   -6.5474   -3.4961   C.ar      1 RES1   0.0000
    35 C33      -1.2567   -6.7767   -4.8557   C.ar      1 RES1   0.0000
    36 C34      -1.1773   -5.7006   -5.7257   C.ar      1 RES1   0.0000
    37 C35      -1.2480   -4.3994   -5.2487   C.ar      1 RES1   0.0000
    38 C36      -2.6138   -2.4275   -2.6252   C.ar      1 RES1   0.0000
    39 C37      -3.6109   -3.4111   -2.1511   C.ar      1 RES1   0.0000
    40 C38      -4.7684   -3.8160   -2.7866   C.ar      1 RES1   0.0000
    41 C39      -5.7220   -4.5245   -2.0650   C.ar      1 RES1   0.0000
    42 C40      -5.5180   -4.8473   -0.7339   C.ar      1 RES1   0.0000
    43 C41      -4.3237   -4.4992   -0.1117   C.ar      1 RES1   0.0000
    44 C42      -3.3838   -3.7750   -0.8154   C.ar      1 RES1   0.0000
    45 N2       -2.7660   -1.2030   -1.9760   N.ar      1 RES1   0.0000
    46 C43      -3.9821   -0.8533   -1.2256   C.3       1 RES1   0.0000
    47 C44      -4.9476    0.1472   -1.8728   C.3       1 RES1   0.0000
    48 C45      -6.2489    0.1704   -1.0511   C.3       1 RES1   0.0000
    49 C46      -6.1041    0.3107    0.4660   C.3       1 RES1   0.0000
    50 C47      -5.4882    1.6261    0.9342   C.3       1 RES1   0.0000
    51 C48      -5.4749    1.6959    2.4568   C.3       1 RES1   0.0000
    52 C49      -1.6970   -0.4147   -1.7867   C.ar      1 RES1   0.0000
    53 O1       -1.7105    0.5466   -0.9415   O.2       1 RES1   0.0000
    54 C50      -0.4427   -0.8342   -2.3889   C.ar      1 RES1   0.0000
    55 N3        0.6081   -0.2210   -1.8427   N.ar      1 RES1   0.0000
    56 C51       1.8310   -0.7075   -2.0635   C.ar      1 RES1   0.0000
    57 C52       2.7820   -0.3764   -1.0487   C.ar      1 RES1   0.0000
    58 N4        2.1552    0.0807    0.0478   N.ar      1 RES1   0.0000
    59 C53       2.8580    0.1837    1.1480   C.ar      1 RES1   0.0000
    60 C54       1.8903    0.5495    2.2382   C.ar      1 RES1   0.0000
    61 O2        0.8446   -0.1434    2.3056   O.2       1 RES1   0.0000
    62 H1       -1.5015    6.7483    5.1865   H         1 RES1   0.0000
    63 H2       -0.0696    6.0486    4.4178   H         1 RES1   0.0000
    64 H3       -1.1583    5.0448    5.3877   H         1 RES1   0.0000
    65 H4       -1.9894    6.4879    2.8129   H         1 RES1   0.0000
    66 H5       -2.9553    5.3071    3.7079   H         1 RES1   0.0000
    67 H6       -0.2634    4.7263    2.4161   H         1 RES1   0.0000
    68 H7       -1.8034    4.3569    1.6313   H         1 RES1   0.0000
    69 H8       -2.3860    2.7086    3.1979   H         1 RES1   0.0000
    70 H9       -1.3264    3.3341    4.4460   H         1 RES1   0.0000
    71 H10      -0.4330    2.0078    1.8433   H         1 RES1   0.0000
    72 H11      -0.5676    1.1748    3.4667   H         1 RES1   0.0000
    73 H12       1.1669    2.4899    4.4832   H         1 RES1   0.0000
    74 H13       1.2867    3.5788    3.1026   H         1 RES1   0.0000
    75 H14       1.2456    2.7275    0.5886   H         1 RES1   0.0000
    76 H15       1.3627    4.0308   -1.4627   H         1 RES1   0.0000
    77 H16       3.4539    5.1577   -2.1440   H         1 RES1   0.0000
    78 H17       5.4600    4.9881   -0.7262   H         1 RES1   0.0000
    79 H18       5.3978    3.6535    1.3517   H         1 RES1   0.0000
    80 H19       4.3625    2.5475    4.5416   H         1 RES1   0.0000
    81 H20       4.0007    1.7161    6.8422   H         1 RES1   0.0000
    82 H21       4.1700   -0.7058    7.3131   H         1 RES1   0.0000
    83 H22       4.7153   -2.2752    5.4950   H         1 RES1   0.0000
    84 H23       5.0138   -1.4671    3.1807   H         1 RES1   0.0000
    85 H24       5.9971   -0.2855   -0.0112   H         1 RES1   0.0000
    86 H25       5.5141   -1.8517   -2.3185   H         1 RES1   0.0000
    87 H26       3.8869   -2.7110   -3.8388   H         1 RES1   0.0000
    88 H27       1.1659   -3.1623   -4.2866   H         1 RES1   0.0000
    89 H28      -1.5326   -5.0836   -1.9554   H         1 RES1   0.0000
    90 H29      -1.4544   -7.3753   -2.8051   H         1 RES1   0.0000
    91 H30      -1.1936   -7.7907   -5.2259   H         1 RES1   0.0000
    92 H31      -1.0708   -5.8832   -6.7846   H         1 RES1   0.0000
    93 H32      -1.2133   -3.5776   -5.9477   H         1 RES1   0.0000
    94 H33      -4.9514   -3.5356   -3.8109   H         1 RES1   0.0000
    95 H34      -6.6532   -4.7756   -2.5480   H         1 RES1   0.0000
    96 H35      -6.2883   -5.3588   -0.1754   H         1 RES1   0.0000
    97 H36      -4.1471   -4.7503    0.9242   H         1 RES1   0.0000
    98 H37      -2.4763   -3.4194   -0.3340   H         1 RES1   0.0000
    99 H38      -3.6542   -0.3881   -0.2941   H         1 RES1   0.0000
   100 H39      -4.5411   -1.7563   -0.9962   H         1 RES1   0.0000
   101 H40      -5.1942   -0.1480   -2.8947   H         1 RES1   0.0000
   102 H41      -4.4842    1.1332   -1.9014   H         1 RES1   0.0000
   103 H42      -6.7811   -0.7625   -1.2491   H         1 RES1   0.0000
   104 H43      -6.8622    0.9963   -1.4110   H         1 RES1   0.0000
   105 H44      -5.5442   -0.5332    0.8798   H         1 RES1   0.0000
   106 H45      -7.1046    0.2408    0.8908   H         1 RES1   0.0000
   107 H46      -6.0852    2.4502    0.5471   H         1 RES1   0.0000
   108 H47      -4.4712    1.7363    0.5443   H         1 RES1   0.0000
   109 H48      -6.4842    1.5706    2.8377   H         1 RES1   0.0000
   110 H49      -5.1022    2.6542    2.8059   H         1 RES1   0.0000
   111 H50      -4.8547    0.9090    2.8861   H         1 RES1   0.0000
   112 O3       -1.7847   -0.8705    1.4367   O.3       1 RES1   0.0000
   113 H51      -1.5959   -1.2292    2.3194   H         1 RES1   0.0000
   114 H52      -2.7522   -0.9265    1.3198   H         1 RES1   0.0000
   115 O4        0.3588   -2.1728    0.1431   O.3       1 RES1   0.0000
   116 H53       1.2193   -2.5117   -0.1427   H         1 RES1   0.0000
   117 H54      -0.0320   -2.9253    0.6150   H         1 RES1   0.0000
@<TRIPOS>BOND
     1     1     8    1
     2     1    45    1
     3     1    53    1
     4     1    55    1
     5     1    58    1
     6     1    61    1
     7     1   112    1
     8     1   115    1
     9     2     3    1
    10     2    62    1
    11     2    63    1
    12     2    64    1
    13     3     4    1
    14     3    65    1
    15     3    66    1
    16     4     5    1
    17     4    67    1
    18     4    68    1
    19     5     6    1
    20     5    69    1
    21     5    70    1
    22     6     7    1
    23     6    71    1
    24     6    72    1
    25     7     8    1
    26     7    73    1
    27     7    74    1
    28     8     9    1
    29     8    60    1
    30     9    10    1
    31     9    16    2
    32    10    11    1
    33    10    15    2
    34    11    12    2
    35    11    75    1
    36    12    13    1
    37    12    76    1
    38    13    14    2
    39    13    77    1
    40    14    15    1
    41    14    78    1
    42    15    79    1
    43    16    17    1
    44    16    23    1
    45    17    18    1
    46    17    22    2
    47    18    19    2
    48    18    80    1
    49    19    20    1
    50    19    81    1
    51    20    21    2
    52    20    82    1
    53    21    22    1
    54    21    83    1
    55    22    84    1
    56    23    24    1
    57    23    59    2
    58    24    25    2
    59    24    85    1
    60    25    26    1
    61    25    57    1
    62    26    27    2
    63    26    86    1
    64    27    28    1
    65    27    87    1
    66    28    29    1
    67    28    56    2
    68    29    30    2
    69    29    88    1
    70    30    31    1
    71    30    54    1
    72    31    32    1
    73    31    38    2
    74    32    33    1
    75    32    37    2
    76    33    34    2
    77    33    89    1
    78    34    35    1
    79    34    90    1
    80    35    36    2
    81    35    91    1
    82    36    37    1
    83    36    92    1
    84    37    93    1
    85    38    39    1
    86    38    45    1
    87    39    40    1
    88    39    44    2
    89    40    41    2
    90    40    94    1
    91    41    42    1
    92    41    95    1
    93    42    43    2
    94    42    96    1
    95    43    44    1
    96    43    97    1
    97    44    98    1
    98    45    46    1
    99    45    52    1
   100    46    47    1
   101    46    99    1
   102    46   100    1
   103    47    48    1
   104    47   101    1
   105    47   102    1
   106    48    49    1
   107    48   103    1
   108    48   104    1
   109    49    50    1
   110    49   105    1
   111    49   106    1
   112    50    51    1
   113    50   107    1
   114    50   108    1
   115    51   109    1
   116    51   110    1
   117    51   111    1
   118    52    53    2
   119    52    54    1
   120    54    55    2
   121    55    56    1
   122    56    57    1
   123    57    58    2
   124    58    59    1
   125    59    60    1
   126    60    61    2
   127   112   113    1
   128   112   114    1
   129   115   116    1
   130   115   117    1
@<TRIPOS>SUBSTRUCTURE
     1 RES1      117 GROUP             0 ****  ****    0  
