@<TRIPOS>MOLECULE
YEMSEP_geometry_0_nunpairedes_0_charge_3 Charge: 3 Unpaired_Electrons: 0 XTB_Unpaired_Electrons: 0 XTB_Charge: 3
   245   248     1     0     0
SMALL
NoCharges
****
Generated from Architector

@<TRIPOS>ATOM
     1 Lu1      -0.1530    0.0622    0.1272   Lu        1 RES1   0.0000
     2 C1        2.4641   -5.8471   -1.9826   C.3       1 RES1   0.0000
     3 C2        3.1441   -4.9311   -0.9723   C.3       1 RES1   0.0000
     4 C3        3.4506   -3.5295   -1.4965   C.3       1 RES1   0.0000
     5 C4        4.2648   -2.7307   -0.4787   C.3       1 RES1   0.0000
     6 C5        4.7309   -1.4056   -1.0640   C.3       1 RES1   0.0000
     7 C6        5.6088   -0.5933   -0.1094   C.3       1 RES1   0.0000
     8 C7        6.0668    0.7545   -0.6872   C.3       1 RES1   0.0000
     9 C8        5.0742    1.9193   -0.5195   C.3       1 RES1   0.0000
    10 N1        3.7598    1.6121   -1.0698   N.am      1 RES1   0.0000
    11 C9        3.7145    1.4826   -2.5332   C.3       1 RES1   0.0000
    12 C10       2.6162    2.2854   -3.2291   C.3       1 RES1   0.0000
    13 C11       2.6861    3.8093   -3.0008   C.3       1 RES1   0.0000
    14 C12       2.4659    4.5344   -4.3274   C.3       1 RES1   0.0000
    15 C13       1.6710    4.2323   -1.9245   C.3       1 RES1   0.0000
    16 C14       1.7946    5.6475   -1.3052   C.3       1 RES1   0.0000
    17 C15       1.0406    6.6874   -2.1394   C.3       1 RES1   0.0000
    18 C16       1.1642    5.5896    0.0947   C.3       1 RES1   0.0000
    19 C17       3.2562    6.0745   -1.1652   C.3       1 RES1   0.0000
    20 C18       2.7319    1.2060   -0.3443   C.2       1 RES1   0.0000
    21 O1        1.7037    0.6885   -0.8471   O.2       1 RES1   0.0000
    22 C19       2.7467    1.4149    1.1791   C.3       1 RES1   0.0000
    23 O2        1.4833    0.9952    1.7023   O.3       1 RES1   0.0000
    24 C20       0.9241    1.7914    2.7471   C.3       1 RES1   0.0000
    25 C21      -0.4709    2.2513    2.2927   C.2       1 RES1   0.0000
    26 O3       -0.8577    1.8555    1.1624   O.2       1 RES1   0.0000
    27 N2       -1.2000    3.0145    3.0815   N.am      1 RES1   0.0000
    28 C22      -2.5031    3.5079    2.6335   C.3       1 RES1   0.0000
    29 C23      -3.6835    3.3591    3.6056   C.3       1 RES1   0.0000
    30 C24      -4.3902    1.9923    3.6008   C.3       1 RES1   0.0000
    31 C25      -4.0867    1.1065    4.8103   C.3       1 RES1   0.0000
    32 C26      -2.6308    0.6485    4.8747   C.3       1 RES1   0.0000
    33 C27      -2.3884   -0.6315    5.6888   C.3       1 RES1   0.0000
    34 C28      -2.3464   -0.4398    7.2102   C.3       1 RES1   0.0000
    35 C29      -3.7068   -0.4940    7.8940   C.3       1 RES1   0.0000
    36 C30      -0.6233    3.6207    4.2664   C.3       1 RES1   0.0000
    37 C31       0.4129    4.7053    3.9036   C.3       1 RES1   0.0000
    38 C32       0.0771    6.1298    4.3613   C.3       1 RES1   0.0000
    39 C33      -1.2327    6.6135    3.7459   C.3       1 RES1   0.0000
    40 C34       1.1971    7.0947    3.9449   C.3       1 RES1   0.0000
    41 C35       2.5932    6.9641    4.5981   C.3       1 RES1   0.0000
    42 C36       2.4800    6.6420    6.0895   C.3       1 RES1   0.0000
    43 C37       3.4880    5.9263    3.8992   C.3       1 RES1   0.0000
    44 C38       3.2734    8.3324    4.4461   C.3       1 RES1   0.0000
    45 H1        2.1722   -6.7785   -1.4973   H         1 RES1   0.0000
    46 H2        3.1380   -6.0959   -2.7986   H         1 RES1   0.0000
    47 H3        1.5825   -5.3693   -2.4057   H         1 RES1   0.0000
    48 H4        4.0813   -5.3996   -0.6659   H         1 RES1   0.0000
    49 H5        2.5122   -4.8253   -0.0883   H         1 RES1   0.0000
    50 H6        2.5171   -2.9911   -1.7137   H         1 RES1   0.0000
    51 H7        4.0137   -3.6117   -2.4290   H         1 RES1   0.0000
    52 H8        5.1292   -3.3180   -0.1702   H         1 RES1   0.0000
    53 H9        3.6520   -2.5400    0.4059   H         1 RES1   0.0000
    54 H10       3.8379   -0.8497   -1.3430   H         1 RES1   0.0000
    55 H11       5.3046   -1.6034   -1.9698   H         1 RES1   0.0000
    56 H12       6.4986   -1.1872    0.1110   H         1 RES1   0.0000
    57 H13       5.0851   -0.4455    0.8375   H         1 RES1   0.0000
    58 H14       6.3119    0.6182   -1.7408   H         1 RES1   0.0000
    59 H15       6.9853    1.0692   -0.1895   H         1 RES1   0.0000
    60 H16       5.4633    2.7953   -1.0463   H         1 RES1   0.0000
    61 H17       4.9896    2.1751    0.5345   H         1 RES1   0.0000
    62 H18       3.5751    0.4290   -2.7871   H         1 RES1   0.0000
    63 H19       4.6836    1.8023   -2.9132   H         1 RES1   0.0000
    64 H20       1.6391    1.8878   -2.9433   H         1 RES1   0.0000
    65 H21       2.7389    2.0697   -4.2921   H         1 RES1   0.0000
    66 H22       3.6938    4.0418   -2.6511   H         1 RES1   0.0000
    67 H23       1.4423    4.4178   -4.6782   H         1 RES1   0.0000
    68 H24       3.1355    4.1370   -5.0863   H         1 RES1   0.0000
    69 H25       2.6715    5.5941   -4.2349   H         1 RES1   0.0000
    70 H26       1.7392    3.5098   -1.1043   H         1 RES1   0.0000
    71 H27       0.6678    4.1496   -2.3575   H         1 RES1   0.0000
    72 H28       0.0359    6.3508   -2.3824   H         1 RES1   0.0000
    73 H29       1.5557    6.9063   -3.0673   H         1 RES1   0.0000
    74 H30       0.9534    7.6209   -1.5903   H         1 RES1   0.0000
    75 H31       0.1544    5.1819    0.0596   H         1 RES1   0.0000
    76 H32       1.1057    6.5849    0.5274   H         1 RES1   0.0000
    77 H33       1.7690    4.9726    0.7597   H         1 RES1   0.0000
    78 H34       3.7166    6.2097   -2.1396   H         1 RES1   0.0000
    79 H35       3.8314    5.3384   -0.6046   H         1 RES1   0.0000
    80 H36       3.3214    7.0245   -0.6442   H         1 RES1   0.0000
    81 H37       2.9258    2.4720    1.3997   H         1 RES1   0.0000
    82 H38       3.5411    0.7957    1.6213   H         1 RES1   0.0000
    83 H39       1.5650    2.6414    2.9802   H         1 RES1   0.0000
    84 H40       0.8274    1.1769    3.6556   H         1 RES1   0.0000
    85 H41      -2.7451    2.9932    1.7044   H         1 RES1   0.0000
    86 H42      -2.3731    4.5698    2.4074   H         1 RES1   0.0000
    87 H43      -4.4068    4.1119    3.2833   H         1 RES1   0.0000
    88 H44      -3.4045    3.6222    4.6255   H         1 RES1   0.0000
    89 H45      -4.1535    1.4612    2.6744   H         1 RES1   0.0000
    90 H46      -5.4663    2.1711    3.5983   H         1 RES1   0.0000
    91 H47      -4.7365    0.2312    4.7541   H         1 RES1   0.0000
    92 H48      -4.3516    1.6451    5.7177   H         1 RES1   0.0000
    93 H49      -2.0177    1.4452    5.2943   H         1 RES1   0.0000
    94 H50      -2.2890    0.4855    3.8490   H         1 RES1   0.0000
    95 H51      -1.4230   -1.0459    5.3767   H         1 RES1   0.0000
    96 H52      -3.1521   -1.3757    5.4539   H         1 RES1   0.0000
    97 H53      -1.8596    0.5088    7.4410   H         1 RES1   0.0000
    98 H54      -1.7265   -1.2312    7.6330   H         1 RES1   0.0000
    99 H55      -4.3777    0.2733    7.5214   H         1 RES1   0.0000
   100 H56      -3.5866   -0.3406    8.9632   H         1 RES1   0.0000
   101 H57      -4.1761   -1.4636    7.7444   H         1 RES1   0.0000
   102 H58      -0.1579    2.8396    4.8689   H         1 RES1   0.0000
   103 H59      -1.4262    4.0605    4.8531   H         1 RES1   0.0000
   104 H60       0.5374    4.7345    2.8174   H         1 RES1   0.0000
   105 H61       1.3669    4.4403    4.3478   H         1 RES1   0.0000
   106 H62      -0.0187    6.1454    5.4479   H         1 RES1   0.0000
   107 H63      -1.1959    6.5201    2.6623   H         1 RES1   0.0000
   108 H64      -1.3881    7.6599    3.9871   H         1 RES1   0.0000
   109 H65      -2.0856    6.0592    4.1275   H         1 RES1   0.0000
   110 H66       0.8374    8.0989    4.1745   H         1 RES1   0.0000
   111 H67       1.3127    7.0358    2.8604   H         1 RES1   0.0000
   112 H68       2.1093    5.6322    6.2611   H         1 RES1   0.0000
   113 H69       1.8058    7.3420    6.5767   H         1 RES1   0.0000
   114 H70       3.4520    6.7286    6.5682   H         1 RES1   0.0000
   115 H71       3.2781    4.9047    4.2158   H         1 RES1   0.0000
   116 H72       4.5304    6.1218    4.1388   H         1 RES1   0.0000
   117 H73       3.3835    5.9853    2.8163   H         1 RES1   0.0000
   118 H74       2.7153    9.0960    4.9817   H         1 RES1   0.0000
   119 H75       3.3285    8.6240    3.3990   H         1 RES1   0.0000
   120 H76       4.2851    8.3183    4.8466   H         1 RES1   0.0000
   121 C39       2.1648   -4.8538   -5.4901   C.3       1 RES1   0.0000
   122 C40       0.9222   -4.0264   -5.8095   C.3       1 RES1   0.0000
   123 C41      -0.0770   -3.9743   -4.6479   C.3       1 RES1   0.0000
   124 C42      -0.8608   -5.2738   -4.4505   C.3       1 RES1   0.0000
   125 C43      -1.9385   -5.2237   -3.3425   C.3       1 RES1   0.0000
   126 C44      -1.5104   -5.9739   -2.0655   C.3       1 RES1   0.0000
   127 C45      -1.9606   -5.4258   -0.6860   C.3       1 RES1   0.0000
   128 C46      -0.7735   -5.2875    0.2956   C.3       1 RES1   0.0000
   129 N3       -0.2848   -3.9800    0.7545   N.am      1 RES1   0.0000
   130 C47       0.0507   -3.9590    2.1857   C.3       1 RES1   0.0000
   131 C48       1.0493   -5.0193    2.6635   C.3       1 RES1   0.0000
   132 C49       2.5301   -4.5912    2.6327   C.3       1 RES1   0.0000
   133 C50       3.3946   -5.8099    2.2877   C.3       1 RES1   0.0000
   134 C51       3.0651   -4.0448    3.9679   C.3       1 RES1   0.0000
   135 C52       2.7276   -2.6199    4.4575   C.3       1 RES1   0.0000
   136 C53       1.3820   -2.5764    5.1883   C.3       1 RES1   0.0000
   137 C54       2.7838   -1.5873    3.3240   C.3       1 RES1   0.0000
   138 C55       3.8175   -2.2445    5.4733   C.3       1 RES1   0.0000
   139 C56      -0.0258   -2.8969    0.0460   C.2       1 RES1   0.0000
   140 O4        0.5559   -1.8889    0.5289   O.2       1 RES1   0.0000
   141 C57      -0.4794   -2.8038   -1.3943   C.3       1 RES1   0.0000
   142 O5       -0.4240   -1.4471   -1.8491   O.3       1 RES1   0.0000
   143 C58      -1.5980   -1.0827   -2.5652   C.3       1 RES1   0.0000
   144 C59      -2.6801   -0.6840   -1.5472   C.2       1 RES1   0.0000
   145 O6       -2.2660   -0.4910   -0.3716   O.2       1 RES1   0.0000
   146 N4       -3.9389   -0.5186   -1.8940   N.am      1 RES1   0.0000
   147 C60      -4.4803   -0.8009   -3.2173   C.3       1 RES1   0.0000
   148 C61      -4.9655    0.4184   -4.0096   C.3       1 RES1   0.0000
   149 C62      -3.8589    1.3590   -4.4906   C.3       1 RES1   0.0000
   150 C63      -3.4351    2.4094   -3.4599   C.3       1 RES1   0.0000
   151 C64      -4.4365    3.5588   -3.3412   C.3       1 RES1   0.0000
   152 C65      -3.9285    4.6955   -2.4532   C.3       1 RES1   0.0000
   153 C66      -3.8127    4.3656   -0.9609   C.3       1 RES1   0.0000
   154 C67      -5.1676    4.1598   -0.2913   C.3       1 RES1   0.0000
   155 C68      -4.8974   -0.0302   -0.8946   C.3       1 RES1   0.0000
   156 C69      -6.0360   -1.0041   -0.5969   C.3       1 RES1   0.0000
   157 C70      -5.5818   -2.3401    0.0366   C.3       1 RES1   0.0000
   158 C71      -6.3897   -3.4731   -0.5964   C.3       1 RES1   0.0000
   159 C72      -5.7738   -2.2448    1.5622   C.3       1 RES1   0.0000
   160 C73      -5.0987   -3.2587    2.5116   C.3       1 RES1   0.0000
   161 C74      -5.4392   -4.7142    2.1892   C.3       1 RES1   0.0000
   162 C75      -3.5730   -3.0751    2.5042   C.3       1 RES1   0.0000
   163 C76      -5.6144   -2.9566    3.9264   C.3       1 RES1   0.0000
   164 H77       2.8441   -4.8377   -6.3389   H         1 RES1   0.0000
   165 H78       1.9106   -5.8915   -5.2868   H         1 RES1   0.0000
   166 H79       2.6908   -4.4447   -4.6279   H         1 RES1   0.0000
   167 H80       0.4313   -4.4350   -6.6939   H         1 RES1   0.0000
   168 H81       1.2424   -3.0056   -6.0451   H         1 RES1   0.0000
   169 H82      -0.7787   -3.1568   -4.8349   H         1 RES1   0.0000
   170 H83       0.4942   -3.7223   -3.7539   H         1 RES1   0.0000
   171 H84      -0.1617   -6.0831   -4.2354   H         1 RES1   0.0000
   172 H85      -1.3357   -5.5098   -5.4003   H         1 RES1   0.0000
   173 H86      -2.8498   -5.6777   -3.7263   H         1 RES1   0.0000
   174 H87      -2.1966   -4.1824   -3.1179   H         1 RES1   0.0000
   175 H88      -0.4291   -6.0541   -2.0591   H         1 RES1   0.0000
   176 H89      -1.8739   -7.0005   -2.1534   H         1 RES1   0.0000
   177 H90      -2.6468   -6.1456   -0.2341   H         1 RES1   0.0000
   178 H91      -2.5410   -4.5070   -0.7546   H         1 RES1   0.0000
   179 H92       0.0812   -5.8246   -0.1213   H         1 RES1   0.0000
   180 H93      -1.0505   -5.8028    1.2137   H         1 RES1   0.0000
   181 H94      -0.8961   -4.0733    2.7180   H         1 RES1   0.0000
   182 H95       0.4630   -2.9764    2.3940   H         1 RES1   0.0000
   183 H96       0.9388   -5.9210    2.0633   H         1 RES1   0.0000
   184 H97       0.7816   -5.2871    3.6852   H         1 RES1   0.0000
   185 H98       2.6656   -3.8401    1.8495   H         1 RES1   0.0000
   186 H99       3.4238   -6.5030    3.1237   H         1 RES1   0.0000
   187 H100      4.4158   -5.5055    2.0742   H         1 RES1   0.0000
   188 H101      3.0151   -6.3492    1.4239   H         1 RES1   0.0000
   189 H102      4.1512   -4.0879    3.8891   H         1 RES1   0.0000
   190 H103      2.7867   -4.7452    4.7574   H         1 RES1   0.0000
   191 H104      0.5496   -2.8919    4.5647   H         1 RES1   0.0000
   192 H105      1.1795   -1.5733    5.5658   H         1 RES1   0.0000
   193 H106      1.4184   -3.2415    6.0465   H         1 RES1   0.0000
   194 H107      1.9436   -1.6473    2.6294   H         1 RES1   0.0000
   195 H108      3.6992   -1.7286    2.7547   H         1 RES1   0.0000
   196 H109      2.8040   -0.5838    3.7450   H         1 RES1   0.0000
   197 H110      3.9238   -3.0203    6.2256   H         1 RES1   0.0000
   198 H111      3.5822   -1.3145    5.9866   H         1 RES1   0.0000
   199 H112      4.7794   -2.1245    4.9807   H         1 RES1   0.0000
   200 H113     -1.4913   -3.1761   -1.4866   H         1 RES1   0.0000
   201 H114      0.1768   -3.4139   -2.0285   H         1 RES1   0.0000
   202 H115     -1.8838   -1.8921   -3.2448   H         1 RES1   0.0000
   203 H116     -1.3251   -0.2052   -3.1600   H         1 RES1   0.0000
   204 H117     -5.3291   -1.4702   -3.0635   H         1 RES1   0.0000
   205 H118     -3.7393   -1.3286   -3.8156   H         1 RES1   0.0000
   206 H119     -5.7120    0.9758   -3.4466   H         1 RES1   0.0000
   207 H120     -5.4745    0.0161   -4.8844   H         1 RES1   0.0000
   208 H121     -4.2081    1.8867   -5.3795   H         1 RES1   0.0000
   209 H122     -2.9926    0.7676   -4.7989   H         1 RES1   0.0000
   210 H123     -2.4744    2.8317   -3.7699   H         1 RES1   0.0000
   211 H124     -3.3111    1.9342   -2.4826   H         1 RES1   0.0000
   212 H125     -5.3956    3.2025   -2.9702   H         1 RES1   0.0000
   213 H126     -4.6140    3.9693   -4.3342   H         1 RES1   0.0000
   214 H127     -4.6027    5.5474   -2.5519   H         1 RES1   0.0000
   215 H128     -2.9523    5.0213   -2.8238   H         1 RES1   0.0000
   216 H129     -3.3067    5.2018   -0.4704   H         1 RES1   0.0000
   217 H130     -3.1911    3.4721   -0.8078   H         1 RES1   0.0000
   218 H131     -5.7946    5.0344   -0.4391   H         1 RES1   0.0000
   219 H132     -5.0468    4.0048    0.7781   H         1 RES1   0.0000
   220 H133     -5.6893    3.3006   -0.7044   H         1 RES1   0.0000
   221 H134     -5.3143    0.9052   -1.2720   H         1 RES1   0.0000
   222 H135     -4.3417    0.1787    0.0210   H         1 RES1   0.0000
   223 H136     -6.6066   -1.1847   -1.5076   H         1 RES1   0.0000
   224 H137     -6.7227   -0.4986    0.0821   H         1 RES1   0.0000
   225 H138     -4.5193   -2.4884   -0.1966   H         1 RES1   0.0000
   226 H139     -7.4432   -3.3741   -0.3497   H         1 RES1   0.0000
   227 H140     -6.0611   -4.4497   -0.2650   H         1 RES1   0.0000
   228 H141     -6.2934   -3.4444   -1.6799   H         1 RES1   0.0000
   229 H142     -6.8475   -2.2878    1.7491   H         1 RES1   0.0000
   230 H143     -5.4283   -1.2561    1.8813   H         1 RES1   0.0000
   231 H144     -4.8943   -5.0734    1.3186   H         1 RES1   0.0000
   232 H145     -6.5032   -4.8272    2.0088   H         1 RES1   0.0000
   233 H146     -5.1837   -5.3526    3.0324   H         1 RES1   0.0000
   234 H147     -3.1871   -2.9886    1.4880   H         1 RES1   0.0000
   235 H148     -3.1000   -3.9316    2.9792   H         1 RES1   0.0000
   236 H149     -3.3142   -2.1831    3.0772   H         1 RES1   0.0000
   237 H150     -6.6650   -3.2168    4.0108   H         1 RES1   0.0000
   238 H151     -5.5083   -1.8997    4.1640   H         1 RES1   0.0000
   239 H152     -5.0717   -3.5313    4.6741   H         1 RES1   0.0000
   240 O7       -0.7541    1.6618   -1.6334   O.3       1 RES1   0.0000
   241 H153     -0.0831    2.1994   -2.0853   H         1 RES1   0.0000
   242 H154     -1.5174    2.2529   -1.5379   H         1 RES1   0.0000
   243 O8       -1.1379   -0.7863    2.2542   O.3       1 RES1   0.0000
   244 H155     -0.7571   -1.1401    3.0725   H         1 RES1   0.0000
   245 H156     -2.0444   -1.1435    2.2229   H         1 RES1   0.0000
@<TRIPOS>BOND
     1     1    21    1
     2     1    23    1
     3     1    26    1
     4     1   140    1
     5     1   142    1
     6     1   145    1
     7     1   240    1
     8     1   243    1
     9     2     3    1
    10     2    45    1
    11     2    46    1
    12     2    47    1
    13     3     4    1
    14     3    48    1
    15     3    49    1
    16     4     5    1
    17     4    50    1
    18     4    51    1
    19     5     6    1
    20     5    52    1
    21     5    53    1
    22     6     7    1
    23     6    54    1
    24     6    55    1
    25     7     8    1
    26     7    56    1
    27     7    57    1
    28     8     9    1
    29     8    58    1
    30     8    59    1
    31     9    10    1
    32     9    60    1
    33     9    61    1
    34    10    11    1
    35    10    20    1
    36    11    12    1
    37    11    62    1
    38    11    63    1
    39    12    13    1
    40    12    64    1
    41    12    65    1
    42    13    14    1
    43    13    15    1
    44    13    66    1
    45    14    67    1
    46    14    68    1
    47    14    69    1
    48    15    16    1
    49    15    70    1
    50    15    71    1
    51    16    17    1
    52    16    18    1
    53    16    19    1
    54    17    72    1
    55    17    73    1
    56    17    74    1
    57    18    75    1
    58    18    76    1
    59    18    77    1
    60    19    78    1
    61    19    79    1
    62    19    80    1
    63    20    21    2
    64    20    22    1
    65    22    23    1
    66    22    81    1
    67    22    82    1
    68    23    24    1
    69    24    25    1
    70    24    83    1
    71    24    84    1
    72    25    26    2
    73    25    27    1
    74    27    28    1
    75    27    36    1
    76    28    29    1
    77    28    85    1
    78    28    86    1
    79    29    30    1
    80    29    87    1
    81    29    88    1
    82    30    31    1
    83    30    89    1
    84    30    90    1
    85    31    32    1
    86    31    91    1
    87    31    92    1
    88    32    33    1
    89    32    93    1
    90    32    94    1
    91    33    34    1
    92    33    95    1
    93    33    96    1
    94    34    35    1
    95    34    97    1
    96    34    98    1
    97    35    99    1
    98    35   100    1
    99    35   101    1
   100    36    37    1
   101    36   102    1
   102    36   103    1
   103    37    38    1
   104    37   104    1
   105    37   105    1
   106    38    39    1
   107    38    40    1
   108    38   106    1
   109    39   107    1
   110    39   108    1
   111    39   109    1
   112    40    41    1
   113    40   110    1
   114    40   111    1
   115    41    42    1
   116    41    43    1
   117    41    44    1
   118    42   112    1
   119    42   113    1
   120    42   114    1
   121    43   115    1
   122    43   116    1
   123    43   117    1
   124    44   118    1
   125    44   119    1
   126    44   120    1
   127   121   122    1
   128   121   164    1
   129   121   165    1
   130   121   166    1
   131   122   123    1
   132   122   167    1
   133   122   168    1
   134   123   124    1
   135   123   169    1
   136   123   170    1
   137   124   125    1
   138   124   171    1
   139   124   172    1
   140   125   126    1
   141   125   173    1
   142   125   174    1
   143   126   127    1
   144   126   175    1
   145   126   176    1
   146   127   128    1
   147   127   177    1
   148   127   178    1
   149   128   129    1
   150   128   179    1
   151   128   180    1
   152   129   130    1
   153   129   139    1
   154   130   131    1
   155   130   181    1
   156   130   182    1
   157   131   132    1
   158   131   183    1
   159   131   184    1
   160   132   133    1
   161   132   134    1
   162   132   185    1
   163   133   186    1
   164   133   187    1
   165   133   188    1
   166   134   135    1
   167   134   189    1
   168   134   190    1
   169   135   136    1
   170   135   137    1
   171   135   138    1
   172   136   191    1
   173   136   192    1
   174   136   193    1
   175   137   194    1
   176   137   195    1
   177   137   196    1
   178   138   197    1
   179   138   198    1
   180   138   199    1
   181   139   140    2
   182   139   141    1
   183   141   142    1
   184   141   200    1
   185   141   201    1
   186   142   143    1
   187   143   144    1
   188   143   202    1
   189   143   203    1
   190   144   145    2
   191   144   146    1
   192   146   147    1
   193   146   155    1
   194   147   148    1
   195   147   204    1
   196   147   205    1
   197   148   149    1
   198   148   206    1
   199   148   207    1
   200   149   150    1
   201   149   208    1
   202   149   209    1
   203   150   151    1
   204   150   210    1
   205   150   211    1
   206   151   152    1
   207   151   212    1
   208   151   213    1
   209   152   153    1
   210   152   214    1
   211   152   215    1
   212   153   154    1
   213   153   216    1
   214   153   217    1
   215   154   218    1
   216   154   219    1
   217   154   220    1
   218   155   156    1
   219   155   221    1
   220   155   222    1
   221   156   157    1
   222   156   223    1
   223   156   224    1
   224   157   158    1
   225   157   159    1
   226   157   225    1
   227   158   226    1
   228   158   227    1
   229   158   228    1
   230   159   160    1
   231   159   229    1
   232   159   230    1
   233   160   161    1
   234   160   162    1
   235   160   163    1
   236   161   231    1
   237   161   232    1
   238   161   233    1
   239   162   234    1
   240   162   235    1
   241   162   236    1
   242   163   237    1
   243   163   238    1
   244   163   239    1
   245   240   241    1
   246   240   242    1
   247   243   244    1
   248   243   245    1
@<TRIPOS>SUBSTRUCTURE
     1 RES1      245 GROUP             0 ****  ****    0  
