@<TRIPOS>MOLECULE
ICIGOT_geomtry_0_nunpairedes_0_charge_2 Charge: 2 Unpaired_Electrons: 0 XTB_Unpaired_Electrons: 0 XTB_Charge: 2
   231   235     1     0     0
SMALL
NoCharges
****
Generated from Architector

@<TRIPOS>ATOM
     1 Lu1       0.0248    0.0833   -0.0784   Lu        1 RES1   0.0000
     2 C1        0.9448   -3.0369    3.4002   C.3       1 RES1   0.0000
     3 C2        0.0773   -2.5592    4.5573   C.3       1 RES1   0.0000
     4 C3        0.3542   -1.0937    4.9058   C.3       1 RES1   0.0000
     5 C4       -0.7586   -0.5136    5.7793   C.3       1 RES1   0.0000
     6 C5       -0.6546    0.9813    6.1204   C.3       1 RES1   0.0000
     7 C6        0.7234    1.3858    6.6498   C.3       1 RES1   0.0000
     8 C7        1.0711    0.6960    7.9630   C.3       1 RES1   0.0000
     9 C8       -1.1776    1.9325    5.0134   C.3       1 RES1   0.0000
    10 N1       -0.4070    2.0799    3.7784   N.am      1 RES1   0.0000
    11 C9        0.7339    3.0065    3.8943   C.3       1 RES1   0.0000
    12 C10       1.3601    3.7367    2.6895   C.3       1 RES1   0.0000
    13 C11       2.4426    4.6581    3.3077   C.3       1 RES1   0.0000
    14 C12       3.7325    4.8010    2.5026   C.3       1 RES1   0.0000
    15 C13       0.3329    4.5297    1.8750   C.3       1 RES1   0.0000
    16 C14       0.9295    5.3898    0.7545   C.3       1 RES1   0.0000
    17 C15       1.7391    4.6257   -0.2952   C.3       1 RES1   0.0000
    18 C16       0.9088    3.5923   -1.0430   C.3       1 RES1   0.0000
    19 C17      -0.6751    1.3915    2.6833   C.2       1 RES1   0.0000
    20 O1       -0.0014    1.4633    1.6362   O.2       1 RES1   0.0000
    21 C18      -1.8546    0.4013    2.6431   C.3       1 RES1   0.0000
    22 O2       -2.1361    0.0396    1.2946   O.3       1 RES1   0.0000
    23 C19      -3.3049    0.6296    0.7187   C.3       1 RES1   0.0000
    24 C20      -2.9166    1.5238   -0.4615   C.2       1 RES1   0.0000
    25 O3       -1.7110    1.5480   -0.7633   O.2       1 RES1   0.0000
    26 N2       -3.8673    2.2276   -1.0739   N.am      1 RES1   0.0000
    27 C21      -3.4694    3.2571   -2.0598   C.3       1 RES1   0.0000
    28 C22      -3.0339    2.9081   -3.5086   C.3       1 RES1   0.0000
    29 C23      -3.8276    1.7968   -4.1983   C.3       1 RES1   0.0000
    30 C24      -3.4670    0.3766   -3.7843   C.3       1 RES1   0.0000
    31 C25      -1.5156    2.7281   -3.6039   C.3       1 RES1   0.0000
    32 C26      -0.9262    2.4767   -4.9949   C.3       1 RES1   0.0000
    33 C27      -0.8990    3.6893   -5.9324   C.3       1 RES1   0.0000
    34 C28      -2.1705    3.8940   -6.7490   C.3       1 RES1   0.0000
    35 C29      -5.1858    2.4215   -0.4425   C.3       1 RES1   0.0000
    36 C30      -6.1853    1.2405   -0.2747   C.3       1 RES1   0.0000
    37 C31      -7.3727    1.3709   -1.2363   C.3       1 RES1   0.0000
    38 C32      -7.0154    1.4087   -2.7148   C.3       1 RES1   0.0000
    39 C33      -6.6789    1.2835    1.1928   C.3       1 RES1   0.0000
    40 C34      -7.9382    0.5150    1.6173   C.3       1 RES1   0.0000
    41 C35      -7.7899   -0.9897    1.8564   C.3       1 RES1   0.0000
    42 C36      -7.9283   -1.8371    0.6009   C.3       1 RES1   0.0000
    43 H1        0.7630   -4.0902    3.1991   H         1 RES1   0.0000
    44 H2        0.7275   -2.4568    2.5013   H         1 RES1   0.0000
    45 H3        1.9968   -2.9206    3.6399   H         1 RES1   0.0000
    46 H4       -0.9763   -2.6935    4.2924   H         1 RES1   0.0000
    47 H5        0.2670   -3.1756    5.4381   H         1 RES1   0.0000
    48 H6        1.2992   -1.0479    5.4451   H         1 RES1   0.0000
    49 H7        0.4788   -0.5209    3.9815   H         1 RES1   0.0000
    50 H8       -1.7289   -0.6904    5.3108   H         1 RES1   0.0000
    51 H9       -0.7651   -1.0685    6.7182   H         1 RES1   0.0000
    52 H10      -1.3656    1.1483    6.9408   H         1 RES1   0.0000
    53 H11       1.4955    1.1541    5.9180   H         1 RES1   0.0000
    54 H12       0.7287    2.4662    6.8074   H         1 RES1   0.0000
    55 H13       1.2598   -0.3633    7.8125   H         1 RES1   0.0000
    56 H14       1.9597    1.1456    8.3971   H         1 RES1   0.0000
    57 H15       0.2606    0.8084    8.6762   H         1 RES1   0.0000
    58 H16      -2.1899    1.6137    4.7702   H         1 RES1   0.0000
    59 H17      -1.2564    2.9260    5.4604   H         1 RES1   0.0000
    60 H18       0.4052    3.7751    4.5951   H         1 RES1   0.0000
    61 H19       1.5402    2.4429    4.3641   H         1 RES1   0.0000
    62 H20       1.8335    2.9994    2.0383   H         1 RES1   0.0000
    63 H21       2.0131    5.6454    3.4755   H         1 RES1   0.0000
    64 H22       2.7216    4.2659    4.2877   H         1 RES1   0.0000
    65 H23       3.6194    5.4565    1.6466   H         1 RES1   0.0000
    66 H24       4.5034    5.2303    3.1366   H         1 RES1   0.0000
    67 H25       4.0819    3.8316    2.1547   H         1 RES1   0.0000
    68 H26      -0.3826    3.8341    1.4335   H         1 RES1   0.0000
    69 H27      -0.2131    5.1938    2.5494   H         1 RES1   0.0000
    70 H28       0.1042    5.8969    0.2477   H         1 RES1   0.0000
    71 H29       1.5544    6.1731    1.1841   H         1 RES1   0.0000
    72 H30       2.1275    5.3524   -1.0130   H         1 RES1   0.0000
    73 H31       2.5936    4.1308    0.1627   H         1 RES1   0.0000
    74 H32      -0.0068    4.0542   -1.4031   H         1 RES1   0.0000
    75 H33       1.4594    3.2053   -1.8977   H         1 RES1   0.0000
    76 H34       0.6463    2.7445   -0.3952   H         1 RES1   0.0000
    77 H35      -1.5401   -0.5181    3.1481   H         1 RES1   0.0000
    78 H36      -2.7583    0.7781    3.1231   H         1 RES1   0.0000
    79 H37      -3.9398   -0.1928    0.3730   H         1 RES1   0.0000
    80 H38      -3.8516    1.2130    1.4651   H         1 RES1   0.0000
    81 H39      -4.3202    3.9298   -2.1357   H         1 RES1   0.0000
    82 H40      -2.6439    3.8183   -1.6147   H         1 RES1   0.0000
    83 H41      -3.2704    3.8254   -4.0577   H         1 RES1   0.0000
    84 H42      -4.8880    1.9662   -4.0362   H         1 RES1   0.0000
    85 H43      -3.6643    1.8961   -5.2713   H         1 RES1   0.0000
    86 H44      -3.7224    0.1831   -2.7444   H         1 RES1   0.0000
    87 H45      -4.0108   -0.3272   -4.4098   H         1 RES1   0.0000
    88 H46      -2.4065    0.1843   -3.9207   H         1 RES1   0.0000
    89 H47      -1.0496    3.6349   -3.2130   H         1 RES1   0.0000
    90 H48      -1.2197    1.9061   -2.9543   H         1 RES1   0.0000
    91 H49       0.1070    2.1595   -4.8332   H         1 RES1   0.0000
    92 H50      -1.4303    1.6498   -5.4932   H         1 RES1   0.0000
    93 H51      -0.6814    4.5924   -5.3588   H         1 RES1   0.0000
    94 H52      -0.0745    3.5472   -6.6346   H         1 RES1   0.0000
    95 H53      -3.0140    4.1881   -6.1297   H         1 RES1   0.0000
    96 H54      -2.0107    4.6781   -7.4853   H         1 RES1   0.0000
    97 H55      -2.4284    2.9806   -7.2814   H         1 RES1   0.0000
    98 H56      -4.9930    2.8482    0.5485   H         1 RES1   0.0000
    99 H57      -5.6996    3.1886   -1.0151   H         1 RES1   0.0000
   100 H58      -5.6902    0.2931   -0.4967   H         1 RES1   0.0000
   101 H59      -8.0178    0.5107   -1.0737   H         1 RES1   0.0000
   102 H60      -7.9324    2.2712   -0.9849   H         1 RES1   0.0000
   103 H61      -6.3601    0.5818   -2.9825   H         1 RES1   0.0000
   104 H62      -7.9218    1.3223   -3.3101   H         1 RES1   0.0000
   105 H63      -6.5409    2.3496   -2.9814   H         1 RES1   0.0000
   106 H64      -5.8701    0.9719    1.8585   H         1 RES1   0.0000
   107 H65      -6.8885    2.3344    1.4109   H         1 RES1   0.0000
   108 H66      -8.2436    0.9635    2.5655   H         1 RES1   0.0000
   109 H67      -8.7470    0.6951    0.9134   H         1 RES1   0.0000
   110 H68      -6.8324   -1.1912    2.3419   H         1 RES1   0.0000
   111 H69      -8.5737   -1.2960    2.5521   H         1 RES1   0.0000
   112 H70      -7.2093   -1.5455   -0.1567   H         1 RES1   0.0000
   113 H71      -7.7702   -2.8871    0.8362   H         1 RES1   0.0000
   114 H72      -8.9285   -1.7366    0.1881   H         1 RES1   0.0000
   115 C37       7.6335    1.2777    7.4235   C.3       1 RES1   0.0000
   116 C38       7.1400    1.1632    5.9867   C.3       1 RES1   0.0000
   117 C39       5.8546    1.9613    5.7791   C.3       1 RES1   0.0000
   118 C40       5.3144    1.9051    4.3525   C.3       1 RES1   0.0000
   119 C41       4.8678    0.5336    3.8223   C.3       1 RES1   0.0000
   120 C42       3.8251   -0.1675    4.6977   C.3       1 RES1   0.0000
   121 C43       4.3658   -1.0217    5.8378   C.3       1 RES1   0.0000
   122 C44       4.2532    0.7955    2.4359   C.3       1 RES1   0.0000
   123 N3        4.2629   -0.3343    1.5037   N.am      1 RES1   0.0000
   124 C45       5.5921   -0.6502    0.9742   C.3       1 RES1   0.0000
   125 C46       6.0670   -2.1079    0.8715   C.3       1 RES1   0.0000
   126 C47       7.3690   -2.1081    0.0476   C.3       1 RES1   0.0000
   127 C48       7.1954   -1.6618   -1.4032   C.3       1 RES1   0.0000
   128 C49       6.3069   -2.7962    2.2220   C.3       1 RES1   0.0000
   129 C50       5.0416   -3.3491    2.8763   C.3       1 RES1   0.0000
   130 C51       5.3760   -4.1968    4.1056   C.3       1 RES1   0.0000
   131 C52       4.1352   -4.6603    4.8594   C.3       1 RES1   0.0000
   132 C53       3.1301   -0.6742    0.9024   C.2       1 RES1   0.0000
   133 O4        2.0149   -0.1950    1.2056   O.2       1 RES1   0.0000
   134 C54       3.1504   -1.6975   -0.2323   C.3       1 RES1   0.0000
   135 O5        1.9432   -1.5277   -0.9722   O.3       1 RES1   0.0000
   136 C55       1.3343   -2.7226   -1.4447   C.3       1 RES1   0.0000
   137 C56       0.1728   -3.0763   -0.5155   C.2       1 RES1   0.0000
   138 O6       -0.1624   -2.2113    0.3266   O.2       1 RES1   0.0000
   139 N4       -0.3774   -4.2779   -0.5867   N.am      1 RES1   0.0000
   140 C57      -1.2281   -4.7203    0.5286   C.3       1 RES1   0.0000
   141 C58      -2.7295   -4.3647    0.4750   C.3       1 RES1   0.0000
   142 C59      -2.9935   -2.9337    0.9665   C.3       1 RES1   0.0000
   143 C60      -4.2449   -2.8333    1.8343   C.3       1 RES1   0.0000
   144 C61      -3.2800   -4.6346   -0.9267   C.3       1 RES1   0.0000
   145 C62      -4.8017   -4.5635   -1.0987   C.3       1 RES1   0.0000
   146 C63      -5.3394   -3.2290   -1.6169   C.3       1 RES1   0.0000
   147 C64      -4.8522   -2.8782   -3.0192   C.3       1 RES1   0.0000
   148 C65       0.0271   -5.3116   -1.5472   C.3       1 RES1   0.0000
   149 C66       0.1095   -5.0176   -3.0611   C.3       1 RES1   0.0000
   150 C67      -1.1987   -4.4372   -3.6065   C.3       1 RES1   0.0000
   151 C68      -1.1639   -4.0936   -5.0912   C.3       1 RES1   0.0000
   152 C69       0.6415   -6.2934   -3.7496   C.3       1 RES1   0.0000
   153 C70      -0.0992   -7.6192   -3.5646   C.3       1 RES1   0.0000
   154 C71      -1.3641   -7.7710   -4.4060   C.3       1 RES1   0.0000
   155 C72      -1.8197   -9.2244   -4.4365   C.3       1 RES1   0.0000
   156 H73       8.5545    0.7171    7.5585   H         1 RES1   0.0000
   157 H74       7.8227    2.3166    7.6810   H         1 RES1   0.0000
   158 H75       6.8931    0.8848    8.1169   H         1 RES1   0.0000
   159 H76       7.9084    1.5385    5.3065   H         1 RES1   0.0000
   160 H77       6.9724    0.1109    5.7515   H         1 RES1   0.0000
   161 H78       5.0889    1.6252    6.4792   H         1 RES1   0.0000
   162 H79       6.0606    3.0098    6.0137   H         1 RES1   0.0000
   163 H80       4.4635    2.5857    4.2887   H         1 RES1   0.0000
   164 H81       6.0910    2.2878    3.6876   H         1 RES1   0.0000
   165 H82       5.7388   -0.1161    3.7189   H         1 RES1   0.0000
   166 H83       3.1539    0.5888    5.1020   H         1 RES1   0.0000
   167 H84       3.2344   -0.8106    4.0436   H         1 RES1   0.0000
   168 H85       4.7455   -0.4208    6.6551   H         1 RES1   0.0000
   169 H86       3.5752   -1.6563    6.2351   H         1 RES1   0.0000
   170 H87       5.1673   -1.6671    5.4940   H         1 RES1   0.0000
   171 H88       3.2147    1.1031    2.5571   H         1 RES1   0.0000
   172 H89       4.7999    1.6104    1.9529   H         1 RES1   0.0000
   173 H90       5.6515   -0.2056   -0.0235   H         1 RES1   0.0000
   174 H91       6.3114   -0.1263    1.6017   H         1 RES1   0.0000
   175 H92       5.3391   -2.7109    0.3275   H         1 RES1   0.0000
   176 H93       8.1100   -1.4741    0.5371   H         1 RES1   0.0000
   177 H94       7.7579   -3.1276    0.0451   H         1 RES1   0.0000
   178 H95       7.0283   -0.5887   -1.4909   H         1 RES1   0.0000
   179 H96       8.0989   -1.8945   -1.9619   H         1 RES1   0.0000
   180 H97       6.3662   -2.1894   -1.8744   H         1 RES1   0.0000
   181 H98       6.9820   -3.6370    2.0514   H         1 RES1   0.0000
   182 H99       6.8170   -2.1188    2.9080   H         1 RES1   0.0000
   183 H100      4.3774   -2.5326    3.1633   H         1 RES1   0.0000
   184 H101      4.5073   -3.9776    2.1564   H         1 RES1   0.0000
   185 H102      5.9503   -5.0687    3.7871   H         1 RES1   0.0000
   186 H103      6.0112   -3.6235    4.7833   H         1 RES1   0.0000
   187 H104      3.5014   -5.2748    4.2246   H         1 RES1   0.0000
   188 H105      4.4208   -5.2523    5.7245   H         1 RES1   0.0000
   189 H106      3.5532   -3.8108    5.2098   H         1 RES1   0.0000
   190 H107      3.9964   -1.5286   -0.9066   H         1 RES1   0.0000
   191 H108      3.2043   -2.7024    0.2028   H         1 RES1   0.0000
   192 H109      0.9756   -2.5139   -2.4573   H         1 RES1   0.0000
   193 H110      2.0553   -3.5451   -1.4853   H         1 RES1   0.0000
   194 H111     -1.1258   -5.8039    0.5777   H         1 RES1   0.0000
   195 H112     -0.8060   -4.2992    1.4437   H         1 RES1   0.0000
   196 H113     -3.2140   -5.0493    1.1803   H         1 RES1   0.0000
   197 H114     -2.1449   -2.5975    1.5641   H         1 RES1   0.0000
   198 H115     -3.0576   -2.2706    0.1022   H         1 RES1   0.0000
   199 H116     -4.1760   -3.5322    2.6655   H         1 RES1   0.0000
   200 H117     -4.3494   -1.8310    2.2468   H         1 RES1   0.0000
   201 H118     -5.1449   -3.0664    1.2746   H         1 RES1   0.0000
   202 H119     -2.8156   -3.9272   -1.6065   H         1 RES1   0.0000
   203 H120     -2.9628   -5.6390   -1.2101   H         1 RES1   0.0000
   204 H121     -5.0949   -5.3241   -1.8241   H         1 RES1   0.0000
   205 H122     -5.2945   -4.8158   -0.1585   H         1 RES1   0.0000
   206 H123     -6.4276   -3.3084   -1.6423   H         1 RES1   0.0000
   207 H124     -5.0784   -2.4151   -0.9391   H         1 RES1   0.0000
   208 H125     -4.9540   -3.7331   -3.6824   H         1 RES1   0.0000
   209 H126     -5.4487   -2.0636   -3.4246   H         1 RES1   0.0000
   210 H127     -3.8103   -2.5628   -3.0196   H         1 RES1   0.0000
   211 H128      0.9996   -5.7079   -1.2332   H         1 RES1   0.0000
   212 H129     -0.7029   -6.1086   -1.4389   H         1 RES1   0.0000
   213 H130      0.8815   -4.2780   -3.2766   H         1 RES1   0.0000
   214 H131     -2.0250   -5.1193   -3.4212   H         1 RES1   0.0000
   215 H132     -1.3896   -3.5102   -3.0569   H         1 RES1   0.0000
   216 H133     -1.0362   -4.9814   -5.7036   H         1 RES1   0.0000
   217 H134     -2.1068   -3.6318   -5.3769   H         1 RES1   0.0000
   218 H135     -0.3601   -3.3933   -5.3100   H         1 RES1   0.0000
   219 H136      0.7155   -6.0935   -4.8174   H         1 RES1   0.0000
   220 H137      1.6626   -6.4371   -3.3842   H         1 RES1   0.0000
   221 H138      0.5913   -8.4106   -3.8667   H         1 RES1   0.0000
   222 H139     -0.3321   -7.8032   -2.5147   H         1 RES1   0.0000
   223 H140     -2.1692   -7.1508   -4.0085   H         1 RES1   0.0000
   224 H141     -1.1537   -7.4417   -5.4251   H         1 RES1   0.0000
   225 H142     -1.9977   -9.5928   -3.4281   H         1 RES1   0.0000
   226 H143     -2.7412   -9.3268   -5.0037   H         1 RES1   0.0000
   227 H144     -1.0586   -9.8481   -4.8999   H         1 RES1   0.0000
   228 N5        0.1680   -0.2441   -2.4095   N.3       1 RES1   0.0000
   229 O7        0.4459   -0.6264   -3.4984   O.2       1 RES1   0.0000
   230 O8       -0.7879   -0.7294   -1.7888   O.co2     1 RES1   0.0000
   231 O9        0.8285    0.6357   -1.8440   O.co2     1 RES1   0.0000
@<TRIPOS>BOND
     1     1    20    1
     2     1    22    1
     3     1    25    1
     4     1   133    1
     5     1   135    1
     6     1   138    1
     7     1   230    1
     8     1   231    1
     9     2     3    1
    10     2    43    1
    11     2    44    1
    12     2    45    1
    13     3     4    1
    14     3    46    1
    15     3    47    1
    16     4     5    1
    17     4    48    1
    18     4    49    1
    19     5     6    1
    20     5    50    1
    21     5    51    1
    22     6     7    1
    23     6     9    1
    24     6    52    1
    25     7     8    1
    26     7    53    1
    27     7    54    1
    28     8    55    1
    29     8    56    1
    30     8    57    1
    31     9    10    1
    32     9    58    1
    33     9    59    1
    34    10    11    1
    35    10    19    1
    36    11    12    1
    37    11    60    1
    38    11    61    1
    39    12    13    1
    40    12    15    1
    41    12    62    1
    42    13    14    1
    43    13    63    1
    44    13    64    1
    45    14    65    1
    46    14    66    1
    47    14    67    1
    48    15    16    1
    49    15    68    1
    50    15    69    1
    51    16    17    1
    52    16    70    1
    53    16    71    1
    54    17    18    1
    55    17    72    1
    56    17    73    1
    57    18    74    1
    58    18    75    1
    59    18    76    1
    60    19    20    2
    61    19    21    1
    62    21    22    1
    63    21    77    1
    64    21    78    1
    65    22    23    1
    66    23    24    1
    67    23    79    1
    68    23    80    1
    69    24    25    2
    70    24    26    1
    71    26    27    1
    72    26    35    1
    73    27    28    1
    74    27    81    1
    75    27    82    1
    76    28    29    1
    77    28    31    1
    78    28    83    1
    79    29    30    1
    80    29    84    1
    81    29    85    1
    82    30    86    1
    83    30    87    1
    84    30    88    1
    85    31    32    1
    86    31    89    1
    87    31    90    1
    88    32    33    1
    89    32    91    1
    90    32    92    1
    91    33    34    1
    92    33    93    1
    93    33    94    1
    94    34    95    1
    95    34    96    1
    96    34    97    1
    97    35    36    1
    98    35    98    1
    99    35    99    1
   100    36    37    1
   101    36    39    1
   102    36   100    1
   103    37    38    1
   104    37   101    1
   105    37   102    1
   106    38   103    1
   107    38   104    1
   108    38   105    1
   109    39    40    1
   110    39   106    1
   111    39   107    1
   112    40    41    1
   113    40   108    1
   114    40   109    1
   115    41    42    1
   116    41   110    1
   117    41   111    1
   118    42   112    1
   119    42   113    1
   120    42   114    1
   121   115   116    1
   122   115   156    1
   123   115   157    1
   124   115   158    1
   125   116   117    1
   126   116   159    1
   127   116   160    1
   128   117   118    1
   129   117   161    1
   130   117   162    1
   131   118   119    1
   132   118   163    1
   133   118   164    1
   134   119   120    1
   135   119   122    1
   136   119   165    1
   137   120   121    1
   138   120   166    1
   139   120   167    1
   140   121   168    1
   141   121   169    1
   142   121   170    1
   143   122   123    1
   144   122   171    1
   145   122   172    1
   146   123   124    1
   147   123   132    1
   148   124   125    1
   149   124   173    1
   150   124   174    1
   151   125   126    1
   152   125   128    1
   153   125   175    1
   154   126   127    1
   155   126   176    1
   156   126   177    1
   157   127   178    1
   158   127   179    1
   159   127   180    1
   160   128   129    1
   161   128   181    1
   162   128   182    1
   163   129   130    1
   164   129   183    1
   165   129   184    1
   166   130   131    1
   167   130   185    1
   168   130   186    1
   169   131   187    1
   170   131   188    1
   171   131   189    1
   172   132   133    2
   173   132   134    1
   174   134   135    1
   175   134   190    1
   176   134   191    1
   177   135   136    1
   178   136   137    1
   179   136   192    1
   180   136   193    1
   181   137   138    2
   182   137   139    1
   183   139   140    1
   184   139   148    1
   185   140   141    1
   186   140   194    1
   187   140   195    1
   188   141   142    1
   189   141   144    1
   190   141   196    1
   191   142   143    1
   192   142   197    1
   193   142   198    1
   194   143   199    1
   195   143   200    1
   196   143   201    1
   197   144   145    1
   198   144   202    1
   199   144   203    1
   200   145   146    1
   201   145   204    1
   202   145   205    1
   203   146   147    1
   204   146   206    1
   205   146   207    1
   206   147   208    1
   207   147   209    1
   208   147   210    1
   209   148   149    1
   210   148   211    1
   211   148   212    1
   212   149   150    1
   213   149   152    1
   214   149   213    1
   215   150   151    1
   216   150   214    1
   217   150   215    1
   218   151   216    1
   219   151   217    1
   220   151   218    1
   221   152   153    1
   222   152   219    1
   223   152   220    1
   224   153   154    1
   225   153   221    1
   226   153   222    1
   227   154   155    1
   228   154   223    1
   229   154   224    1
   230   155   225    1
   231   155   226    1
   232   155   227    1
   233   228   229    2
   234   228   230    1
   235   228   231    1
@<TRIPOS>SUBSTRUCTURE
     1 RES1      231 GROUP             0 ****  ****    0  
