@<TRIPOS>MOLECULE
YEMSEP_geometry_0_nunpairedes_0_charge_2 Charge: 2 Unpaired_Electrons: 0 XTB_Unpaired_Electrons: 0 XTB_Charge: 2
   249   253     1     0     0
SMALL
NoCharges
****
Generated from Architector

@<TRIPOS>ATOM
     1 Lu1      -0.2385    0.2117    0.1255   Lu        1 RES1   0.0000
     2 C1        2.7951    6.2226   -1.8694   C.3       1 RES1   0.0000
     3 C2        2.0707    5.3827   -2.9184   C.3       1 RES1   0.0000
     4 C3        2.9612    5.1417   -4.1381   C.3       1 RES1   0.0000
     5 C4        2.3141    4.3669   -5.2849   C.3       1 RES1   0.0000
     6 C5        1.7279    2.9994   -4.9434   C.3       1 RES1   0.0000
     7 C6        0.9281    2.4927   -6.1435   C.3       1 RES1   0.0000
     8 C7        0.1729    1.1900   -5.8840   C.3       1 RES1   0.0000
     9 C8       -1.1705    1.3343   -5.1523   C.3       1 RES1   0.0000
    10 N1       -1.0862    1.8198   -3.7833   N.am      1 RES1   0.0000
    11 C9       -1.3588    3.2517   -3.5861   C.3       1 RES1   0.0000
    12 C10      -2.8520    3.6023   -3.6686   C.3       1 RES1   0.0000
    13 C11      -3.6325    3.5969   -2.3429   C.3       1 RES1   0.0000
    14 C12      -3.8371    4.9982   -1.7546   C.3       1 RES1   0.0000
    15 C13      -2.5955    5.6323   -1.1261   C.3       1 RES1   0.0000
    16 C14      -2.1326    4.8601    0.1102   C.3       1 RES1   0.0000
    17 C15      -1.3063    5.6880    1.0912   C.3       1 RES1   0.0000
    18 C16      -0.9938    4.8716    2.3410   C.3       1 RES1   0.0000
    19 C17      -0.7971    1.0504   -2.7464   C.2       1 RES1   0.0000
    20 O1       -0.7309    1.4949   -1.5819   O.2       1 RES1   0.0000
    21 C18      -0.4898   -0.4595   -2.9207   C.3       1 RES1   0.0000
    22 C19      -1.7685   -1.2876   -2.7125   C.3       1 RES1   0.0000
    23 O2        0.4876   -0.7565   -1.9037   O.3       1 RES1   0.0000
    24 C20       1.6055   -1.6040   -2.2534   C.3       1 RES1   0.0000
    25 C21       1.1430   -3.0424   -2.5323   C.3       1 RES1   0.0000
    26 C22       0.4163   -3.6642   -1.3418   C.3       1 RES1   0.0000
    27 C23       2.5079   -1.5811   -1.0036   C.2       1 RES1   0.0000
    28 O3        1.8900   -1.3477    0.0564   O.2       1 RES1   0.0000
    29 N2        3.8312   -1.8060   -0.9627   N.am      1 RES1   0.0000
    30 C24       4.3858   -1.7172    0.4207   C.3       1 RES1   0.0000
    31 C25       5.8992   -1.6346    0.7179   C.3       1 RES1   0.0000
    32 C26       6.3588   -0.2077    1.0540   C.3       1 RES1   0.0000
    33 C27       7.5946   -0.1525    1.9618   C.3       1 RES1   0.0000
    34 C28       7.2523   -0.1667    3.4546   C.3       1 RES1   0.0000
    35 C29       6.5841    1.1227    3.9416   C.3       1 RES1   0.0000
    36 C30       6.4441    1.1662    5.4648   C.3       1 RES1   0.0000
    37 C31       5.4434    2.2072    5.9663   C.3       1 RES1   0.0000
    38 C32       4.8726   -2.1298   -1.9417   C.3       1 RES1   0.0000
    39 C33       4.6012   -2.2790   -3.4408   C.3       1 RES1   0.0000
    40 C34       4.4909   -3.7374   -3.9046   C.3       1 RES1   0.0000
    41 C35       3.8106   -3.8470   -5.2703   C.3       1 RES1   0.0000
    42 C36       3.7986   -5.2813   -5.8209   C.3       1 RES1   0.0000
    43 C37       2.4872   -6.0381   -5.5988   C.3       1 RES1   0.0000
    44 C38       2.2823   -6.5491   -4.1736   C.3       1 RES1   0.0000
    45 C39       1.0767   -7.4804   -4.0907   C.3       1 RES1   0.0000
    46 H1        2.2179    6.2681   -0.9489   H         1 RES1   0.0000
    47 H2        2.9385    7.2421   -2.2099   H         1 RES1   0.0000
    48 H3        3.7732    5.7950   -1.6540   H         1 RES1   0.0000
    49 H4        1.1514    5.8848   -3.2210   H         1 RES1   0.0000
    50 H5        1.7826    4.4357   -2.4584   H         1 RES1   0.0000
    51 H6        3.8667    4.6289   -3.8011   H         1 RES1   0.0000
    52 H7        3.2585    6.1147   -4.5401   H         1 RES1   0.0000
    53 H8        3.0649    4.2267   -6.0633   H         1 RES1   0.0000
    54 H9        1.5226    4.9742   -5.7209   H         1 RES1   0.0000
    55 H10       1.0961    3.0647   -4.0599   H         1 RES1   0.0000
    56 H11       2.5217    2.2886   -4.7101   H         1 RES1   0.0000
    57 H12       1.6331    2.3117   -6.9565   H         1 RES1   0.0000
    58 H13       0.2376    3.2690   -6.4843   H         1 RES1   0.0000
    59 H14       0.8382    0.5151   -5.3441   H         1 RES1   0.0000
    60 H15      -0.0632    0.7214   -6.8403   H         1 RES1   0.0000
    61 H16      -1.6721    0.3663   -5.1520   H         1 RES1   0.0000
    62 H17      -1.7870    2.0367   -5.7138   H         1 RES1   0.0000
    63 H18      -0.8377    3.7849   -4.3840   H         1 RES1   0.0000
    64 H19      -0.9445    3.5505   -2.6242   H         1 RES1   0.0000
    65 H20      -3.3187    2.9017   -4.3624   H         1 RES1   0.0000
    66 H21      -2.9505    4.5979   -4.1071   H         1 RES1   0.0000
    67 H22      -3.1573    2.9424   -1.6134   H         1 RES1   0.0000
    68 H23      -4.6236    3.1862   -2.5399   H         1 RES1   0.0000
    69 H24      -4.6130    4.9391   -0.9885   H         1 RES1   0.0000
    70 H25      -4.2183    5.6478   -2.5457   H         1 RES1   0.0000
    71 H26      -2.8528    6.6533   -0.8367   H         1 RES1   0.0000
    72 H27      -1.7919    5.6988   -1.8631   H         1 RES1   0.0000
    73 H28      -1.5398    3.9938   -0.1978   H         1 RES1   0.0000
    74 H29      -3.0147    4.4898    0.6366   H         1 RES1   0.0000
    75 H30      -1.8656    6.5823    1.3748   H         1 RES1   0.0000
    76 H31      -0.3749    6.0106    0.6165   H         1 RES1   0.0000
    77 H32      -1.9169    4.5437    2.8141   H         1 RES1   0.0000
    78 H33      -0.4311    5.4602    3.0614   H         1 RES1   0.0000
    79 H34      -0.4194    3.9842    2.0756   H         1 RES1   0.0000
    80 H35      -0.0766   -0.6651   -3.9083   H         1 RES1   0.0000
    81 H36      -2.0842   -1.2358   -1.6645   H         1 RES1   0.0000
    82 H37      -1.6040   -2.3292   -2.9888   H         1 RES1   0.0000
    83 H38      -2.5727   -0.9095   -3.3417   H         1 RES1   0.0000
    84 H39       2.1200   -1.1694   -3.1154   H         1 RES1   0.0000
    85 H40       2.0134   -3.6473   -2.7686   H         1 RES1   0.0000
    86 H41       0.4935   -3.0483   -3.4103   H         1 RES1   0.0000
    87 H42       1.1099   -3.8674   -0.5295   H         1 RES1   0.0000
    88 H43      -0.0367   -4.6116   -1.6265   H         1 RES1   0.0000
    89 H44      -0.3552   -2.9905   -0.9687   H         1 RES1   0.0000
    90 H45       3.9869   -2.5762    0.9545   H         1 RES1   0.0000
    91 H46       3.9346   -0.8256    0.8526   H         1 RES1   0.0000
    92 H47       6.5220   -2.0589   -0.0662   H         1 RES1   0.0000
    93 H48       6.0747   -2.2473    1.6053   H         1 RES1   0.0000
    94 H49       5.5468    0.2996    1.5716   H         1 RES1   0.0000
    95 H50       6.5645    0.3399    0.1344   H         1 RES1   0.0000
    96 H51       8.1474    0.7638    1.7505   H         1 RES1   0.0000
    97 H52       8.2503   -0.9899    1.7223   H         1 RES1   0.0000
    98 H53       8.1740   -0.3102    4.0146   H         1 RES1   0.0000
    99 H54       6.6029   -1.0164    3.6716   H         1 RES1   0.0000
   100 H55       5.5875    1.1986    3.5090   H         1 RES1   0.0000
   101 H56       7.1575    1.9891    3.6037   H         1 RES1   0.0000
   102 H57       7.4201    1.3825    5.8953   H         1 RES1   0.0000
   103 H58       6.1360    0.1816    5.8246   H         1 RES1   0.0000
   104 H59       5.6845    3.1998    5.5942   H         1 RES1   0.0000
   105 H60       5.4618    2.2412    7.0532   H         1 RES1   0.0000
   106 H61       4.4221    1.9705    5.6699   H         1 RES1   0.0000
   107 H62       5.3333   -3.0663   -1.6005   H         1 RES1   0.0000
   108 H63       5.6184   -1.3385   -1.8264   H         1 RES1   0.0000
   109 H64       5.4494   -1.8319   -3.9634   H         1 RES1   0.0000
   110 H65       3.7250   -1.7209   -3.7544   H         1 RES1   0.0000
   111 H66       3.9409   -4.3332   -3.1746   H         1 RES1   0.0000
   112 H67       5.4936   -4.1660   -3.9751   H         1 RES1   0.0000
   113 H68       4.3329   -3.1936   -5.9720   H         1 RES1   0.0000
   114 H69       2.7845   -3.4787   -5.1912   H         1 RES1   0.0000
   115 H70       4.6154   -5.8506   -5.3761   H         1 RES1   0.0000
   116 H71       3.9815   -5.2450   -6.8937   H         1 RES1   0.0000
   117 H72       2.4758   -6.9013   -6.2661   H         1 RES1   0.0000
   118 H73       1.6460   -5.4017   -5.8833   H         1 RES1   0.0000
   119 H74       2.1348   -5.7128   -3.4849   H         1 RES1   0.0000
   120 H75       3.1783   -7.0886   -3.8565   H         1 RES1   0.0000
   121 H76       0.1735   -6.9727   -4.4249   H         1 RES1   0.0000
   122 H77       0.9249   -7.8230   -3.0696   H         1 RES1   0.0000
   123 H78       1.2280   -8.3505   -4.7242   H         1 RES1   0.0000
   124 C40       3.8650   -5.5382   -0.3437   C.3       1 RES1   0.0000
   125 C41       4.2927   -5.3139    1.1044   C.3       1 RES1   0.0000
   126 C42       3.1659   -4.7097    1.9482   C.3       1 RES1   0.0000
   127 C43       2.0895   -5.7176    2.3411   C.3       1 RES1   0.0000
   128 C44       0.8113   -5.0187    2.8039   C.3       1 RES1   0.0000
   129 C45       0.9404   -4.3432    4.1750   C.3       1 RES1   0.0000
   130 C46      -0.4029   -4.1308    4.8919   C.3       1 RES1   0.0000
   131 C47      -1.0757   -2.7805    4.5989   C.3       1 RES1   0.0000
   132 N3       -1.1938   -2.5017    3.1814   N.am      1 RES1   0.0000
   133 C48      -2.0248   -3.4161    2.3917   C.3       1 RES1   0.0000
   134 C49      -3.3328   -2.7775    1.9197   C.3       1 RES1   0.0000
   135 C50      -4.3030   -2.4644    3.0620   C.3       1 RES1   0.0000
   136 C51      -5.7444   -2.2047    2.5890   C.3       1 RES1   0.0000
   137 C52      -6.0938   -0.7290    2.3816   C.3       1 RES1   0.0000
   138 C53      -5.4063   -0.0546    1.1961   C.3       1 RES1   0.0000
   139 C54      -5.8959   -0.5590   -0.1607   C.3       1 RES1   0.0000
   140 C55      -5.3856    0.3077   -1.3070   C.3       1 RES1   0.0000
   141 C56      -0.6156   -1.4985    2.5501   C.2       1 RES1   0.0000
   142 O4       -0.6463   -1.4355    1.3016   O.2       1 RES1   0.0000
   143 C57       0.0236   -0.3060    3.2941   C.3       1 RES1   0.0000
   144 C58      -1.0923    0.5281    3.9457   C.3       1 RES1   0.0000
   145 O5        0.6531    0.5336    2.3164   O.3       1 RES1   0.0000
   146 C59       2.0890    0.5606    2.2470   C.3       1 RES1   0.0000
   147 C60       2.7196    0.8704    3.6069   C.3       1 RES1   0.0000
   148 C61       3.3685   -0.3817    4.2048   C.3       1 RES1   0.0000
   149 C62       2.3942    1.3359    0.9322   C.2       1 RES1   0.0000
   150 O6        1.5058    1.2486    0.0649   O.2       1 RES1   0.0000
   151 N4        3.6041    1.7704    0.5368   N.am      1 RES1   0.0000
   152 C63       4.4202    2.7420    1.2435   C.3       1 RES1   0.0000
   153 C64       3.6403    4.0477    1.4224   C.3       1 RES1   0.0000
   154 C65       4.5070    5.1003    2.1107   C.3       1 RES1   0.0000
   155 C66       3.8298    6.4684    2.2179   C.3       1 RES1   0.0000
   156 C67       2.4982    6.4525    2.9696   C.3       1 RES1   0.0000
   157 C68       2.5574    5.8292    4.3653   C.3       1 RES1   0.0000
   158 C69       3.4893    6.5673    5.3250   C.3       1 RES1   0.0000
   159 C70       3.4353    5.9763    6.7308   C.3       1 RES1   0.0000
   160 C71       3.9501    1.4598   -0.8642   C.3       1 RES1   0.0000
   161 C72       4.3748    2.5409   -1.8514   C.3       1 RES1   0.0000
   162 C73       4.9216    1.8408   -3.1155   C.3       1 RES1   0.0000
   163 C74       6.4516    1.8618   -3.2433   C.3       1 RES1   0.0000
   164 C75       6.9624    3.0824   -4.0197   C.3       1 RES1   0.0000
   165 C76       7.0229    4.3806   -3.2155   C.3       1 RES1   0.0000
   166 C77       8.0717    4.3413   -2.1055   C.3       1 RES1   0.0000
   167 C78       8.1665    5.6619   -1.3527   C.3       1 RES1   0.0000
   168 H79       4.7089   -5.8627   -0.9478   H         1 RES1   0.0000
   169 H80       3.4704   -4.6145   -0.7686   H         1 RES1   0.0000
   170 H81       3.0925   -6.3002   -0.4052   H         1 RES1   0.0000
   171 H82       5.1568   -4.6439    1.1178   H         1 RES1   0.0000
   172 H83       4.6105   -6.2602    1.5435   H         1 RES1   0.0000
   173 H84       2.6775   -3.9166    1.3713   H         1 RES1   0.0000
   174 H85       3.5857   -4.2615    2.8512   H         1 RES1   0.0000
   175 H86       2.4620   -6.3773    3.1241   H         1 RES1   0.0000
   176 H87       1.8444   -6.3387    1.4799   H         1 RES1   0.0000
   177 H88       0.0110   -5.7582    2.8489   H         1 RES1   0.0000
   178 H89       0.5412   -4.2826    2.0438   H         1 RES1   0.0000
   179 H90       1.4579   -3.3869    4.0690   H         1 RES1   0.0000
   180 H91       1.5586   -4.9787    4.8103   H         1 RES1   0.0000
   181 H92      -0.2471   -4.1763    5.9712   H         1 RES1   0.0000
   182 H93      -1.0656   -4.9610    4.6463   H         1 RES1   0.0000
   183 H94      -0.4872   -1.9948    5.0669   H         1 RES1   0.0000
   184 H95      -2.0784   -2.7639    5.0322   H         1 RES1   0.0000
   185 H96      -2.2548   -4.2880    2.9981   H         1 RES1   0.0000
   186 H97      -1.4621   -3.7402    1.5138   H         1 RES1   0.0000
   187 H98      -3.8089   -3.4978    1.2506   H         1 RES1   0.0000
   188 H99      -3.1027   -1.8833    1.3382   H         1 RES1   0.0000
   189 H100     -3.9521   -1.6006    3.6305   H         1 RES1   0.0000
   190 H101     -4.3156   -3.3245    3.7372   H         1 RES1   0.0000
   191 H102     -6.4256   -2.5977    3.3462   H         1 RES1   0.0000
   192 H103     -5.9301   -2.7658    1.6723   H         1 RES1   0.0000
   193 H104     -5.8494   -0.1828    3.2958   H         1 RES1   0.0000
   194 H105     -7.1736   -0.6538    2.2432   H         1 RES1   0.0000
   195 H106     -4.3281   -0.1988    1.2673   H         1 RES1   0.0000
   196 H107     -5.5891    1.0196    1.2555   H         1 RES1   0.0000
   197 H108     -6.9873   -0.5506   -0.1688   H         1 RES1   0.0000
   198 H109     -5.5661   -1.5890   -0.3155   H         1 RES1   0.0000
   199 H110     -5.7506    1.3259   -1.2004   H         1 RES1   0.0000
   200 H111     -5.7321   -0.0840   -2.2612   H         1 RES1   0.0000
   201 H112     -4.2975    0.3351   -1.3139   H         1 RES1   0.0000
   202 H113      0.7460   -0.6226    4.0473   H         1 RES1   0.0000
   203 H114     -1.8501    0.7957    3.2115   H         1 RES1   0.0000
   204 H115     -0.6618    1.4502    4.3316   H         1 RES1   0.0000
   205 H116     -1.5805   -0.0064    4.7570   H         1 RES1   0.0000
   206 H117      2.4044   -0.4572    1.9515   H         1 RES1   0.0000
   207 H118      1.9493    1.2547    4.2759   H         1 RES1   0.0000
   208 H119      3.4728    1.6451    3.5164   H         1 RES1   0.0000
   209 H120      2.6679   -1.2133    4.2602   H         1 RES1   0.0000
   210 H121      4.2072   -0.6947    3.5891   H         1 RES1   0.0000
   211 H122      3.7327   -0.1817    5.2093   H         1 RES1   0.0000
   212 H123      5.3113    2.9198    0.6413   H         1 RES1   0.0000
   213 H124      4.7359    2.3659    2.2147   H         1 RES1   0.0000
   214 H125      2.7405    3.8536    2.0127   H         1 RES1   0.0000
   215 H126      3.3192    4.4110    0.4449   H         1 RES1   0.0000
   216 H127      5.4344    5.2249    1.5476   H         1 RES1   0.0000
   217 H128      4.7788    4.7420    3.1054   H         1 RES1   0.0000
   218 H129      3.6542    6.8624    1.2139   H         1 RES1   0.0000
   219 H130      4.5202    7.1525    2.7139   H         1 RES1   0.0000
   220 H131      1.7547    5.9183    2.3745   H         1 RES1   0.0000
   221 H132      2.1559    7.4837    3.0643   H         1 RES1   0.0000
   222 H133      2.8650    4.7819    4.2993   H         1 RES1   0.0000
   223 H134      1.5500    5.8440    4.7880   H         1 RES1   0.0000
   224 H135      3.1997    7.6192    5.3665   H         1 RES1   0.0000
   225 H136      4.5162    6.5205    4.9565   H         1 RES1   0.0000
   226 H137      2.4280    6.0413    7.1386   H         1 RES1   0.0000
   227 H138      4.1048    6.5181    7.3940   H         1 RES1   0.0000
   228 H139      3.7365    4.9293    6.7221   H         1 RES1   0.0000
   229 H140      3.0867    0.9548   -1.2947   H         1 RES1   0.0000
   230 H141      4.7712    0.7439   -0.7870   H         1 RES1   0.0000
   231 H142      5.1582    3.1715   -1.4362   H         1 RES1   0.0000
   232 H143      3.5268    3.1674   -2.1139   H         1 RES1   0.0000
   233 H144      4.5242    2.3215   -4.0085   H         1 RES1   0.0000
   234 H145      4.5656    0.8040   -3.1272   H         1 RES1   0.0000
   235 H146      6.7757    0.9679   -3.7784   H         1 RES1   0.0000
   236 H147      6.9132    1.8323   -2.2566   H         1 RES1   0.0000
   237 H148      6.3216    3.2329   -4.8906   H         1 RES1   0.0000
   238 H149      7.9612    2.8740   -4.4057   H         1 RES1   0.0000
   239 H150      6.0416    4.6098   -2.7960   H         1 RES1   0.0000
   240 H151      7.2746    5.1907   -3.9027   H         1 RES1   0.0000
   241 H152      9.0418    4.1134   -2.5502   H         1 RES1   0.0000
   242 H153      7.8448    3.5410   -1.3950   H         1 RES1   0.0000
   243 H154      8.4550    6.4639   -2.0259   H         1 RES1   0.0000
   244 H155      8.9148    5.5913   -0.5681   H         1 RES1   0.0000
   245 H156      7.2136    5.9271   -0.8978   H         1 RES1   0.0000
   246 N5       -2.2222    1.4198    0.6534   N.3       1 RES1   0.0000
   247 O7       -3.2091    2.0445    0.8402   O.2       1 RES1   0.0000
   248 O8       -1.1156    1.8184    1.0255   O.co2     1 RES1   0.0000
   249 O9       -2.2674    0.2981    0.1071   O.co2     1 RES1   0.0000
@<TRIPOS>BOND
     1     1    20    1
     2     1    23    1
     3     1    28    1
     4     1   142    1
     5     1   145    1
     6     1   150    1
     7     1   248    1
     8     1   249    1
     9     2     3    1
    10     2    46    1
    11     2    47    1
    12     2    48    1
    13     3     4    1
    14     3    49    1
    15     3    50    1
    16     4     5    1
    17     4    51    1
    18     4    52    1
    19     5     6    1
    20     5    53    1
    21     5    54    1
    22     6     7    1
    23     6    55    1
    24     6    56    1
    25     7     8    1
    26     7    57    1
    27     7    58    1
    28     8     9    1
    29     8    59    1
    30     8    60    1
    31     9    10    1
    32     9    61    1
    33     9    62    1
    34    10    11    1
    35    10    19    1
    36    11    12    1
    37    11    63    1
    38    11    64    1
    39    12    13    1
    40    12    65    1
    41    12    66    1
    42    13    14    1
    43    13    67    1
    44    13    68    1
    45    14    15    1
    46    14    69    1
    47    14    70    1
    48    15    16    1
    49    15    71    1
    50    15    72    1
    51    16    17    1
    52    16    73    1
    53    16    74    1
    54    17    18    1
    55    17    75    1
    56    17    76    1
    57    18    77    1
    58    18    78    1
    59    18    79    1
    60    19    20    2
    61    19    21    1
    62    21    22    1
    63    21    23    1
    64    21    80    1
    65    22    81    1
    66    22    82    1
    67    22    83    1
    68    23    24    1
    69    24    25    1
    70    24    27    1
    71    24    84    1
    72    25    26    1
    73    25    85    1
    74    25    86    1
    75    26    87    1
    76    26    88    1
    77    26    89    1
    78    27    28    2
    79    27    29    1
    80    29    30    1
    81    29    38    1
    82    30    31    1
    83    30    90    1
    84    30    91    1
    85    31    32    1
    86    31    92    1
    87    31    93    1
    88    32    33    1
    89    32    94    1
    90    32    95    1
    91    33    34    1
    92    33    96    1
    93    33    97    1
    94    34    35    1
    95    34    98    1
    96    34    99    1
    97    35    36    1
    98    35   100    1
    99    35   101    1
   100    36    37    1
   101    36   102    1
   102    36   103    1
   103    37   104    1
   104    37   105    1
   105    37   106    1
   106    38    39    1
   107    38   107    1
   108    38   108    1
   109    39    40    1
   110    39   109    1
   111    39   110    1
   112    40    41    1
   113    40   111    1
   114    40   112    1
   115    41    42    1
   116    41   113    1
   117    41   114    1
   118    42    43    1
   119    42   115    1
   120    42   116    1
   121    43    44    1
   122    43   117    1
   123    43   118    1
   124    44    45    1
   125    44   119    1
   126    44   120    1
   127    45   121    1
   128    45   122    1
   129    45   123    1
   130   124   125    1
   131   124   168    1
   132   124   169    1
   133   124   170    1
   134   125   126    1
   135   125   171    1
   136   125   172    1
   137   126   127    1
   138   126   173    1
   139   126   174    1
   140   127   128    1
   141   127   175    1
   142   127   176    1
   143   128   129    1
   144   128   177    1
   145   128   178    1
   146   129   130    1
   147   129   179    1
   148   129   180    1
   149   130   131    1
   150   130   181    1
   151   130   182    1
   152   131   132    1
   153   131   183    1
   154   131   184    1
   155   132   133    1
   156   132   141    1
   157   133   134    1
   158   133   185    1
   159   133   186    1
   160   134   135    1
   161   134   187    1
   162   134   188    1
   163   135   136    1
   164   135   189    1
   165   135   190    1
   166   136   137    1
   167   136   191    1
   168   136   192    1
   169   137   138    1
   170   137   193    1
   171   137   194    1
   172   138   139    1
   173   138   195    1
   174   138   196    1
   175   139   140    1
   176   139   197    1
   177   139   198    1
   178   140   199    1
   179   140   200    1
   180   140   201    1
   181   141   142    2
   182   141   143    1
   183   143   144    1
   184   143   145    1
   185   143   202    1
   186   144   203    1
   187   144   204    1
   188   144   205    1
   189   145   146    1
   190   146   147    1
   191   146   149    1
   192   146   206    1
   193   147   148    1
   194   147   207    1
   195   147   208    1
   196   148   209    1
   197   148   210    1
   198   148   211    1
   199   149   150    2
   200   149   151    1
   201   151   152    1
   202   151   160    1
   203   152   153    1
   204   152   212    1
   205   152   213    1
   206   153   154    1
   207   153   214    1
   208   153   215    1
   209   154   155    1
   210   154   216    1
   211   154   217    1
   212   155   156    1
   213   155   218    1
   214   155   219    1
   215   156   157    1
   216   156   220    1
   217   156   221    1
   218   157   158    1
   219   157   222    1
   220   157   223    1
   221   158   159    1
   222   158   224    1
   223   158   225    1
   224   159   226    1
   225   159   227    1
   226   159   228    1
   227   160   161    1
   228   160   229    1
   229   160   230    1
   230   161   162    1
   231   161   231    1
   232   161   232    1
   233   162   163    1
   234   162   233    1
   235   162   234    1
   236   163   164    1
   237   163   235    1
   238   163   236    1
   239   164   165    1
   240   164   237    1
   241   164   238    1
   242   165   166    1
   243   165   239    1
   244   165   240    1
   245   166   167    1
   246   166   241    1
   247   166   242    1
   248   167   243    1
   249   167   244    1
   250   167   245    1
   251   246   247    2
   252   246   248    1
   253   246   249    1
@<TRIPOS>SUBSTRUCTURE
     1 RES1      249 GROUP             0 ****  ****    0  
