@<TRIPOS>MOLECULE
ICIGOT_geomtry_0_nunpairedes_0_charge_2 Charge: 2 Unpaired_Electrons: 0 XTB_Unpaired_Electrons: 0 XTB_Charge: 2
    87    91     1     0     0
SMALL
NoCharges
****
Generated from Architector

@<TRIPOS>ATOM
     1 Lu1      -0.0403   -0.1874    0.2042   Lu        1 RES1   0.0000
     2 C1       -5.4339    1.9373    2.6258   C.3       1 RES1   0.0000
     3 C2       -5.1120    0.7405    1.7349   C.3       1 RES1   0.0000
     4 N1       -3.7993    0.1729    2.0064   N.am      1 RES1   0.0000
     5 C3       -3.6819   -0.9386    2.9497   C.3       1 RES1   0.0000
     6 C4       -3.0303   -0.4936    4.2547   C.3       1 RES1   0.0000
     7 C5       -2.6891    0.6603    1.4873   C.2       1 RES1   0.0000
     8 O1       -1.5651    0.1624    1.7245   O.2       1 RES1   0.0000
     9 C6       -2.7638    1.8611    0.5323   C.3       1 RES1   0.0000
    10 O2       -1.4570    2.1494    0.0573   O.3       1 RES1   0.0000
    11 C7       -0.7816    3.2855    0.5885   C.3       1 RES1   0.0000
    12 C8        0.5627    2.8270    1.1580   C.2       1 RES1   0.0000
    13 O3        0.8631    1.6180    1.0517   O.2       1 RES1   0.0000
    14 N2        1.3595    3.6968    1.7528   N.am      1 RES1   0.0000
    15 C9        2.5678    3.2062    2.4173   C.3       1 RES1   0.0000
    16 C10       2.2779    2.7952    3.8573   C.3       1 RES1   0.0000
    17 C11       1.2061    5.1387    1.6225   C.3       1 RES1   0.0000
    18 C12       1.9473    5.6224    0.3766   C.3       1 RES1   0.0000
    19 H1       -6.3617    2.3931    2.2958   H         1 RES1   0.0000
    20 H2       -4.6483    2.6843    2.5886   H         1 RES1   0.0000
    21 H3       -5.5566    1.6261    3.6570   H         1 RES1   0.0000
    22 H4       -5.1611    1.0268    0.6808   H         1 RES1   0.0000
    23 H5       -5.8590   -0.0386    1.8978   H         1 RES1   0.0000
    24 H6       -3.0761   -1.7173    2.4818   H         1 RES1   0.0000
    25 H7       -4.6847   -1.3193    3.1295   H         1 RES1   0.0000
    26 H8       -1.9817   -0.2432    4.0982   H         1 RES1   0.0000
    27 H9       -3.0892   -1.2969    4.9835   H         1 RES1   0.0000
    28 H10      -3.5456    0.3777    4.6540   H         1 RES1   0.0000
    29 H11      -3.2184    2.7367    1.0020   H         1 RES1   0.0000
    30 H12      -3.3676    1.6008   -0.3495   H         1 RES1   0.0000
    31 H13      -1.3690    3.7651    1.3767   H         1 RES1   0.0000
    32 H14      -0.6252    3.9840   -0.2441   H         1 RES1   0.0000
    33 H15       3.3100    4.0040    2.4025   H         1 RES1   0.0000
    34 H16       2.9398    2.3538    1.8478   H         1 RES1   0.0000
    35 H17       1.8003    3.6053    4.4023   H         1 RES1   0.0000
    36 H18       3.2069    2.5566    4.3673   H         1 RES1   0.0000
    37 H19       1.6299    1.9222    3.8874   H         1 RES1   0.0000
    38 H20       1.6218    5.6102    2.5153   H         1 RES1   0.0000
    39 H21       0.1491    5.3980    1.5713   H         1 RES1   0.0000
    40 H22       3.0172    5.4689    0.4766   H         1 RES1   0.0000
    41 H23       1.7839    6.6831    0.2202   H         1 RES1   0.0000
    42 H24       1.5948    5.0872   -0.5015   H         1 RES1   0.0000
    43 C13       5.9632   -1.2052   -1.5205   C.3       1 RES1   0.0000
    44 C14       5.2834    0.0258   -0.9297   C.3       1 RES1   0.0000
    45 N3        4.2607   -0.2812    0.0614   N.am      1 RES1   0.0000
    46 C15       4.6057   -0.3287    1.4836   C.3       1 RES1   0.0000
    47 C16       4.6058   -1.7591    2.0123   C.3       1 RES1   0.0000
    48 C17       2.9982   -0.5176   -0.2579   C.2       1 RES1   0.0000
    49 O4        2.1068   -0.6554    0.5991   O.2       1 RES1   0.0000
    50 C18       2.5777   -0.6047   -1.7306   C.3       1 RES1   0.0000
    51 O5        1.2548   -1.1255   -1.7892   O.3       1 RES1   0.0000
    52 C19       1.0766   -2.5281   -1.9860   C.3       1 RES1   0.0000
    53 C20       0.2127   -3.0604   -0.8309   C.2       1 RES1   0.0000
    54 O6        0.1260   -2.3800    0.2147   O.2       1 RES1   0.0000
    55 N4       -0.4235   -4.2068   -0.9593   N.am      1 RES1   0.0000
    56 C21      -1.2363   -4.6383    0.1754   C.3       1 RES1   0.0000
    57 C22      -0.3594   -5.2255    1.2755   C.3       1 RES1   0.0000
    58 C23      -0.4662   -4.9930   -2.1818   C.3       1 RES1   0.0000
    59 C24      -1.6770   -4.6091   -3.0303   C.3       1 RES1   0.0000
    60 H25       6.6991   -0.8880   -2.2526   H         1 RES1   0.0000
    61 H26       5.2535   -1.8601   -2.0151   H         1 RES1   0.0000
    62 H27       6.4752   -1.7717   -0.7506   H         1 RES1   0.0000
    63 H28       4.8342    0.6302   -1.7227   H         1 RES1   0.0000
    64 H29       6.0376    0.6427   -0.4386   H         1 RES1   0.0000
    65 H30       3.8582    0.2533    2.0291   H         1 RES1   0.0000
    66 H31       5.5837    0.1292    1.6110   H         1 RES1   0.0000
    67 H32       3.6043   -2.1821    1.9615   H         1 RES1   0.0000
    68 H33       4.9314   -1.7614    3.0492   H         1 RES1   0.0000
    69 H34       5.2845   -2.3822    1.4350   H         1 RES1   0.0000
    70 H35       3.2652   -1.1977   -2.3386   H         1 RES1   0.0000
    71 H36       2.4929    0.4104   -2.1453   H         1 RES1   0.0000
    72 H37       2.0330   -3.0605   -2.0086   H         1 RES1   0.0000
    73 H38       0.5730   -2.6397   -2.9563   H         1 RES1   0.0000
    74 H39      -1.9571   -5.3692   -0.1850   H         1 RES1   0.0000
    75 H40      -1.7642   -3.7563    0.5471   H         1 RES1   0.0000
    76 H41       0.2597   -6.0277    0.8810   H         1 RES1   0.0000
    77 H42      -0.9801   -5.6278    2.0702   H         1 RES1   0.0000
    78 H43       0.2885   -4.4604    1.6975   H         1 RES1   0.0000
    79 H44      -0.5242   -6.0464   -1.8990   H         1 RES1   0.0000
    80 H45       0.4614   -4.8490   -2.7357   H         1 RES1   0.0000
    81 H46      -2.5995   -4.8876   -2.5315   H         1 RES1   0.0000
    82 H47      -1.6453   -5.1231   -3.9848   H         1 RES1   0.0000
    83 H48      -1.6978   -3.5390   -3.2205   H         1 RES1   0.0000
    84 N5       -1.4227   -0.0117   -1.7586   N.3       1 RES1   0.0000
    85 O7       -2.1229    0.0494   -2.7107   O.2       1 RES1   0.0000
    86 O8       -1.7070   -0.7657   -0.8030   O.co2     1 RES1   0.0000
    87 O9       -0.3891    0.6607   -1.6453   O.co2     1 RES1   0.0000
@<TRIPOS>BOND
     1     1     8    1
     2     1    10    1
     3     1    13    1
     4     1    49    1
     5     1    51    1
     6     1    54    1
     7     1    86    1
     8     1    87    1
     9     2     3    1
    10     2    19    1
    11     2    20    1
    12     2    21    1
    13     3     4    1
    14     3    22    1
    15     3    23    1
    16     4     5    1
    17     4     7    1
    18     5     6    1
    19     5    24    1
    20     5    25    1
    21     6    26    1
    22     6    27    1
    23     6    28    1
    24     7     8    2
    25     7     9    1
    26     9    10    1
    27     9    29    1
    28     9    30    1
    29    10    11    1
    30    11    12    1
    31    11    31    1
    32    11    32    1
    33    12    13    2
    34    12    14    1
    35    14    15    1
    36    14    17    1
    37    15    16    1
    38    15    33    1
    39    15    34    1
    40    16    35    1
    41    16    36    1
    42    16    37    1
    43    17    18    1
    44    17    38    1
    45    17    39    1
    46    18    40    1
    47    18    41    1
    48    18    42    1
    49    43    44    1
    50    43    60    1
    51    43    61    1
    52    43    62    1
    53    44    45    1
    54    44    63    1
    55    44    64    1
    56    45    46    1
    57    45    48    1
    58    46    47    1
    59    46    65    1
    60    46    66    1
    61    47    67    1
    62    47    68    1
    63    47    69    1
    64    48    49    2
    65    48    50    1
    66    50    51    1
    67    50    70    1
    68    50    71    1
    69    51    52    1
    70    52    53    1
    71    52    72    1
    72    52    73    1
    73    53    54    2
    74    53    55    1
    75    55    56    1
    76    55    58    1
    77    56    57    1
    78    56    74    1
    79    56    75    1
    80    57    76    1
    81    57    77    1
    82    57    78    1
    83    58    59    1
    84    58    79    1
    85    58    80    1
    86    59    81    1
    87    59    82    1
    88    59    83    1
    89    84    85    2
    90    84    86    1
    91    84    87    1
@<TRIPOS>SUBSTRUCTURE
     1 RES1       87 GROUP             0 ****  ****    0  
