@<TRIPOS>MOLECULE
ICIGOT_geomtry_0_nunpairedes_0_charge_3 Charge: 3 Unpaired_Electrons: 0 XTB_Unpaired_Electrons: 0 XTB_Charge: 3
   173   176     1     0     0
SMALL
NoCharges
****
Generated from Architector

@<TRIPOS>ATOM
     1 Lu1      -0.1289   -0.0847    0.1152   Lu        1 RES1   0.0000
     2 C1        1.7896   -3.4774   -4.1214   C.3       1 RES1   0.0000
     3 C2        1.7705   -4.1832   -2.7654   C.3       1 RES1   0.0000
     4 C3        0.6826   -5.2484   -2.5789   C.3       1 RES1   0.0000
     5 C4       -0.7873   -4.8077   -2.5983   C.3       1 RES1   0.0000
     6 C5       -1.4384   -4.7588   -3.9836   C.3       1 RES1   0.0000
     7 C6       -2.8084   -4.0639   -3.9449   C.3       1 RES1   0.0000
     8 C7       -2.6720   -2.5517   -4.1799   C.3       1 RES1   0.0000
     9 C8       -3.7457   -1.6903   -3.4934   C.3       1 RES1   0.0000
    10 N1       -3.4329   -1.4741   -2.0870   N.am      1 RES1   0.0000
    11 C9       -4.2370   -2.1329   -1.0530   C.3       1 RES1   0.0000
    12 C10      -3.5444   -3.2170   -0.2250   C.3       1 RES1   0.0000
    13 C11      -4.5544   -3.8365    0.7407   C.3       1 RES1   0.0000
    14 C12      -2.4577   -0.6735   -1.7114   C.2       1 RES1   0.0000
    15 O1       -2.0757   -0.6240   -0.5174   O.2       1 RES1   0.0000
    16 C13      -1.8091    0.3019   -2.7050   C.3       1 RES1   0.0000
    17 O2       -0.5340    0.7599   -2.2196   O.3       1 RES1   0.0000
    18 C14      -0.2865    2.1607   -2.3333   C.3       1 RES1   0.0000
    19 C15      -0.6615    2.8245   -0.9970   C.2       1 RES1   0.0000
    20 O3       -1.0204    2.0381   -0.0850   O.2       1 RES1   0.0000
    21 N2       -0.5947    4.1291   -0.8298   N.am      1 RES1   0.0000
    22 C16      -1.2974    4.7229    0.3053   C.3       1 RES1   0.0000
    23 C17      -2.6180    5.3632   -0.1373   C.3       1 RES1   0.0000
    24 C18      -3.5955    4.3799   -0.7726   C.3       1 RES1   0.0000
    25 C19       0.0439    5.0461   -1.7600   C.3       1 RES1   0.0000
    26 C20       1.1626    5.8779   -1.1075   C.3       1 RES1   0.0000
    27 C21       2.3389    5.0840   -0.5239   C.3       1 RES1   0.0000
    28 C22       3.3319    6.0480    0.1400   C.3       1 RES1   0.0000
    29 C23       4.7228    5.4889    0.4548   C.3       1 RES1   0.0000
    30 C24       4.8411    4.4138    1.5361   C.3       1 RES1   0.0000
    31 C25       4.1941    4.7455    2.8782   C.3       1 RES1   0.0000
    32 C26       4.5796    3.7210    3.9439   C.3       1 RES1   0.0000
    33 H1        2.6443   -2.8053   -4.1961   H         1 RES1   0.0000
    34 H2        1.8822   -4.2159   -4.9137   H         1 RES1   0.0000
    35 H3        0.8927   -2.8958   -4.3151   H         1 RES1   0.0000
    36 H4        2.7299   -4.6910   -2.6608   H         1 RES1   0.0000
    37 H5        1.7190   -3.4694   -1.9351   H         1 RES1   0.0000
    38 H6        0.8091   -6.0070   -3.3483   H         1 RES1   0.0000
    39 H7        0.8798   -5.7263   -1.6166   H         1 RES1   0.0000
    40 H8       -1.3544   -5.5265   -2.0058   H         1 RES1   0.0000
    41 H9       -0.9330   -3.8495   -2.0819   H         1 RES1   0.0000
    42 H10      -0.8024   -4.2503   -4.7063   H         1 RES1   0.0000
    43 H11      -1.5589   -5.7840   -4.3278   H         1 RES1   0.0000
    44 H12      -3.4609   -4.4724   -4.7139   H         1 RES1   0.0000
    45 H13      -3.2872   -4.2639   -2.9859   H         1 RES1   0.0000
    46 H14      -1.6872   -2.2365   -3.8284   H         1 RES1   0.0000
    47 H15      -2.7199   -2.3603   -5.2528   H         1 RES1   0.0000
    48 H16      -3.8343   -0.7161   -3.9807   H         1 RES1   0.0000
    49 H17      -4.7098   -2.1902   -3.5649   H         1 RES1   0.0000
    50 H18      -4.5943   -1.3585   -0.3697   H         1 RES1   0.0000
    51 H19      -5.1011   -2.5752   -1.5435   H         1 RES1   0.0000
    52 H20      -3.1626   -3.9981   -0.8796   H         1 RES1   0.0000
    53 H21      -2.7000   -2.7993    0.3328   H         1 RES1   0.0000
    54 H22      -5.3747   -4.2937    0.1922   H         1 RES1   0.0000
    55 H23      -4.0852   -4.6125    1.3409   H         1 RES1   0.0000
    56 H24      -4.9736   -3.0871    1.4095   H         1 RES1   0.0000
    57 H25      -1.6603   -0.1551   -3.6839   H         1 RES1   0.0000
    58 H26      -2.5005    1.1421   -2.8068   H         1 RES1   0.0000
    59 H27       0.7822    2.2700   -2.5467   H         1 RES1   0.0000
    60 H28      -0.8401    2.5972   -3.1674   H         1 RES1   0.0000
    61 H29      -1.5066    3.9270    1.0195   H         1 RES1   0.0000
    62 H30      -0.6528    5.4699    0.7642   H         1 RES1   0.0000
    63 H31      -3.0910    5.8004    0.7408   H         1 RES1   0.0000
    64 H32      -2.4202    6.1766   -0.8334   H         1 RES1   0.0000
    65 H33      -3.8452    3.5721   -0.0875   H         1 RES1   0.0000
    66 H34      -4.5180    4.8957   -1.0283   H         1 RES1   0.0000
    67 H35      -3.1931    3.9482   -1.6884   H         1 RES1   0.0000
    68 H36       0.4592    4.4837   -2.5946   H         1 RES1   0.0000
    69 H37      -0.7111    5.7296   -2.1589   H         1 RES1   0.0000
    70 H38       1.5447    6.5322   -1.8925   H         1 RES1   0.0000
    71 H39       0.7462    6.5175   -0.3285   H         1 RES1   0.0000
    72 H40       1.9744    4.3570    0.2070   H         1 RES1   0.0000
    73 H41       2.8459    4.5455   -1.3308   H         1 RES1   0.0000
    74 H42       3.4868    6.8827   -0.5451   H         1 RES1   0.0000
    75 H43       2.8784    6.4542    1.0438   H         1 RES1   0.0000
    76 H44       5.1658    5.0973   -0.4646   H         1 RES1   0.0000
    77 H45       5.3345    6.3336    0.7684   H         1 RES1   0.0000
    78 H46       4.4289    3.4680    1.1735   H         1 RES1   0.0000
    79 H47       5.9046    4.2412    1.7066   H         1 RES1   0.0000
    80 H48       4.5287    5.7267    3.2091   H         1 RES1   0.0000
    81 H49       3.1060    4.7797    2.7731   H         1 RES1   0.0000
    82 H50       5.6481    3.7577    4.1416   H         1 RES1   0.0000
    83 H51       4.0609    3.9191    4.8792   H         1 RES1   0.0000
    84 H52       4.3402    2.7048    3.6216   H         1 RES1   0.0000
    85 C27      -2.8662    4.7248    3.7769   C.3       1 RES1   0.0000
    86 C28      -3.6921    3.5473    3.2704   C.3       1 RES1   0.0000
    87 C29      -3.8647    2.4154    4.2848   C.3       1 RES1   0.0000
    88 C30      -2.5695    1.7009    4.6827   C.3       1 RES1   0.0000
    89 C31      -1.8871    2.2991    5.9138   C.3       1 RES1   0.0000
    90 C32      -0.5435    1.6247    6.2029   C.3       1 RES1   0.0000
    91 C33       0.5416    2.1032    5.2280   C.3       1 RES1   0.0000
    92 C34       1.6642    1.0775    4.9956   C.3       1 RES1   0.0000
    93 N3        1.2841    0.0167    4.0661   N.am      1 RES1   0.0000
    94 C35       0.9756   -1.3237    4.5770   C.3       1 RES1   0.0000
    95 C36      -0.4685   -1.7864    4.3795   C.3       1 RES1   0.0000
    96 C37      -0.6701   -3.1339    5.0692   C.3       1 RES1   0.0000
    97 C38       1.2301    0.2172    2.7639   C.2       1 RES1   0.0000
    98 O4        0.8035   -0.6446    1.9583   O.2       1 RES1   0.0000
    99 C39       1.7338    1.5500    2.1893   C.3       1 RES1   0.0000
   100 O5        1.5081    1.6409    0.7748   O.3       1 RES1   0.0000
   101 C40       2.6648    1.6837   -0.0670   C.3       1 RES1   0.0000
   102 C41       2.9417    0.3143   -0.6904   C.2       1 RES1   0.0000
   103 O6        2.0690   -0.5642   -0.4935   O.2       1 RES1   0.0000
   104 N4        4.0148    0.1144   -1.4288   N.am      1 RES1   0.0000
   105 C42       4.3572   -1.2529   -1.8222   C.3       1 RES1   0.0000
   106 C43       5.6862   -1.7139   -1.2197   C.3       1 RES1   0.0000
   107 C44       5.6717   -1.7026    0.3045   C.3       1 RES1   0.0000
   108 C45       4.8461    1.1736   -1.9839   C.3       1 RES1   0.0000
   109 C46       4.6448    1.3182   -3.5042   C.3       1 RES1   0.0000
   110 C47       3.1981    1.5958   -3.9183   C.3       1 RES1   0.0000
   111 C48       3.0831    1.7734   -5.4349   C.3       1 RES1   0.0000
   112 C49       1.6778    2.1496   -5.9044   C.3       1 RES1   0.0000
   113 C50       0.6280    1.0504   -5.7423   C.3       1 RES1   0.0000
   114 C51       0.8779   -0.1657   -6.6323   C.3       1 RES1   0.0000
   115 C52      -0.2732   -1.1603   -6.5489   C.3       1 RES1   0.0000
   116 H53      -2.9219    5.5614    3.0836   H         1 RES1   0.0000
   117 H54      -3.2487    5.0683    4.7335   H         1 RES1   0.0000
   118 H55      -1.8199    4.4555    3.9001   H         1 RES1   0.0000
   119 H56      -4.6852    3.9166    3.0109   H         1 RES1   0.0000
   120 H57      -3.2400    3.1473    2.3527   H         1 RES1   0.0000
   121 H58      -4.3420    2.8081    5.1806   H         1 RES1   0.0000
   122 H59      -4.5561    1.6903    3.8506   H         1 RES1   0.0000
   123 H60      -2.8080    0.6628    4.9242   H         1 RES1   0.0000
   124 H61      -1.8778    1.6981    3.8345   H         1 RES1   0.0000
   125 H62      -1.7291    3.3686    5.7927   H         1 RES1   0.0000
   126 H63      -2.5448    2.1635    6.7702   H         1 RES1   0.0000
   127 H64      -0.2268    1.8496    7.2209   H         1 RES1   0.0000
   128 H65      -0.6650    0.5437    6.1350   H         1 RES1   0.0000
   129 H66       0.0648    2.3565    4.2789   H         1 RES1   0.0000
   130 H67       0.9948    3.0123    5.6266   H         1 RES1   0.0000
   131 H68       2.5653    1.5757    4.6269   H         1 RES1   0.0000
   132 H69       1.9129    0.6215    5.9524   H         1 RES1   0.0000
   133 H70       1.6277   -2.0469    4.0801   H         1 RES1   0.0000
   134 H71       1.2055   -1.3413    5.6397   H         1 RES1   0.0000
   135 H72      -1.1527   -1.0527    4.8047   H         1 RES1   0.0000
   136 H73      -0.6766   -1.8890    3.3111   H         1 RES1   0.0000
   137 H74      -0.4617   -3.0558    6.1334   H         1 RES1   0.0000
   138 H75      -1.6949   -3.4798    4.9547   H         1 RES1   0.0000
   139 H76      -0.0040   -3.8827    4.6466   H         1 RES1   0.0000
   140 H77       1.1898    2.3734    2.6607   H         1 RES1   0.0000
   141 H78       2.7954    1.6619    2.4171   H         1 RES1   0.0000
   142 H79       2.4426    2.3983   -0.8647   H         1 RES1   0.0000
   143 H80       3.5342    2.0541    0.4822   H         1 RES1   0.0000
   144 H81       3.5691   -1.9061   -1.4481   H         1 RES1   0.0000
   145 H82       4.4005   -1.3001   -2.9099   H         1 RES1   0.0000
   146 H83       5.8741   -2.7305   -1.5646   H         1 RES1   0.0000
   147 H84       6.5033   -1.0958   -1.5877   H         1 RES1   0.0000
   148 H85       4.8836   -2.3455    0.6916   H         1 RES1   0.0000
   149 H86       6.6206   -2.0679    0.6878   H         1 RES1   0.0000
   150 H87       5.5186   -0.6956    0.6898   H         1 RES1   0.0000
   151 H88       4.6173    2.1229   -1.5014   H         1 RES1   0.0000
   152 H89       5.8946    0.9424   -1.7860   H         1 RES1   0.0000
   153 H90       5.2739    2.1483   -3.8290   H         1 RES1   0.0000
   154 H91       5.0032    0.4257   -4.0192   H         1 RES1   0.0000
   155 H92       2.5561    0.7733   -3.5855   H         1 RES1   0.0000
   156 H93       2.8588    2.5156   -3.4296   H         1 RES1   0.0000
   157 H94       3.7675    2.5654   -5.7398   H         1 RES1   0.0000
   158 H95       3.4099    0.8605   -5.9305   H         1 RES1   0.0000
   159 H96       1.3517    3.0434   -5.3645   H         1 RES1   0.0000
   160 H97       1.7323    2.4106   -6.9605   H         1 RES1   0.0000
   161 H98       0.5762    0.7249   -4.6982   H         1 RES1   0.0000
   162 H99      -0.3439    1.4698   -6.0113   H         1 RES1   0.0000
   163 H100      0.9944    0.1567   -7.6655   H         1 RES1   0.0000
   164 H101      1.7999   -0.6675   -6.3373   H         1 RES1   0.0000
   165 H102     -1.2019   -0.7097   -6.8924   H         1 RES1   0.0000
   166 H103     -0.0738   -2.0333   -7.1637   H         1 RES1   0.0000
   167 H104     -0.4085   -1.4930   -5.5209   H         1 RES1   0.0000
   168 O7       -1.8012    0.1813    1.9296   O.3       1 RES1   0.0000
   169 H105     -2.4725    0.8394    1.6923   H         1 RES1   0.0000
   170 H106     -2.2925   -0.5050    2.4049   H         1 RES1   0.0000
   171 O8        0.1539   -1.6664   -1.8520   O.3       1 RES1   0.0000
   172 H107     -0.1739   -2.5657   -2.0593   H         1 RES1   0.0000
   173 H108      1.0393   -1.6752   -2.2524   H         1 RES1   0.0000
@<TRIPOS>BOND
     1     1    15    1
     2     1    17    1
     3     1    20    1
     4     1    98    1
     5     1   100    1
     6     1   103    1
     7     1   168    1
     8     1   171    1
     9     2     3    1
    10     2    33    1
    11     2    34    1
    12     2    35    1
    13     3     4    1
    14     3    36    1
    15     3    37    1
    16     4     5    1
    17     4    38    1
    18     4    39    1
    19     5     6    1
    20     5    40    1
    21     5    41    1
    22     6     7    1
    23     6    42    1
    24     6    43    1
    25     7     8    1
    26     7    44    1
    27     7    45    1
    28     8     9    1
    29     8    46    1
    30     8    47    1
    31     9    10    1
    32     9    48    1
    33     9    49    1
    34    10    11    1
    35    10    14    1
    36    11    12    1
    37    11    50    1
    38    11    51    1
    39    12    13    1
    40    12    52    1
    41    12    53    1
    42    13    54    1
    43    13    55    1
    44    13    56    1
    45    14    15    2
    46    14    16    1
    47    16    17    1
    48    16    57    1
    49    16    58    1
    50    17    18    1
    51    18    19    1
    52    18    59    1
    53    18    60    1
    54    19    20    2
    55    19    21    1
    56    21    22    1
    57    21    25    1
    58    22    23    1
    59    22    61    1
    60    22    62    1
    61    23    24    1
    62    23    63    1
    63    23    64    1
    64    24    65    1
    65    24    66    1
    66    24    67    1
    67    25    26    1
    68    25    68    1
    69    25    69    1
    70    26    27    1
    71    26    70    1
    72    26    71    1
    73    27    28    1
    74    27    72    1
    75    27    73    1
    76    28    29    1
    77    28    74    1
    78    28    75    1
    79    29    30    1
    80    29    76    1
    81    29    77    1
    82    30    31    1
    83    30    78    1
    84    30    79    1
    85    31    32    1
    86    31    80    1
    87    31    81    1
    88    32    82    1
    89    32    83    1
    90    32    84    1
    91    85    86    1
    92    85   116    1
    93    85   117    1
    94    85   118    1
    95    86    87    1
    96    86   119    1
    97    86   120    1
    98    87    88    1
    99    87   121    1
   100    87   122    1
   101    88    89    1
   102    88   123    1
   103    88   124    1
   104    89    90    1
   105    89   125    1
   106    89   126    1
   107    90    91    1
   108    90   127    1
   109    90   128    1
   110    91    92    1
   111    91   129    1
   112    91   130    1
   113    92    93    1
   114    92   131    1
   115    92   132    1
   116    93    94    1
   117    93    97    1
   118    94    95    1
   119    94   133    1
   120    94   134    1
   121    95    96    1
   122    95   135    1
   123    95   136    1
   124    96   137    1
   125    96   138    1
   126    96   139    1
   127    97    98    2
   128    97    99    1
   129    99   100    1
   130    99   140    1
   131    99   141    1
   132   100   101    1
   133   101   102    1
   134   101   142    1
   135   101   143    1
   136   102   103    2
   137   102   104    1
   138   104   105    1
   139   104   108    1
   140   105   106    1
   141   105   144    1
   142   105   145    1
   143   106   107    1
   144   106   146    1
   145   106   147    1
   146   107   148    1
   147   107   149    1
   148   107   150    1
   149   108   109    1
   150   108   151    1
   151   108   152    1
   152   109   110    1
   153   109   153    1
   154   109   154    1
   155   110   111    1
   156   110   155    1
   157   110   156    1
   158   111   112    1
   159   111   157    1
   160   111   158    1
   161   112   113    1
   162   112   159    1
   163   112   160    1
   164   113   114    1
   165   113   161    1
   166   113   162    1
   167   114   115    1
   168   114   163    1
   169   114   164    1
   170   115   165    1
   171   115   166    1
   172   115   167    1
   173   168   169    1
   174   168   170    1
   175   171   172    1
   176   171   173    1
@<TRIPOS>SUBSTRUCTURE
     1 RES1      173 GROUP             0 ****  ****    0  
