@<TRIPOS>MOLECULE
bicapped_trigonal_prismatic_0_nunpairedes_0_charge_3 Charge: 3 Unpaired_Electrons: 0 XTB_Unpaired_Electrons: 0 XTB_Charge: 3
   253   264     1     0     0
SMALL
NoCharges
****
Generated from Architector

@<TRIPOS>ATOM
     1 Lu1      -0.1151   -0.1375    0.1457   Lu        1 RES1   0.0000
     2 C1        5.3917    5.5070    1.5958   C.3       1 RES1   0.0000
     3 C2        4.6763    4.3686    2.3128   C.3       1 RES1   0.0000
     4 C3        4.8023    3.0191    1.5985   C.3       1 RES1   0.0000
     5 C4        6.2101    2.4197    1.6532   C.3       1 RES1   0.0000
     6 C5        6.2594    0.9479    1.2270   C.3       1 RES1   0.0000
     7 C6        5.7119    0.7680   -0.1872   C.3       1 RES1   0.0000
     8 C7        5.7937   -0.6551   -0.7387   C.3       1 RES1   0.0000
     9 C8        5.0227   -0.7940   -2.0629   C.3       1 RES1   0.0000
    10 N1        3.6760   -0.2443   -2.0136   N.am      1 RES1   0.0000
    11 C9        3.3810    0.8677   -2.9182   C.3       1 RES1   0.0000
    12 C10       3.9784    2.2300   -2.5645   C.3       1 RES1   0.0000
    13 C11       3.3473    3.3580   -3.3928   C.3       1 RES1   0.0000
    14 C12       2.0618    3.9276   -2.7865   C.3       1 RES1   0.0000
    15 C13       2.2637    4.4701   -1.3676   C.3       1 RES1   0.0000
    16 C14       1.3079    5.6067   -1.0142   C.3       1 RES1   0.0000
    17 C15       1.4766    6.0489    0.4394   C.3       1 RES1   0.0000
    18 C16       0.4895    7.1476    0.8154   C.3       1 RES1   0.0000
    19 C17       2.7243   -0.5573   -1.1323   C.2       1 RES1   0.0000
    20 O1        1.7913    0.2590   -0.9232   O.2       1 RES1   0.0000
    21 C18       2.5499   -1.9140   -0.4729   C.ar      1 RES1   0.0000
    22 C19       3.4096   -3.0263   -0.4219   C.ar      1 RES1   0.0000
    23 C20       2.9906   -4.1726    0.2251   C.ar      1 RES1   0.0000
    24 C21       1.6984   -4.2594    0.7721   C.ar      1 RES1   0.0000
    25 C22       1.1692   -5.4175    1.4146   C.ar      1 RES1   0.0000
    26 C23      -0.1249   -5.4610    1.8214   C.ar      1 RES1   0.0000
    27 C24      -1.0000   -4.3474    1.6494   C.ar      1 RES1   0.0000
    28 C25      -2.3645   -4.3544    1.9866   C.ar      1 RES1   0.0000
    29 C26      -3.1447   -3.2399    1.7638   C.ar      1 RES1   0.0000
    30 C27      -2.5456   -2.0832    1.2437   C.ar      1 RES1   0.0000
    31 C28      -3.2005   -0.8025    0.7991   C.2       1 RES1   0.0000
    32 O2       -2.4063    0.0674    0.3627   O.2       1 RES1   0.0000
    33 N2       -4.5198   -0.6024    0.6860   N.am      1 RES1   0.0000
    34 C29      -5.5799   -1.0095    1.6065   C.3       1 RES1   0.0000
    35 C30      -6.8605   -1.5662    0.9646   C.3       1 RES1   0.0000
    36 C31      -6.8376   -3.0477    0.5879   C.3       1 RES1   0.0000
    37 C32      -5.9271   -3.3265   -0.6030   C.3       1 RES1   0.0000
    38 C33      -5.7414   -4.8101   -0.9090   C.3       1 RES1   0.0000
    39 C34      -5.0090   -5.0078   -2.2388   C.3       1 RES1   0.0000
    40 C35      -5.8990   -4.7259   -3.4504   C.3       1 RES1   0.0000
    41 C36      -5.2304   -5.1358   -4.7562   C.3       1 RES1   0.0000
    42 C37      -4.9042    0.4931   -0.2052   C.3       1 RES1   0.0000
    43 C38      -4.7341    0.1008   -1.6801   C.3       1 RES1   0.0000
    44 C39      -5.9076    0.5811   -2.5318   C.3       1 RES1   0.0000
    45 C40      -5.9189   -0.0127   -3.9405   C.3       1 RES1   0.0000
    46 C41      -4.8156    0.4128   -4.9099   C.3       1 RES1   0.0000
    47 C42      -4.9357    1.8272   -5.4854   C.3       1 RES1   0.0000
    48 C43      -4.1063    2.0418   -6.7726   C.3       1 RES1   0.0000
    49 C44      -2.9836    3.0853   -6.7074   C.3       1 RES1   0.0000
    50 N3       -1.2491   -2.0646    0.9306   N.ar      1 RES1   0.0000
    51 C45      -0.4933   -3.1565    1.0826   C.ar      1 RES1   0.0000
    52 C46       0.8790   -3.1195    0.6233   C.ar      1 RES1   0.0000
    53 N4        1.3244   -2.0007    0.0434   N.ar      1 RES1   0.0000
    54 H1        5.2247    6.4407    2.1274   H         1 RES1   0.0000
    55 H2        5.0146    5.6208    0.5814   H         1 RES1   0.0000
    56 H3        6.4616    5.3320    1.5487   H         1 RES1   0.0000
    57 H4        3.6135    4.6256    2.3806   H         1 RES1   0.0000
    58 H5        5.0611    4.2878    3.3315   H         1 RES1   0.0000
    59 H6        4.4981    3.1634    0.5594   H         1 RES1   0.0000
    60 H7        4.0968    2.3139    2.0542   H         1 RES1   0.0000
    61 H8        6.5949    2.5020    2.6712   H         1 RES1   0.0000
    62 H9        6.8695    2.9919    1.0005   H         1 RES1   0.0000
    63 H10       5.6742    0.3338    1.9179   H         1 RES1   0.0000
    64 H11       7.2928    0.6054    1.2735   H         1 RES1   0.0000
    65 H12       6.2472    1.4480   -0.8502   H         1 RES1   0.0000
    66 H13       4.6615    1.0569   -0.1631   H         1 RES1   0.0000
    67 H14       5.4182   -1.3455    0.0186   H         1 RES1   0.0000
    68 H15       6.8335   -0.9164   -0.9417   H         1 RES1   0.0000
    69 H16       4.9933   -1.8362   -2.3863   H         1 RES1   0.0000
    70 H17       5.5648   -0.2351   -2.8247   H         1 RES1   0.0000
    71 H18       2.2947    0.9662   -2.9657   H         1 RES1   0.0000
    72 H19       3.7480    0.5765   -3.9024   H         1 RES1   0.0000
    73 H20       5.0518    2.2167   -2.7517   H         1 RES1   0.0000
    74 H21       3.8194    2.4403   -1.5101   H         1 RES1   0.0000
    75 H22       3.1444    2.9985   -4.4045   H         1 RES1   0.0000
    76 H23       4.0693    4.1718   -3.4824   H         1 RES1   0.0000
    77 H24       1.2844    3.1586   -2.7838   H         1 RES1   0.0000
    78 H25       1.7244    4.7362   -3.4364   H         1 RES1   0.0000
    79 H26       3.2839    4.8452   -1.2714   H         1 RES1   0.0000
    80 H27       2.1300    3.6636   -0.6395   H         1 RES1   0.0000
    81 H28       0.2728    5.2911   -1.1804   H         1 RES1   0.0000
    82 H29       1.5010    6.4579   -1.6679   H         1 RES1   0.0000
    83 H30       2.4930    6.4149    0.5951   H         1 RES1   0.0000
    84 H31       1.3358    5.1811    1.0947   H         1 RES1   0.0000
    85 H32       0.7026    8.0541    0.2557   H         1 RES1   0.0000
    86 H33      -0.5280    6.8401    0.5793   H         1 RES1   0.0000
    87 H34       0.5507    7.3796    1.8769   H         1 RES1   0.0000
    88 H35       4.3839   -3.0314   -0.8771   H         1 RES1   0.0000
    89 H36       3.6533   -5.0210    0.3078   H         1 RES1   0.0000
    90 H37       1.8125   -6.2748    1.5431   H         1 RES1   0.0000
    91 H38      -0.5186   -6.3464    2.2967   H         1 RES1   0.0000
    92 H39      -2.8057   -5.2505    2.3965   H         1 RES1   0.0000
    93 H40      -4.1933   -3.2790    2.0032   H         1 RES1   0.0000
    94 H41      -5.8644   -0.0970    2.1490   H         1 RES1   0.0000
    95 H42      -5.1880   -1.7111    2.3375   H         1 RES1   0.0000
    96 H43      -7.1105   -1.0010    0.0669   H         1 RES1   0.0000
    97 H44      -7.6640   -1.4130    1.6883   H         1 RES1   0.0000
    98 H45      -7.8545   -3.3438    0.3194   H         1 RES1   0.0000
    99 H46      -6.5444   -3.6528    1.4476   H         1 RES1   0.0000
   100 H47      -4.9367   -2.8983   -0.4287   H         1 RES1   0.0000
   101 H48      -6.3498   -2.8381   -1.4806   H         1 RES1   0.0000
   102 H49      -6.7084   -5.3125   -0.9445   H         1 RES1   0.0000
   103 H50      -5.1636   -5.2718   -0.1044   H         1 RES1   0.0000
   104 H51      -4.6494   -6.0372   -2.3019   H         1 RES1   0.0000
   105 H52      -4.1303   -4.3528   -2.2617   H         1 RES1   0.0000
   106 H53      -6.1447   -3.6618   -3.4993   H         1 RES1   0.0000
   107 H54      -6.8322   -5.2807   -3.3377   H         1 RES1   0.0000
   108 H55      -4.3061   -4.5809   -4.9144   H         1 RES1   0.0000
   109 H56      -5.8933   -4.9415   -5.5945   H         1 RES1   0.0000
   110 H57      -4.9970   -6.1973   -4.7478   H         1 RES1   0.0000
   111 H58      -4.3052    1.3735    0.0352   H         1 RES1   0.0000
   112 H59      -5.9465    0.7223   -0.0081   H         1 RES1   0.0000
   113 H60      -4.6899   -0.9864   -1.7482   H         1 RES1   0.0000
   114 H61      -3.7889    0.5023   -2.0498   H         1 RES1   0.0000
   115 H62      -5.9281    1.6688   -2.5530   H         1 RES1   0.0000
   116 H63      -6.8337    0.2557   -2.0517   H         1 RES1   0.0000
   117 H64      -6.8792    0.2292   -4.3898   H         1 RES1   0.0000
   118 H65      -5.8659   -1.1009   -3.8364   H         1 RES1   0.0000
   119 H66      -4.8555   -0.2938   -5.7405   H         1 RES1   0.0000
   120 H67      -3.8609    0.2750   -4.4003   H         1 RES1   0.0000
   121 H68      -4.6633    2.5578   -4.7245   H         1 RES1   0.0000
   122 H69      -5.9804    2.0135   -5.7321   H         1 RES1   0.0000
   123 H70      -4.8005    2.3551   -7.5511   H         1 RES1   0.0000
   124 H71      -3.6828    1.0901   -7.1055   H         1 RES1   0.0000
   125 H72      -3.2658    3.9490   -6.1074   H         1 RES1   0.0000
   126 H73      -2.7894    3.4510   -7.7131   H         1 RES1   0.0000
   127 H74      -2.0435    2.6777   -6.3300   H         1 RES1   0.0000
   128 C47       3.0691   -4.6542   -3.7928   C.3       1 RES1   0.0000
   129 C48       2.9696   -5.9870   -3.0551   C.3       1 RES1   0.0000
   130 C49       1.6430   -6.2761   -2.3446   C.3       1 RES1   0.0000
   131 C50       0.4498   -6.6237   -3.2403   C.3       1 RES1   0.0000
   132 C51      -0.2941   -5.4166   -3.8033   C.3       1 RES1   0.0000
   133 C52      -1.0589   -4.6212   -2.7458   C.3       1 RES1   0.0000
   134 C53      -1.5751   -3.2903   -3.2904   C.3       1 RES1   0.0000
   135 C54      -0.4308   -2.3595   -3.6995   C.3       1 RES1   0.0000
   136 N5       -0.8744   -0.9769   -3.8605   N.am      1 RES1   0.0000
   137 C55      -1.2762   -0.5704   -5.1921   C.3       1 RES1   0.0000
   138 C56      -0.1621    0.1031   -5.9921   C.3       1 RES1   0.0000
   139 C57       0.9171   -0.8792   -6.4453   C.3       1 RES1   0.0000
   140 C58       1.8859   -0.2402   -7.4392   C.3       1 RES1   0.0000
   141 C59       2.6770    0.9035   -6.8155   C.3       1 RES1   0.0000
   142 C60       3.6766    1.5441   -7.7754   C.3       1 RES1   0.0000
   143 C61       4.8904    0.6748   -8.1092   C.3       1 RES1   0.0000
   144 C62       5.6759    0.2579   -6.8667   C.3       1 RES1   0.0000
   145 C63      -0.9501   -0.2927   -2.7274   C.2       1 RES1   0.0000
   146 O3       -0.7291   -0.9277   -1.6630   O.2       1 RES1   0.0000
   147 C64      -1.2399    1.1787   -2.5137   C.ar      1 RES1   0.0000
   148 C65      -1.9290    2.1136   -3.3036   C.ar      1 RES1   0.0000
   149 C66      -2.3320    3.3079   -2.7343   C.ar      1 RES1   0.0000
   150 C67      -2.0253    3.6134   -1.3935   C.ar      1 RES1   0.0000
   151 C68      -2.4976    4.7429   -0.6587   C.ar      1 RES1   0.0000
   152 C69      -2.1696    4.9278    0.6497   C.ar      1 RES1   0.0000
   153 C70      -1.3307    4.0065    1.3518   C.ar      1 RES1   0.0000
   154 C71      -0.9804    4.0810    2.7116   C.ar      1 RES1   0.0000
   155 C72      -0.2132    3.0929    3.2977   C.ar      1 RES1   0.0000
   156 C73       0.2299    2.0014    2.5391   C.ar      1 RES1   0.0000
   157 C74       0.9884    0.7406    2.9247   C.2       1 RES1   0.0000
   158 O4        0.8786   -0.1812    2.0712   O.2       1 RES1   0.0000
   159 N6        1.7323    0.5387    3.9998   N.am      1 RES1   0.0000
   160 C75       1.9695    1.4535    5.0951   C.3       1 RES1   0.0000
   161 C76       3.0989    2.4550    4.8410   C.3       1 RES1   0.0000
   162 C77       3.3242    3.2677    6.1193   C.3       1 RES1   0.0000
   163 C78       2.2647    4.3593    6.3314   C.3       1 RES1   0.0000
   164 C79       1.7398    4.4106    7.7694   C.3       1 RES1   0.0000
   165 C80       0.7456    3.2985    8.1267   C.3       1 RES1   0.0000
   166 C81      -0.6326    3.5205    7.5036   C.3       1 RES1   0.0000
   167 C82      -1.6507    2.4658    7.9195   C.3       1 RES1   0.0000
   168 C83       2.4212   -0.7467    4.1297   C.3       1 RES1   0.0000
   169 C84       1.7205   -1.6952    5.1059   C.3       1 RES1   0.0000
   170 C85       0.2841   -2.0207    4.6833   C.3       1 RES1   0.0000
   171 C86      -0.7321   -1.1179    5.3907   C.3       1 RES1   0.0000
   172 C87      -1.9852   -0.8657    4.5544   C.3       1 RES1   0.0000
   173 C88      -2.7939    0.3116    5.0986   C.3       1 RES1   0.0000
   174 C89      -4.0303    0.6015    4.2520   C.3       1 RES1   0.0000
   175 C90      -4.7289    1.8740    4.7119   C.3       1 RES1   0.0000
   176 N7       -0.1041    1.9310    1.2485   N.ar      1 RES1   0.0000
   177 C91      -0.8384    2.8795    0.6560   C.ar      1 RES1   0.0000
   178 C92      -1.2020    2.6774   -0.7300   C.ar      1 RES1   0.0000
   179 N8       -0.8452    1.5196   -1.2876   N.ar      1 RES1   0.0000
   180 H75       4.1146   -4.4388   -4.0010   H         1 RES1   0.0000
   181 H76       2.6594   -3.8373   -3.1963   H         1 RES1   0.0000
   182 H77       2.5555   -4.6836   -4.7487   H         1 RES1   0.0000
   183 H78       3.7534   -6.0078   -2.2938   H         1 RES1   0.0000
   184 H79       3.1842   -6.7942   -3.7551   H         1 RES1   0.0000
   185 H80       1.3851   -5.4292   -1.7011   H         1 RES1   0.0000
   186 H81       1.8237   -7.1323   -1.6909   H         1 RES1   0.0000
   187 H82      -0.2527   -7.2239   -2.6607   H         1 RES1   0.0000
   188 H83       0.7930   -7.2377   -4.0726   H         1 RES1   0.0000
   189 H84      -1.0058   -5.7645   -4.5514   H         1 RES1   0.0000
   190 H85       0.4200   -4.7739   -4.3082   H         1 RES1   0.0000
   191 H86      -0.4296   -4.4115   -1.8771   H         1 RES1   0.0000
   192 H87      -1.9026   -5.2195   -2.3941   H         1 RES1   0.0000
   193 H88      -2.1724   -2.7898   -2.5242   H         1 RES1   0.0000
   194 H89      -2.2167   -3.4839   -4.1478   H         1 RES1   0.0000
   195 H90       0.0256   -2.6864   -4.6274   H         1 RES1   0.0000
   196 H91       0.3318   -2.3833   -2.9163   H         1 RES1   0.0000
   197 H92      -2.1337    0.0931   -5.1204   H         1 RES1   0.0000
   198 H93      -1.6000   -1.4715   -5.7174   H         1 RES1   0.0000
   199 H94       0.2691    0.9114   -5.3974   H         1 RES1   0.0000
   200 H95      -0.6101    0.5366   -6.8888   H         1 RES1   0.0000
   201 H96       0.4262   -1.7160   -6.9459   H         1 RES1   0.0000
   202 H97       1.4686   -1.2689   -5.5834   H         1 RES1   0.0000
   203 H98       1.3215    0.1304   -8.2964   H         1 RES1   0.0000
   204 H99       2.5695   -1.0087   -7.8007   H         1 RES1   0.0000
   205 H100      3.2054    0.5261   -5.9384   H         1 RES1   0.0000
   206 H101      1.9883    1.6822   -6.4805   H         1 RES1   0.0000
   207 H102      4.0373    2.4721   -7.3241   H         1 RES1   0.0000
   208 H103      3.1612    1.7970   -8.7028   H         1 RES1   0.0000
   209 H104      5.5413    1.2545   -8.7667   H         1 RES1   0.0000
   210 H105      4.5870   -0.2156   -8.6618   H         1 RES1   0.0000
   211 H106      5.7902    1.1109   -6.1987   H         1 RES1   0.0000
   212 H107      6.6667   -0.0975   -7.1403   H         1 RES1   0.0000
   213 H108      5.1695   -0.5462   -6.3319   H         1 RES1   0.0000
   214 H109     -2.1713    1.9391   -4.3394   H         1 RES1   0.0000
   215 H110     -2.9379    3.9842   -3.3206   H         1 RES1   0.0000
   216 H111     -3.1474    5.4444   -1.1616   H         1 RES1   0.0000
   217 H112     -2.5873    5.7699    1.1805   H         1 RES1   0.0000
   218 H113     -1.3383    4.9048    3.3136   H         1 RES1   0.0000
   219 H114     -0.0031    3.1717    4.3482   H         1 RES1   0.0000
   220 H115      2.2614    0.8405    5.9472   H         1 RES1   0.0000
   221 H116      1.0516    1.9681    5.3682   H         1 RES1   0.0000
   222 H117      2.8582    3.1123    4.0027   H         1 RES1   0.0000
   223 H118      4.0115    1.9088    4.5933   H         1 RES1   0.0000
   224 H119      4.3156    3.7213    6.0954   H         1 RES1   0.0000
   225 H120      3.3053    2.5725    6.9617   H         1 RES1   0.0000
   226 H121      1.4206    4.2028    5.6571   H         1 RES1   0.0000
   227 H122      2.6915    5.3322    6.0869   H         1 RES1   0.0000
   228 H123      1.2435    5.3693    7.9318   H         1 RES1   0.0000
   229 H124      2.5871    4.3550    8.4529   H         1 RES1   0.0000
   230 H125      0.6250    3.2679    9.2115   H         1 RES1   0.0000
   231 H126      1.1302    2.3190    7.8276   H         1 RES1   0.0000
   232 H127     -0.5577    3.5280    6.4121   H         1 RES1   0.0000
   233 H128     -0.9963    4.5032    7.8023   H         1 RES1   0.0000
   234 H129     -1.2994    1.4651    7.6724   H         1 RES1   0.0000
   235 H130     -2.6034    2.6298    7.4173   H         1 RES1   0.0000
   236 H131     -1.8169    2.5088    8.9917   H         1 RES1   0.0000
   237 H132      3.4331   -0.5449    4.4843   H         1 RES1   0.0000
   238 H133      2.4677   -1.2085    3.1410   H         1 RES1   0.0000
   239 H134      1.7106   -1.2582    6.1050   H         1 RES1   0.0000
   240 H135      2.3076   -2.6098    5.1563   H         1 RES1   0.0000
   241 H136      0.0490   -3.0627    4.9047   H         1 RES1   0.0000
   242 H137      0.2021   -1.8886    3.6008   H         1 RES1   0.0000
   243 H138     -0.2800   -0.1486    5.6052   H         1 RES1   0.0000
   244 H139     -1.0085   -1.5569    6.3509   H         1 RES1   0.0000
   245 H140     -2.6010   -1.7693    4.5266   H         1 RES1   0.0000
   246 H141     -1.6837   -0.6339    3.5203   H         1 RES1   0.0000
   247 H142     -2.1550    1.2006    5.1133   H         1 RES1   0.0000
   248 H143     -3.0933    0.1008    6.1271   H         1 RES1   0.0000
   249 H144     -4.7152   -0.2452    4.3393   H         1 RES1   0.0000
   250 H145     -3.7220    0.7004    3.2023   H         1 RES1   0.0000
   251 H146     -5.0203    1.7796    5.7547   H         1 RES1   0.0000
   252 H147     -5.6184    2.0649    4.1186   H         1 RES1   0.0000
   253 H148     -4.0663    2.7313    4.6111   H         1 RES1   0.0000
@<TRIPOS>BOND
     1     1    20    1
     2     1    32    1
     3     1    50    1
     4     1    53    1
     5     1   146    1
     6     1   158    1
     7     1   176    1
     8     1   179    1
     9     2     3    1
    10     2    54    1
    11     2    55    1
    12     2    56    1
    13     3     4    1
    14     3    57    1
    15     3    58    1
    16     4     5    1
    17     4    59    1
    18     4    60    1
    19     5     6    1
    20     5    61    1
    21     5    62    1
    22     6     7    1
    23     6    63    1
    24     6    64    1
    25     7     8    1
    26     7    65    1
    27     7    66    1
    28     8     9    1
    29     8    67    1
    30     8    68    1
    31     9    10    1
    32     9    69    1
    33     9    70    1
    34    10    11    1
    35    10    19    1
    36    11    12    1
    37    11    71    1
    38    11    72    1
    39    12    13    1
    40    12    73    1
    41    12    74    1
    42    13    14    1
    43    13    75    1
    44    13    76    1
    45    14    15    1
    46    14    77    1
    47    14    78    1
    48    15    16    1
    49    15    79    1
    50    15    80    1
    51    16    17    1
    52    16    81    1
    53    16    82    1
    54    17    18    1
    55    17    83    1
    56    17    84    1
    57    18    85    1
    58    18    86    1
    59    18    87    1
    60    19    20    2
    61    19    21    1
    62    21    22    1
    63    21    53    2
    64    22    23    2
    65    22    88    1
    66    23    24    1
    67    23    89    1
    68    24    25    1
    69    24    52    2
    70    25    26    2
    71    25    90    1
    72    26    27    1
    73    26    91    1
    74    27    28    1
    75    27    51    2
    76    28    29    2
    77    28    92    1
    78    29    30    1
    79    29    93    1
    80    30    31    1
    81    30    50    2
    82    31    32    2
    83    31    33    1
    84    33    34    1
    85    33    42    1
    86    34    35    1
    87    34    94    1
    88    34    95    1
    89    35    36    1
    90    35    96    1
    91    35    97    1
    92    36    37    1
    93    36    98    1
    94    36    99    1
    95    37    38    1
    96    37   100    1
    97    37   101    1
    98    38    39    1
    99    38   102    1
   100    38   103    1
   101    39    40    1
   102    39   104    1
   103    39   105    1
   104    40    41    1
   105    40   106    1
   106    40   107    1
   107    41   108    1
   108    41   109    1
   109    41   110    1
   110    42    43    1
   111    42   111    1
   112    42   112    1
   113    43    44    1
   114    43   113    1
   115    43   114    1
   116    44    45    1
   117    44   115    1
   118    44   116    1
   119    45    46    1
   120    45   117    1
   121    45   118    1
   122    46    47    1
   123    46   119    1
   124    46   120    1
   125    47    48    1
   126    47   121    1
   127    47   122    1
   128    48    49    1
   129    48   123    1
   130    48   124    1
   131    49   125    1
   132    49   126    1
   133    49   127    1
   134    50    51    1
   135    51    52    1
   136    52    53    1
   137   128   129    1
   138   128   180    1
   139   128   181    1
   140   128   182    1
   141   129   130    1
   142   129   183    1
   143   129   184    1
   144   130   131    1
   145   130   185    1
   146   130   186    1
   147   131   132    1
   148   131   187    1
   149   131   188    1
   150   132   133    1
   151   132   189    1
   152   132   190    1
   153   133   134    1
   154   133   191    1
   155   133   192    1
   156   134   135    1
   157   134   193    1
   158   134   194    1
   159   135   136    1
   160   135   195    1
   161   135   196    1
   162   136   137    1
   163   136   145    1
   164   137   138    1
   165   137   197    1
   166   137   198    1
   167   138   139    1
   168   138   199    1
   169   138   200    1
   170   139   140    1
   171   139   201    1
   172   139   202    1
   173   140   141    1
   174   140   203    1
   175   140   204    1
   176   141   142    1
   177   141   205    1
   178   141   206    1
   179   142   143    1
   180   142   207    1
   181   142   208    1
   182   143   144    1
   183   143   209    1
   184   143   210    1
   185   144   211    1
   186   144   212    1
   187   144   213    1
   188   145   146    2
   189   145   147    1
   190   147   148    1
   191   147   179    2
   192   148   149    2
   193   148   214    1
   194   149   150    1
   195   149   215    1
   196   150   151    1
   197   150   178    2
   198   151   152    2
   199   151   216    1
   200   152   153    1
   201   152   217    1
   202   153   154    1
   203   153   177    2
   204   154   155    2
   205   154   218    1
   206   155   156    1
   207   155   219    1
   208   156   157    1
   209   156   176    2
   210   157   158    2
   211   157   159    1
   212   159   160    1
   213   159   168    1
   214   160   161    1
   215   160   220    1
   216   160   221    1
   217   161   162    1
   218   161   222    1
   219   161   223    1
   220   162   163    1
   221   162   224    1
   222   162   225    1
   223   163   164    1
   224   163   226    1
   225   163   227    1
   226   164   165    1
   227   164   228    1
   228   164   229    1
   229   165   166    1
   230   165   230    1
   231   165   231    1
   232   166   167    1
   233   166   232    1
   234   166   233    1
   235   167   234    1
   236   167   235    1
   237   167   236    1
   238   168   169    1
   239   168   237    1
   240   168   238    1
   241   169   170    1
   242   169   239    1
   243   169   240    1
   244   170   171    1
   245   170   241    1
   246   170   242    1
   247   171   172    1
   248   171   243    1
   249   171   244    1
   250   172   173    1
   251   172   245    1
   252   172   246    1
   253   173   174    1
   254   173   247    1
   255   173   248    1
   256   174   175    1
   257   174   249    1
   258   174   250    1
   259   175   251    1
   260   175   252    1
   261   175   253    1
   262   176   177    1
   263   177   178    1
   264   178   179    1
@<TRIPOS>SUBSTRUCTURE
     1 RES1      253 GROUP             0 ****  ****    0  
