@<TRIPOS>MOLECULE
ICIGOT_geomtry_0_nunpairedes_0_charge_2 Charge: 2 Unpaired_Electrons: 0 XTB_Unpaired_Electrons: 0 XTB_Charge: 2
   189   193     1     0     0
SMALL
NoCharges
****
Generated from Architector

@<TRIPOS>ATOM
     1 Lu1      -0.5070   -0.1324   -0.1517   Lu        1 RES1   0.0000
     2 C1       -2.1150   -4.5250   -3.0678   C.3       1 RES1   0.0000
     3 C2       -3.0785   -4.8902   -1.9378   C.3       1 RES1   0.0000
     4 C3       -2.3735   -4.9863   -0.5773   C.3       1 RES1   0.0000
     5 C4       -3.2580   -5.5452    0.5546   C.3       1 RES1   0.0000
     6 C5       -3.9553   -4.5782    1.5301   C.3       1 RES1   0.0000
     7 C6       -4.8192   -3.4666    0.9208   C.3       1 RES1   0.0000
     8 C7       -4.1077   -2.1089    0.8918   C.3       1 RES1   0.0000
     9 C8       -4.1227   -1.3696    2.2351   C.3       1 RES1   0.0000
    10 N1       -3.9663    0.0763    2.0572   N.am      1 RES1   0.0000
    11 C9       -5.1363    0.9052    2.2695   C.3       1 RES1   0.0000
    12 C10      -2.7785    0.5370    1.6980   C.2       1 RES1   0.0000
    13 O1       -1.8253   -0.2535    1.5292   O.2       1 RES1   0.0000
    14 C11      -2.5017    2.0416    1.6199   C.3       1 RES1   0.0000
    15 C12      -1.3711    2.3109    2.6718   C.3       1 RES1   0.0000
    16 C13      -0.0212    2.7757    2.1365   C.3       1 RES1   0.0000
    17 O2        0.6688    1.7088    1.4820   O.3       1 RES1   0.0000
    18 C14       1.8563    2.1852    0.8249   C.3       1 RES1   0.0000
    19 C15       2.9437    2.7450    1.7511   C.3       1 RES1   0.0000
    20 C16       3.7843    1.6480    2.4113   C.3       1 RES1   0.0000
    21 C17       3.0403    0.7230    3.3881   C.3       1 RES1   0.0000
    22 C18       3.2382    1.0842    4.8603   C.3       1 RES1   0.0000
    23 C19       2.6903    2.4542    5.2317   C.3       1 RES1   0.0000
    24 C20      -2.0540    2.4907    0.2119   C.2       1 RES1   0.0000
    25 O3       -1.0847    1.9211   -0.3393   O.2       1 RES1   0.0000
    26 N2       -2.6222    3.5320   -0.3888   N.am      1 RES1   0.0000
    27 C21      -3.8019    4.2662    0.0120   C.3       1 RES1   0.0000
    28 C22      -1.9760    4.0873   -1.5848   C.3       1 RES1   0.0000
    29 C23      -2.8504    4.0828   -2.8364   C.3       1 RES1   0.0000
    30 C24      -2.1495    4.7947   -4.0005   C.3       1 RES1   0.0000
    31 C25      -1.1101    3.9172   -4.7054   C.3       1 RES1   0.0000
    32 C26       0.0007    4.7237   -5.3806   C.3       1 RES1   0.0000
    33 C27       0.9644    5.3859   -4.3955   C.3       1 RES1   0.0000
    34 C28       1.8199    4.3944   -3.6086   C.3       1 RES1   0.0000
    35 C29       2.6221    5.1037   -2.5255   C.3       1 RES1   0.0000
    36 H1       -2.6717   -4.3553   -3.9868   H         1 RES1   0.0000
    37 H2       -1.3779   -5.3093   -3.2439   H         1 RES1   0.0000
    38 H3       -1.5880   -3.6052   -2.8221   H         1 RES1   0.0000
    39 H4       -3.5458   -5.8466   -2.1760   H         1 RES1   0.0000
    40 H5       -3.8619   -4.1337   -1.8937   H         1 RES1   0.0000
    41 H6       -1.9726   -4.0032   -0.3194   H         1 RES1   0.0000
    42 H7       -1.5200   -5.6626   -0.7015   H         1 RES1   0.0000
    43 H8       -2.6395   -6.2038    1.1744   H         1 RES1   0.0000
    44 H9       -4.0316   -6.1738    0.1089   H         1 RES1   0.0000
    45 H10      -3.2220   -4.1055    2.1860   H         1 RES1   0.0000
    46 H11      -4.5831   -5.2093    2.1678   H         1 RES1   0.0000
    47 H12      -5.7457   -3.3648    1.4881   H         1 RES1   0.0000
    48 H13      -5.0965   -3.7445   -0.0956   H         1 RES1   0.0000
    49 H14      -4.5977   -1.4700    0.1523   H         1 RES1   0.0000
    50 H15      -3.0714   -2.2715    0.5869   H         1 RES1   0.0000
    51 H16      -3.3166   -1.7195    2.8856   H         1 RES1   0.0000
    52 H17      -5.0711   -1.5416    2.7412   H         1 RES1   0.0000
    53 H18      -5.9779    0.2551    2.4977   H         1 RES1   0.0000
    54 H19      -5.3795    1.4748    1.3702   H         1 RES1   0.0000
    55 H20      -4.9958    1.5818    3.1179   H         1 RES1   0.0000
    56 H21      -3.3841    2.5962    1.9219   H         1 RES1   0.0000
    57 H22      -1.1833    1.3963    3.2415   H         1 RES1   0.0000
    58 H23      -1.7223    3.0712    3.3701   H         1 RES1   0.0000
    59 H24       0.5668    3.1239    2.9941   H         1 RES1   0.0000
    60 H25      -0.1407    3.6200    1.4445   H         1 RES1   0.0000
    61 H26       1.5533    2.9522    0.0992   H         1 RES1   0.0000
    62 H27       2.2536    1.3177    0.2912   H         1 RES1   0.0000
    63 H28       2.5182    3.4101    2.5027   H         1 RES1   0.0000
    64 H29       3.6107    3.3516    1.1322   H         1 RES1   0.0000
    65 H30       4.6245    2.1138    2.9293   H         1 RES1   0.0000
    66 H31       4.2003    1.0496    1.5991   H         1 RES1   0.0000
    67 H32       3.4050   -0.2983    3.2485   H         1 RES1   0.0000
    68 H33       1.9752    0.7088    3.1509   H         1 RES1   0.0000
    69 H34       4.3017    1.0527    5.1001   H         1 RES1   0.0000
    70 H35       2.7448    0.3221    5.4683   H         1 RES1   0.0000
    71 H36       3.2221    3.2443    4.7090   H         1 RES1   0.0000
    72 H37       2.8081    2.6312    6.2970   H         1 RES1   0.0000
    73 H38       1.6315    2.5194    4.9871   H         1 RES1   0.0000
    74 H39      -4.0653    4.1162    1.0559   H         1 RES1   0.0000
    75 H40      -4.6506    3.9835   -0.6165   H         1 RES1   0.0000
    76 H41      -3.6084    5.3296   -0.1446   H         1 RES1   0.0000
    77 H42      -1.0638    3.5207   -1.7633   H         1 RES1   0.0000
    78 H43      -1.6992    5.1169   -1.3389   H         1 RES1   0.0000
    79 H44      -3.7856    4.6027   -2.6255   H         1 RES1   0.0000
    80 H45      -3.0795    3.0542   -3.1167   H         1 RES1   0.0000
    81 H46      -1.6820    5.7098   -3.6329   H         1 RES1   0.0000
    82 H47      -2.9033    5.0969   -4.7275   H         1 RES1   0.0000
    83 H48      -1.6212    3.3180   -5.4626   H         1 RES1   0.0000
    84 H49      -0.6600    3.2286   -3.9884   H         1 RES1   0.0000
    85 H50      -0.4587    5.4891   -6.0081   H         1 RES1   0.0000
    86 H51       0.5715    4.0630   -6.0359   H         1 RES1   0.0000
    87 H52       0.4084    6.0133   -3.6960   H         1 RES1   0.0000
    88 H53       1.6284    6.0420   -4.9595   H         1 RES1   0.0000
    89 H54       2.4936    3.8812   -4.2974   H         1 RES1   0.0000
    90 H55       1.1920    3.6331   -3.1374   H         1 RES1   0.0000
    91 H56       3.2804    5.8472   -2.9651   H         1 RES1   0.0000
    92 H57       3.2262    4.3940   -1.9644   H         1 RES1   0.0000
    93 H58       1.9550    5.6125   -1.8311   H         1 RES1   0.0000
    94 C30       5.4166   -9.0272    0.1076   C.3       1 RES1   0.0000
    95 C31       4.0453   -8.4068   -0.1306   C.3       1 RES1   0.0000
    96 C32       3.6288   -8.4039   -1.6013   C.3       1 RES1   0.0000
    97 C33       4.4997   -7.5482   -2.5249   C.3       1 RES1   0.0000
    98 C34       4.4649   -6.0461   -2.2031   C.3       1 RES1   0.0000
    99 C35       5.6737   -5.5677   -1.3942   C.3       1 RES1   0.0000
   100 C36       5.5280   -4.1207   -0.9135   C.3       1 RES1   0.0000
   101 C37       4.6537   -4.0259    0.3479   C.3       1 RES1   0.0000
   102 N3        4.1790   -2.6741    0.5968   N.am      1 RES1   0.0000
   103 C38       5.1822   -1.8020    1.1789   C.3       1 RES1   0.0000
   104 C39       3.0259   -2.1297    0.1934   C.2       1 RES1   0.0000
   105 O4        2.7546   -0.9299    0.3218   O.2       1 RES1   0.0000
   106 C40       1.9087   -3.0374   -0.3446   C.3       1 RES1   0.0000
   107 C41       1.3629   -2.6253   -1.7549   C.3       1 RES1   0.0000
   108 C42       1.5555   -1.1657   -2.2573   C.3       1 RES1   0.0000
   109 O5        0.3384   -0.4152   -2.4239   O.3       1 RES1   0.0000
   110 C43      -0.2729   -0.6619   -3.7200   C.3       1 RES1   0.0000
   111 C44      -1.4917    0.2416   -3.9495   C.3       1 RES1   0.0000
   112 C45      -2.6017   -0.4425   -4.7634   C.3       1 RES1   0.0000
   113 C46      -3.8607    0.4308   -4.9223   C.3       1 RES1   0.0000
   114 C47      -5.0061    0.1655   -3.9320   C.3       1 RES1   0.0000
   115 C48      -5.0797    1.1362   -2.7559   C.3       1 RES1   0.0000
   116 C49       0.8436   -2.8739    0.7279   C.2       1 RES1   0.0000
   117 O6        0.3108   -1.7514    0.8638   O.2       1 RES1   0.0000
   118 N4        0.5131   -3.8687    1.5456   N.am      1 RES1   0.0000
   119 C50       1.1101   -5.1894    1.5447   C.3       1 RES1   0.0000
   120 C51      -0.6502   -3.6435    2.4022   C.3       1 RES1   0.0000
   121 C52      -0.3928   -2.8169    3.6629   C.3       1 RES1   0.0000
   122 C53       0.3572   -3.5422    4.7819   C.3       1 RES1   0.0000
   123 C54       0.2472   -2.7375    6.0829   C.3       1 RES1   0.0000
   124 C55       0.9876   -3.3420    7.2824   C.3       1 RES1   0.0000
   125 C56       2.4346   -2.8729    7.4494   C.3       1 RES1   0.0000
   126 C57       3.4047   -3.3007    6.3490   C.3       1 RES1   0.0000
   127 C58       3.5028   -4.8151    6.2023   C.3       1 RES1   0.0000
   128 H59       5.6272   -9.0698    1.1735   H         1 RES1   0.0000
   129 H60       6.2054   -8.4525   -0.3701   H         1 RES1   0.0000
   130 H61       5.4493  -10.0376   -0.2903   H         1 RES1   0.0000
   131 H62       4.0269   -7.3852    0.2583   H         1 RES1   0.0000
   132 H63       3.3016   -8.9814    0.4255   H         1 RES1   0.0000
   133 H64       2.5929   -8.0558   -1.6773   H         1 RES1   0.0000
   134 H65       3.6495   -9.4296   -1.9730   H         1 RES1   0.0000
   135 H66       4.1334   -7.6953   -3.5423   H         1 RES1   0.0000
   136 H67       5.5302   -7.9060   -2.5040   H         1 RES1   0.0000
   137 H68       3.5358   -5.8183   -1.6706   H         1 RES1   0.0000
   138 H69       4.4455   -5.4764   -3.1360   H         1 RES1   0.0000
   139 H70       6.5580   -5.6337   -2.0285   H         1 RES1   0.0000
   140 H71       5.8399   -6.2144   -0.5324   H         1 RES1   0.0000
   141 H72       5.0888   -3.5070   -1.7060   H         1 RES1   0.0000
   142 H73       6.5117   -3.7068   -0.6883   H         1 RES1   0.0000
   143 H74       5.2416   -4.3250    1.2226   H         1 RES1   0.0000
   144 H75       3.8158   -4.7166    0.2567   H         1 RES1   0.0000
   145 H76       5.6390   -2.2997    2.0320   H         1 RES1   0.0000
   146 H77       4.7073   -0.8796    1.5006   H         1 RES1   0.0000
   147 H78       5.9611   -1.5742    0.4540   H         1 RES1   0.0000
   148 H79       2.2240   -4.0722   -0.4202   H         1 RES1   0.0000
   149 H80       0.2923   -2.8590   -1.7616   H         1 RES1   0.0000
   150 H81       1.8395   -3.2917   -2.4782   H         1 RES1   0.0000
   151 H82       2.0697   -1.1783   -3.2238   H         1 RES1   0.0000
   152 H83       2.1597   -0.5808   -1.5571   H         1 RES1   0.0000
   153 H84      -0.5523   -1.7201   -3.7879   H         1 RES1   0.0000
   154 H85       0.4665   -0.4579   -4.5035   H         1 RES1   0.0000
   155 H86      -1.1823    1.1315   -4.5007   H         1 RES1   0.0000
   156 H87      -1.8795    0.5868   -2.9874   H         1 RES1   0.0000
   157 H88      -2.8744   -1.3977   -4.3132   H         1 RES1   0.0000
   158 H89      -2.1966   -0.6601   -5.7556   H         1 RES1   0.0000
   159 H90      -4.2460    0.2663   -5.9271   H         1 RES1   0.0000
   160 H91      -3.5727    1.4817   -4.8699   H         1 RES1   0.0000
   161 H92      -4.9353   -0.8537   -3.5555   H         1 RES1   0.0000
   162 H93      -5.9497    0.2437   -4.4739   H         1 RES1   0.0000
   163 H94      -4.1556    1.1528   -2.1801   H         1 RES1   0.0000
   164 H95      -5.8883    0.8352   -2.0905   H         1 RES1   0.0000
   165 H96      -5.2971    2.1433   -3.1121   H         1 RES1   0.0000
   166 H97       0.8855   -5.7295    0.6217   H         1 RES1   0.0000
   167 H98       0.6917   -5.7620    2.3704   H         1 RES1   0.0000
   168 H99       2.1886   -5.1483    1.6910   H         1 RES1   0.0000
   169 H100     -1.0630   -4.6176    2.6646   H         1 RES1   0.0000
   170 H101     -1.3697   -3.0926    1.7898   H         1 RES1   0.0000
   171 H102     -1.3757   -2.5220    4.0465   H         1 RES1   0.0000
   172 H103      0.1359   -1.9026    3.3797   H         1 RES1   0.0000
   173 H104      1.4005   -3.6791    4.4981   H         1 RES1   0.0000
   174 H105     -0.0883   -4.5294    4.9407   H         1 RES1   0.0000
   175 H106     -0.8170   -2.6691    6.3330   H         1 RES1   0.0000
   176 H107      0.6134   -1.7209    5.9101   H         1 RES1   0.0000
   177 H108      0.9489   -4.4301    7.2347   H         1 RES1   0.0000
   178 H109      0.4542   -3.0487    8.1880   H         1 RES1   0.0000
   179 H110      2.8055   -3.2544    8.4029   H         1 RES1   0.0000
   180 H111      2.4384   -1.7824    7.5153   H         1 RES1   0.0000
   181 H112      4.3923   -2.9091    6.6017   H         1 RES1   0.0000
   182 H113      3.1142   -2.8440    5.3995   H         1 RES1   0.0000
   183 H114      3.7854   -5.2637    7.1512   H         1 RES1   0.0000
   184 H115      4.2548   -5.0792    5.4610   H         1 RES1   0.0000
   185 H116      2.5536   -5.2482    5.8956   H         1 RES1   0.0000
   186 N5       -2.4545   -1.2153   -1.3792   N.3       1 RES1   0.0000
   187 O7       -3.3221   -1.7132   -2.0130   O.2       1 RES1   0.0000
   188 O8       -1.4338   -1.8433   -1.0603   O.co2     1 RES1   0.0000
   189 O9       -2.5138   -0.0365   -0.9949   O.co2     1 RES1   0.0000
@<TRIPOS>BOND
     1     1    13    1
     2     1    17    1
     3     1    25    1
     4     1   105    1
     5     1   109    1
     6     1   117    1
     7     1   188    1
     8     1   189    1
     9     2     3    1
    10     2    36    1
    11     2    37    1
    12     2    38    1
    13     3     4    1
    14     3    39    1
    15     3    40    1
    16     4     5    1
    17     4    41    1
    18     4    42    1
    19     5     6    1
    20     5    43    1
    21     5    44    1
    22     6     7    1
    23     6    45    1
    24     6    46    1
    25     7     8    1
    26     7    47    1
    27     7    48    1
    28     8     9    1
    29     8    49    1
    30     8    50    1
    31     9    10    1
    32     9    51    1
    33     9    52    1
    34    10    11    1
    35    10    12    1
    36    11    53    1
    37    11    54    1
    38    11    55    1
    39    12    13    2
    40    12    14    1
    41    14    15    1
    42    14    24    1
    43    14    56    1
    44    15    16    1
    45    15    57    1
    46    15    58    1
    47    16    17    1
    48    16    59    1
    49    16    60    1
    50    17    18    1
    51    18    19    1
    52    18    61    1
    53    18    62    1
    54    19    20    1
    55    19    63    1
    56    19    64    1
    57    20    21    1
    58    20    65    1
    59    20    66    1
    60    21    22    1
    61    21    67    1
    62    21    68    1
    63    22    23    1
    64    22    69    1
    65    22    70    1
    66    23    71    1
    67    23    72    1
    68    23    73    1
    69    24    25    2
    70    24    26    1
    71    26    27    1
    72    26    28    1
    73    27    74    1
    74    27    75    1
    75    27    76    1
    76    28    29    1
    77    28    77    1
    78    28    78    1
    79    29    30    1
    80    29    79    1
    81    29    80    1
    82    30    31    1
    83    30    81    1
    84    30    82    1
    85    31    32    1
    86    31    83    1
    87    31    84    1
    88    32    33    1
    89    32    85    1
    90    32    86    1
    91    33    34    1
    92    33    87    1
    93    33    88    1
    94    34    35    1
    95    34    89    1
    96    34    90    1
    97    35    91    1
    98    35    92    1
    99    35    93    1
   100    94    95    1
   101    94   128    1
   102    94   129    1
   103    94   130    1
   104    95    96    1
   105    95   131    1
   106    95   132    1
   107    96    97    1
   108    96   133    1
   109    96   134    1
   110    97    98    1
   111    97   135    1
   112    97   136    1
   113    98    99    1
   114    98   137    1
   115    98   138    1
   116    99   100    1
   117    99   139    1
   118    99   140    1
   119   100   101    1
   120   100   141    1
   121   100   142    1
   122   101   102    1
   123   101   143    1
   124   101   144    1
   125   102   103    1
   126   102   104    1
   127   103   145    1
   128   103   146    1
   129   103   147    1
   130   104   105    2
   131   104   106    1
   132   106   107    1
   133   106   116    1
   134   106   148    1
   135   107   108    1
   136   107   149    1
   137   107   150    1
   138   108   109    1
   139   108   151    1
   140   108   152    1
   141   109   110    1
   142   110   111    1
   143   110   153    1
   144   110   154    1
   145   111   112    1
   146   111   155    1
   147   111   156    1
   148   112   113    1
   149   112   157    1
   150   112   158    1
   151   113   114    1
   152   113   159    1
   153   113   160    1
   154   114   115    1
   155   114   161    1
   156   114   162    1
   157   115   163    1
   158   115   164    1
   159   115   165    1
   160   116   117    2
   161   116   118    1
   162   118   119    1
   163   118   120    1
   164   119   166    1
   165   119   167    1
   166   119   168    1
   167   120   121    1
   168   120   169    1
   169   120   170    1
   170   121   122    1
   171   121   171    1
   172   121   172    1
   173   122   123    1
   174   122   173    1
   175   122   174    1
   176   123   124    1
   177   123   175    1
   178   123   176    1
   179   124   125    1
   180   124   177    1
   181   124   178    1
   182   125   126    1
   183   125   179    1
   184   125   180    1
   185   126   127    1
   186   126   181    1
   187   126   182    1
   188   127   183    1
   189   127   184    1
   190   127   185    1
   191   186   187    2
   192   186   188    1
   193   186   189    1
@<TRIPOS>SUBSTRUCTURE
     1 RES1      189 GROUP             0 ****  ****    0  
