@<TRIPOS>MOLECULE
YEMSEP_geometry_0_nunpairedes_0_charge_2 Charge: 2 Unpaired_Electrons: 0 XTB_Unpaired_Electrons: 0 XTB_Charge: 2
   131   143     1     0     0
SMALL
NoCharges
****
Generated from Architector

@<TRIPOS>ATOM
     1 Lu1      -0.1363    0.2492    0.0087   Lu        1 RES1   0.0000
     2 C1       -3.0439   -0.3265    6.7063   C.3       1 RES1   0.0000
     3 C2       -4.3602    0.4446    6.6163   C.3       1 RES1   0.0000
     4 C3       -5.4870   -0.3129    5.8896   C.3       1 RES1   0.0000
     5 C4       -6.3530    0.5949    4.9890   C.3       1 RES1   0.0000
     6 C5       -6.8848   -0.1135    3.7225   C.3       1 RES1   0.0000
     7 C6       -6.5194    0.6117    2.4128   C.3       1 RES1   0.0000
     8 C7       -6.1118   -0.3304    1.2670   C.3       1 RES1   0.0000
     9 C8       -5.1320    0.3505    0.2989   C.3       1 RES1   0.0000
    10 N1       -4.4773   -0.6156   -0.5809   N.am      1 RES1   0.0000
    11 C9       -3.1632   -0.7560   -0.5613   C.2       1 RES1   0.0000
    12 O1       -2.4515   -0.1414    0.2802   O.2       1 RES1   0.0000
    13 C10      -2.3889   -1.6719   -1.4760   C.ar      1 RES1   0.0000
    14 C11      -2.7754   -2.4101   -2.6073   C.ar      1 RES1   0.0000
    15 C12      -1.8847   -3.3119   -3.1533   C.ar      1 RES1   0.0000
    16 C13      -0.5924   -3.4634   -2.6185   C.ar      1 RES1   0.0000
    17 C14       0.3565   -4.4612   -2.9922   C.ar      1 RES1   0.0000
    18 C15       1.5574   -4.5466   -2.3652   C.ar      1 RES1   0.0000
    19 C16       1.9749   -3.5731   -1.4069   C.ar      1 RES1   0.0000
    20 C17       3.2040   -3.6197   -0.7227   C.ar      1 RES1   0.0000
    21 C18       3.5357   -2.5805    0.1178   C.ar      1 RES1   0.0000
    22 C19       2.6749   -1.4854    0.2426   C.ar      1 RES1   0.0000
    23 N2        1.4864   -1.4412   -0.3423   N.ar      1 RES1   0.0000
    24 C20       1.1171   -2.4911   -1.1135   C.ar      1 RES1   0.0000
    25 C21      -0.2337   -2.5322   -1.6186   C.ar      1 RES1   0.0000
    26 N3       -1.1220   -1.7049   -1.0605   N.ar      1 RES1   0.0000
    27 C22      -5.3529   -1.2920   -1.4755   C.ar      1 RES1   0.0000
    28 C23      -5.5487   -2.6647   -1.3891   C.ar      1 RES1   0.0000
    29 C24      -6.4043   -3.2887   -2.2827   C.ar      1 RES1   0.0000
    30 C25      -7.0725   -2.5562   -3.2619   C.ar      1 RES1   0.0000
    31 C26      -7.9724   -3.2028   -4.2622   C.3       1 RES1   0.0000
    32 C27      -6.8919   -1.1740   -3.3036   C.ar      1 RES1   0.0000
    33 C28      -6.0392   -0.5415   -2.4234   C.ar      1 RES1   0.0000
    34 H1       -2.3369    0.2303    7.3212   H         1 RES1   0.0000
    35 H2       -2.6044   -0.4366    5.7158   H         1 RES1   0.0000
    36 H3       -3.1847   -1.3208    7.1284   H         1 RES1   0.0000
    37 H4       -4.1568    1.3936    6.1142   H         1 RES1   0.0000
    38 H5       -4.6877    0.6982    7.6224   H         1 RES1   0.0000
    39 H6       -6.1161   -0.8137    6.6271   H         1 RES1   0.0000
    40 H7       -5.0537   -1.1240    5.3018   H         1 RES1   0.0000
    41 H8       -5.7854    1.4850    4.6964   H         1 RES1   0.0000
    42 H9       -7.1854    0.9765    5.5799   H         1 RES1   0.0000
    43 H10      -7.9626   -0.2402    3.8003   H         1 RES1   0.0000
    44 H11      -6.4809   -1.1263    3.6979   H         1 RES1   0.0000
    45 H12      -5.6821    1.2835    2.6142   H         1 RES1   0.0000
    46 H13      -7.3564    1.2330    2.0966   H         1 RES1   0.0000
    47 H14      -6.9921   -0.6595    0.7125   H         1 RES1   0.0000
    48 H15      -5.6373   -1.2265    1.6750   H         1 RES1   0.0000
    49 H16      -4.3526    0.8916    0.8396   H         1 RES1   0.0000
    50 H17      -5.6718    1.0620   -0.3305   H         1 RES1   0.0000
    51 H18      -3.7432   -2.2788   -3.0592   H         1 RES1   0.0000
    52 H19      -2.1764   -3.9090   -4.0044   H         1 RES1   0.0000
    53 H20       0.0864   -5.1721   -3.7577   H         1 RES1   0.0000
    54 H21       2.2421   -5.3490   -2.5918   H         1 RES1   0.0000
    55 H22       3.8676   -4.4612   -0.8658   H         1 RES1   0.0000
    56 H23       4.4613   -2.5833    0.6689   H         1 RES1   0.0000
    57 H24       2.9517   -0.6283    0.8526   H         1 RES1   0.0000
    58 H25      -5.0227   -3.2356   -0.6358   H         1 RES1   0.0000
    59 H26      -6.5576   -4.3562   -2.2135   H         1 RES1   0.0000
    60 H27      -7.8958   -4.2867   -4.2338   H         1 RES1   0.0000
    61 H28      -7.7304   -2.8495   -5.2642   H         1 RES1   0.0000
    62 H29      -9.0047   -2.9157   -4.0629   H         1 RES1   0.0000
    63 H30      -7.4219   -0.5804   -4.0338   H         1 RES1   0.0000
    64 H31      -5.8837    0.5248   -2.4825   H         1 RES1   0.0000
    65 C29      -2.2950    7.3175   -3.4227   C.3       1 RES1   0.0000
    66 C30      -3.2666    6.1500   -3.5361   C.3       1 RES1   0.0000
    67 C31      -2.7824    4.8547   -2.8810   C.3       1 RES1   0.0000
    68 C32      -1.7516    4.0544   -3.6830   C.3       1 RES1   0.0000
    69 C33      -0.2902    4.4917   -3.5664   C.3       1 RES1   0.0000
    70 C34       0.2638    4.4934   -2.1303   C.3       1 RES1   0.0000
    71 C35       1.6677    3.8853   -2.0537   C.3       1 RES1   0.0000
    72 C36       2.4744    4.3031   -0.8193   C.3       1 RES1   0.0000
    73 N4        1.9109    3.9559    0.4865   N.am      1 RES1   0.0000
    74 C37       1.4120    2.7530    0.7279   C.2       1 RES1   0.0000
    75 O2        1.5653    1.7777   -0.0502   O.2       1 RES1   0.0000
    76 C38       0.4873    2.5195    1.8892   C.ar      1 RES1   0.0000
    77 C39      -0.2979    3.4766    2.5549   C.ar      1 RES1   0.0000
    78 C40      -1.3820    3.0420    3.2779   C.ar      1 RES1   0.0000
    79 C41      -1.7147    1.6758    3.3020   C.ar      1 RES1   0.0000
    80 C42      -2.9970    1.1963    3.6661   C.ar      1 RES1   0.0000
    81 C43      -3.3672   -0.0788    3.3922   C.ar      1 RES1   0.0000
    82 C44      -2.4478   -1.0366    2.8891   C.ar      1 RES1   0.0000
    83 C45      -2.8040   -2.3677    2.6214   C.ar      1 RES1   0.0000
    84 C46      -1.8482   -3.2212    2.1257   C.ar      1 RES1   0.0000
    85 C47      -0.5823   -2.7135    1.8143   C.ar      1 RES1   0.0000
    86 N5       -0.2403   -1.4461    1.9734   N.ar      1 RES1   0.0000
    87 C48      -1.1354   -0.6255    2.5675   C.ar      1 RES1   0.0000
    88 C49      -0.8097    0.7767    2.6981   C.ar      1 RES1   0.0000
    89 N6        0.2667    1.2132    2.0291   N.ar      1 RES1   0.0000
    90 C50       1.9917    4.9222    1.5287   C.ar      1 RES1   0.0000
    91 C51       2.6067    4.5922    2.7340   C.ar      1 RES1   0.0000
    92 C52       2.5950    5.4986    3.7812   C.ar      1 RES1   0.0000
    93 C53       1.9713    6.7377    3.6587   C.ar      1 RES1   0.0000
    94 C54       1.9599    7.7212    4.7830   C.3       1 RES1   0.0000
    95 C55       1.3802    7.0595    2.4362   C.ar      1 RES1   0.0000
    96 C56       1.3995    6.1745    1.3756   C.ar      1 RES1   0.0000
    97 H32      -2.7740    8.2391   -3.7428   H         1 RES1   0.0000
    98 H33      -1.4171    7.1698   -4.0431   H         1 RES1   0.0000
    99 H34      -1.9780    7.4488   -2.3908   H         1 RES1   0.0000
   100 H35      -3.4860    5.9606   -4.5869   H         1 RES1   0.0000
   101 H36      -4.2020    6.4433   -3.0550   H         1 RES1   0.0000
   102 H37      -3.6496    4.2037   -2.7423   H         1 RES1   0.0000
   103 H38      -2.3926    5.0844   -1.8886   H         1 RES1   0.0000
   104 H39      -2.0259    4.0910   -4.7380   H         1 RES1   0.0000
   105 H40      -1.8228    3.0091   -3.3736   H         1 RES1   0.0000
   106 H41      -0.1694    5.4845   -3.9957   H         1 RES1   0.0000
   107 H42       0.3012    3.8095   -4.1827   H         1 RES1   0.0000
   108 H43      -0.4023    3.9372   -1.4666   H         1 RES1   0.0000
   109 H44       0.3038    5.5179   -1.7574   H         1 RES1   0.0000
   110 H45       2.2561    4.2238   -2.9104   H         1 RES1   0.0000
   111 H46       1.6021    2.7966   -2.1084   H         1 RES1   0.0000
   112 H47       2.5918    5.3877   -0.8288   H         1 RES1   0.0000
   113 H48       3.4713    3.8594   -0.8827   H         1 RES1   0.0000
   114 H49      -0.1399    4.5329    2.4177   H         1 RES1   0.0000
   115 H50      -2.0337    3.7508    3.7642   H         1 RES1   0.0000
   116 H51      -3.7006    1.8893    4.0941   H         1 RES1   0.0000
   117 H52      -4.3856   -0.3767    3.5452   H         1 RES1   0.0000
   118 H53      -3.8128   -2.7016    2.8167   H         1 RES1   0.0000
   119 H54      -2.0612   -4.2631    1.9530   H         1 RES1   0.0000
   120 H55       0.1893   -3.3755    1.4391   H         1 RES1   0.0000
   121 H56       3.0935    3.6324    2.8507   H         1 RES1   0.0000
   122 H57       3.0783    5.2460    4.7135   H         1 RES1   0.0000
   123 H58       2.4048    7.3098    5.6853   H         1 RES1   0.0000
   124 H59       0.9442    8.0435    5.0051   H         1 RES1   0.0000
   125 H60       2.5191    8.6095    4.4923   H         1 RES1   0.0000
   126 H61       0.8909    8.0154    2.3155   H         1 RES1   0.0000
   127 H62       0.9243    6.4399    0.4421   H         1 RES1   0.0000
   128 N7       -1.5393    1.4035   -1.3580   N.3       1 RES1   0.0000
   129 O3       -2.6295    1.4288   -1.8287   O.2       1 RES1   0.0000
   130 O4       -0.6302    0.7578   -1.8981   O.co2     1 RES1   0.0000
   131 O5       -1.2594    2.0074   -0.3157   O.co2     1 RES1   0.0000
@<TRIPOS>BOND
     1     1    12    1
     2     1    23    1
     3     1    26    1
     4     1    75    1
     5     1    86    1
     6     1    89    1
     7     1   130    1
     8     1   131    1
     9     2     3    1
    10     2    34    1
    11     2    35    1
    12     2    36    1
    13     3     4    1
    14     3    37    1
    15     3    38    1
    16     4     5    1
    17     4    39    1
    18     4    40    1
    19     5     6    1
    20     5    41    1
    21     5    42    1
    22     6     7    1
    23     6    43    1
    24     6    44    1
    25     7     8    1
    26     7    45    1
    27     7    46    1
    28     8     9    1
    29     8    47    1
    30     8    48    1
    31     9    10    1
    32     9    49    1
    33     9    50    1
    34    10    11    1
    35    10    27    1
    36    11    12    2
    37    11    13    1
    38    13    14    1
    39    13    26    2
    40    14    15    2
    41    14    51    1
    42    15    16    1
    43    15    52    1
    44    16    17    1
    45    16    25    2
    46    17    18    2
    47    17    53    1
    48    18    19    1
    49    18    54    1
    50    19    20    1
    51    19    24    2
    52    20    21    2
    53    20    55    1
    54    21    22    1
    55    21    56    1
    56    22    23    2
    57    22    57    1
    58    23    24    1
    59    24    25    1
    60    25    26    1
    61    27    28    1
    62    27    33    2
    63    28    29    2
    64    28    58    1
    65    29    30    1
    66    29    59    1
    67    30    31    1
    68    30    32    2
    69    31    60    1
    70    31    61    1
    71    31    62    1
    72    32    33    1
    73    32    63    1
    74    33    64    1
    75    65    66    1
    76    65    97    1
    77    65    98    1
    78    65    99    1
    79    66    67    1
    80    66   100    1
    81    66   101    1
    82    67    68    1
    83    67   102    1
    84    67   103    1
    85    68    69    1
    86    68   104    1
    87    68   105    1
    88    69    70    1
    89    69   106    1
    90    69   107    1
    91    70    71    1
    92    70   108    1
    93    70   109    1
    94    71    72    1
    95    71   110    1
    96    71   111    1
    97    72    73    1
    98    72   112    1
    99    72   113    1
   100    73    74    1
   101    73    90    1
   102    74    75    2
   103    74    76    1
   104    76    77    1
   105    76    89    2
   106    77    78    2
   107    77   114    1
   108    78    79    1
   109    78   115    1
   110    79    80    1
   111    79    88    2
   112    80    81    2
   113    80   116    1
   114    81    82    1
   115    81   117    1
   116    82    83    1
   117    82    87    2
   118    83    84    2
   119    83   118    1
   120    84    85    1
   121    84   119    1
   122    85    86    2
   123    85   120    1
   124    86    87    1
   125    87    88    1
   126    88    89    1
   127    90    91    1
   128    90    96    2
   129    91    92    2
   130    91   121    1
   131    92    93    1
   132    92   122    1
   133    93    94    1
   134    93    95    2
   135    94   123    1
   136    94   124    1
   137    94   125    1
   138    95    96    1
   139    95   126    1
   140    96   127    1
   141   128   129    2
   142   128   130    1
   143   128   131    1
@<TRIPOS>SUBSTRUCTURE
     1 RES1      131 GROUP             0 ****  ****    0  
