@<TRIPOS>MOLECULE
ICIGOT_geomtry_0_nunpairedes_0_charge_3 Charge: 3 Unpaired_Electrons: 0 XTB_Unpaired_Electrons: 0 XTB_Charge: 3
   241   248     1     0     0
SMALL
NoCharges
****
Generated from Architector

@<TRIPOS>ATOM
     1 Lu1       0.1466    0.2145   -0.0570   Lu        1 RES1   0.0000
     2 C1        1.3240    3.6089   -1.2530   C.3       1 RES1   0.0000
     3 C2        0.1021    3.8076   -2.1448   C.3       1 RES1   0.0000
     4 C3       -1.0616    4.3853   -1.3424   C.3       1 RES1   0.0000
     5 C4       -2.3534    4.4591   -2.1524   C.3       1 RES1   0.0000
     6 C5       -3.5249    5.0953   -1.3977   C.3       1 RES1   0.0000
     7 C6       -3.2518    6.5443   -0.9822   C.3       1 RES1   0.0000
     8 C7       -4.5218    7.3643   -0.7436   C.3       1 RES1   0.0000
     9 C8       -5.3458    6.9891    0.4919   C.3       1 RES1   0.0000
    10 C9       -4.9344    7.5616    1.8593   C.3       1 RES1   0.0000
    11 C10      -4.6558    9.0584    1.8242   C.3       1 RES1   0.0000
    12 C11      -6.0494    7.2766    2.8562   C.3       1 RES1   0.0000
    13 S1       -3.3131    6.8291    2.4682   S.3       1 RES1   0.0000
    14 C12      -3.7596    5.4054    3.5345   C.3       1 RES1   0.0000
    15 C13      -4.0755    4.2148    2.6518   C.3       1 RES1   0.0000
    16 C14      -2.8192    3.5798    2.0631   C.3       1 RES1   0.0000
    17 N1       -3.3200    2.3199    1.5276   N.am      1 RES1   0.0000
    18 C15      -2.5829    1.5358    0.7741   C.2       1 RES1   0.0000
    19 O1       -1.3479    1.6990    0.6281   O.2       1 RES1   0.0000
    20 C16      -3.2875    0.4191    0.0082   C.3       1 RES1   0.0000
    21 O2       -2.2945   -0.3733   -0.6286   O.3       1 RES1   0.0000
    22 C17      -2.5030   -0.6399   -2.0059   C.3       1 RES1   0.0000
    23 C18      -1.2890   -0.1642   -2.8123   C.2       1 RES1   0.0000
    24 O3       -0.3222    0.3787   -2.2158   O.2       1 RES1   0.0000
    25 N2       -1.3523   -0.3714   -4.1044   N.am      1 RES1   0.0000
    26 C19      -0.4076    0.1150   -5.1128   C.3       1 RES1   0.0000
    27 C20      -1.1130   -0.1538   -6.4550   C.3       1 RES1   0.0000
    28 C21      -2.0104    1.0171   -6.8378   C.3       1 RES1   0.0000
    29 C22      -1.8681   -1.4571   -6.1306   C.3       1 RES1   0.0000
    30 C23      -3.0039   -1.9495   -7.0167   C.3       1 RES1   0.0000
    31 S2       -3.6852   -3.4902   -6.2675   S.3       1 RES1   0.0000
    32 C24      -5.3999   -3.1582   -5.5266   C.3       1 RES1   0.0000
    33 C25      -5.9244   -1.7757   -5.8612   C.3       1 RES1   0.0000
    34 C26      -6.2749   -4.2229   -6.1708   C.3       1 RES1   0.0000
    35 C27      -5.2450   -3.3892   -4.0156   C.3       1 RES1   0.0000
    36 C28      -6.5093   -3.1535   -3.1822   C.3       1 RES1   0.0000
    37 C29      -6.4051   -3.7045   -1.7551   C.3       1 RES1   0.0000
    38 C30      -5.3819   -2.9790   -0.8808   C.3       1 RES1   0.0000
    39 C31      -5.2090   -3.6155    0.5026   C.3       1 RES1   0.0000
    40 C32      -6.4446   -3.5659    1.4043   C.3       1 RES1   0.0000
    41 C33      -6.8334   -2.1735    1.9023   C.3       1 RES1   0.0000
    42 C34      -5.8556   -1.6038    2.9257   C.3       1 RES1   0.0000
    43 C35      -2.3858   -1.1788   -4.7219   C.3       1 RES1   0.0000
    44 C36      -4.6739    2.0496    2.0048   C.3       1 RES1   0.0000
    45 C37      -4.8138    2.9906    3.2112   C.3       1 RES1   0.0000
    46 C38      -4.1826    2.3824    4.4586   C.3       1 RES1   0.0000
    47 H1        2.2048    3.4035   -1.8509   H         1 RES1   0.0000
    48 H2        1.5186    4.5142   -0.6799   H         1 RES1   0.0000
    49 H3        1.1552    2.7647   -0.5569   H         1 RES1   0.0000
    50 H4        0.3461    4.4918   -2.9596   H         1 RES1   0.0000
    51 H5       -0.1804    2.8412   -2.5778   H         1 RES1   0.0000
    52 H6       -1.2101    3.7536   -0.4628   H         1 RES1   0.0000
    53 H7       -0.7892    5.3848   -1.0013   H         1 RES1   0.0000
    54 H8       -2.1704    5.0348   -3.0618   H         1 RES1   0.0000
    55 H9       -2.6330    3.4434   -2.4572   H         1 RES1   0.0000
    56 H10      -4.3969    5.0796   -2.0561   H         1 RES1   0.0000
    57 H11      -3.7634    4.4843   -0.5228   H         1 RES1   0.0000
    58 H12      -2.6278    6.5748   -0.0894   H         1 RES1   0.0000
    59 H13      -2.7040    7.0281   -1.7923   H         1 RES1   0.0000
    60 H14      -4.2529    8.4174   -0.6874   H         1 RES1   0.0000
    61 H15      -5.1652    7.2523   -1.6201   H         1 RES1   0.0000
    62 H16      -6.3639    7.3462    0.3209   H         1 RES1   0.0000
    63 H17      -5.4116    5.9004    0.5546   H         1 RES1   0.0000
    64 H18      -5.5080    9.5917    1.4119   H         1 RES1   0.0000
    65 H19      -4.4716    9.4193    2.8333   H         1 RES1   0.0000
    66 H20      -3.7763    9.2857    1.2282   H         1 RES1   0.0000
    67 H21      -6.9231    7.8621    2.5824   H         1 RES1   0.0000
    68 H22      -6.3491    6.2304    2.8471   H         1 RES1   0.0000
    69 H23      -5.7660    7.5657    3.8654   H         1 RES1   0.0000
    70 H24      -2.8870    5.2183    4.1578   H         1 RES1   0.0000
    71 H25      -4.5929    5.6769    4.1742   H         1 RES1   0.0000
    72 H26      -4.6831    4.5884    1.8217   H         1 RES1   0.0000
    73 H27      -2.3780    4.1874    1.2744   H         1 RES1   0.0000
    74 H28      -2.0483    3.4042    2.8193   H         1 RES1   0.0000
    75 H29      -3.8898   -0.2108    0.6744   H         1 RES1   0.0000
    76 H30      -3.9606    0.8840   -0.7217   H         1 RES1   0.0000
    77 H31      -2.6353   -1.7225   -2.1302   H         1 RES1   0.0000
    78 H32      -3.4001   -0.1391   -2.3870   H         1 RES1   0.0000
    79 H33      -0.2057    1.1740   -4.9520   H         1 RES1   0.0000
    80 H34       0.5398   -0.4240   -5.0256   H         1 RES1   0.0000
    81 H35      -0.3795   -0.3089   -7.2471   H         1 RES1   0.0000
    82 H36      -2.7395    1.2373   -6.0620   H         1 RES1   0.0000
    83 H37      -1.4067    1.9064   -6.9996   H         1 RES1   0.0000
    84 H38      -2.5372    0.8075   -7.7623   H         1 RES1   0.0000
    85 H39      -1.1268   -2.2626   -6.0801   H         1 RES1   0.0000
    86 H40      -3.7991   -1.2221   -7.1361   H         1 RES1   0.0000
    87 H41      -2.6385   -2.2328   -8.0012   H         1 RES1   0.0000
    88 H42      -5.9445   -1.6194   -6.9368   H         1 RES1   0.0000
    89 H43      -6.9486   -1.6947   -5.5071   H         1 RES1   0.0000
    90 H44      -5.3511   -0.9791   -5.3893   H         1 RES1   0.0000
    91 H45      -6.2688   -4.1024   -7.2505   H         1 RES1   0.0000
    92 H46      -5.8985   -5.2149   -5.9347   H         1 RES1   0.0000
    93 H47      -7.3014   -4.1464   -5.8251   H         1 RES1   0.0000
    94 H48      -4.9182   -4.4216   -3.8729   H         1 RES1   0.0000
    95 H49      -4.4577   -2.7340   -3.6343   H         1 RES1   0.0000
    96 H50      -6.7328   -2.0851   -3.1387   H         1 RES1   0.0000
    97 H51      -7.3520   -3.6486   -3.6614   H         1 RES1   0.0000
    98 H52      -7.3892   -3.6205   -1.2924   H         1 RES1   0.0000
    99 H53      -6.1490   -4.7647   -1.7960   H         1 RES1   0.0000
   100 H54      -4.4083   -3.0092   -1.3797   H         1 RES1   0.0000
   101 H55      -5.6747   -1.9310   -0.7790   H         1 RES1   0.0000
   102 H56      -4.9399   -4.6644    0.3594   H         1 RES1   0.0000
   103 H57      -4.3683   -3.1315    1.0132   H         1 RES1   0.0000
   104 H58      -7.2872   -3.9966    0.8649   H         1 RES1   0.0000
   105 H59      -6.2617   -4.2025    2.2724   H         1 RES1   0.0000
   106 H60      -6.9348   -1.4876    1.0585   H         1 RES1   0.0000
   107 H61      -7.8114   -2.2489    2.3779   H         1 RES1   0.0000
   108 H62      -4.8642   -1.4548    2.4931   H         1 RES1   0.0000
   109 H63      -6.2205   -0.6497    3.3009   H         1 RES1   0.0000
   110 H64      -5.7599   -2.2826    3.7700   H         1 RES1   0.0000
   111 H65      -3.3312   -0.6307   -4.7712   H         1 RES1   0.0000
   112 H66      -2.5513   -2.1188   -4.1945   H         1 RES1   0.0000
   113 H67      -5.4085    2.2888    1.2308   H         1 RES1   0.0000
   114 H68      -4.7889    1.0027    2.2856   H         1 RES1   0.0000
   115 H69      -5.8584    3.2233    3.4173   H         1 RES1   0.0000
   116 H70      -3.1487    2.0920    4.2868   H         1 RES1   0.0000
   117 H71      -4.2114    3.0899    5.2809   H         1 RES1   0.0000
   118 H72      -4.7347    1.4958    4.7591   H         1 RES1   0.0000
   119 C39       3.6433    1.3591   -2.8508   C.3       1 RES1   0.0000
   120 C40       4.3472    1.2594   -1.4987   C.3       1 RES1   0.0000
   121 C41       4.8911   -0.1537   -1.3048   C.3       1 RES1   0.0000
   122 C42       5.6498   -0.3601    0.0040   C.3       1 RES1   0.0000
   123 C43       6.3105   -1.7410    0.1053   C.3       1 RES1   0.0000
   124 C44       7.2842   -2.0153   -1.0441   C.3       1 RES1   0.0000
   125 C45       8.2318   -3.1895   -0.7932   C.3       1 RES1   0.0000
   126 C46       7.6040   -4.5854   -0.8560   C.3       1 RES1   0.0000
   127 C47       7.3308   -5.2165   -2.2327   C.3       1 RES1   0.0000
   128 C48       8.4750   -5.0389   -3.2214   C.3       1 RES1   0.0000
   129 C49       7.0529   -6.7007   -2.0377   C.3       1 RES1   0.0000
   130 S3        5.8800   -4.3987   -3.1034   S.3       1 RES1   0.0000
   131 C50       4.3950   -5.3947   -2.6945   C.3       1 RES1   0.0000
   132 C51       3.8833   -4.9697   -1.3340   C.3       1 RES1   0.0000
   133 C52       3.3126   -3.5545   -1.3731   C.3       1 RES1   0.0000
   134 N3        2.5476   -3.4661   -0.1374   N.am      1 RES1   0.0000
   135 C53       2.0223   -2.3527    0.3210   C.2       1 RES1   0.0000
   136 O4        1.9907   -1.2695   -0.3043   O.2       1 RES1   0.0000
   137 C54       1.3764   -2.4187    1.7102   C.3       1 RES1   0.0000
   138 O5        0.8089   -1.1500    1.9839   O.3       1 RES1   0.0000
   139 C55       1.4244   -0.3840    3.0080   C.3       1 RES1   0.0000
   140 C56       1.5476    1.0639    2.5184   C.2       1 RES1   0.0000
   141 O6        1.4765    1.2946    1.2891   O.2       1 RES1   0.0000
   142 N4        1.7223    1.9797    3.4365   N.am      1 RES1   0.0000
   143 C57       2.0315    3.3870    3.1842   C.3       1 RES1   0.0000
   144 C58       2.7213    3.8389    4.4825   C.3       1 RES1   0.0000
   145 C59       4.2009    3.4766    4.4499   C.3       1 RES1   0.0000
   146 C60       1.8916    3.0649    5.5269   C.3       1 RES1   0.0000
   147 C61       2.3927    2.8782    6.9521   C.3       1 RES1   0.0000
   148 S4        1.1234    1.9128    7.8790   S.3       1 RES1   0.0000
   149 C62       1.7421    0.1529    8.2221   C.3       1 RES1   0.0000
   150 C63       3.2097   -0.0260    7.8867   C.3       1 RES1   0.0000
   151 C64       1.5191   -0.0137    9.7180   C.3       1 RES1   0.0000
   152 C65       0.8263   -0.7711    7.4054   C.3       1 RES1   0.0000
   153 C66       1.1306   -2.2685    7.5180   C.3       1 RES1   0.0000
   154 C67       0.0189   -3.1562    6.9459   C.3       1 RES1   0.0000
   155 C68      -0.1529   -3.0466    5.4303   C.3       1 RES1   0.0000
   156 C69      -1.3393   -3.8581    4.8975   C.3       1 RES1   0.0000
   157 C70      -1.2286   -5.3739    5.0802   C.3       1 RES1   0.0000
   158 C71      -0.1511   -6.0565    4.2370   C.3       1 RES1   0.0000
   159 C72      -0.4833   -6.0935    2.7486   C.3       1 RES1   0.0000
   160 C73       1.7249    1.7025    4.8590   C.3       1 RES1   0.0000
   161 C74       2.4262   -4.7790    0.4917   C.3       1 RES1   0.0000
   162 C75       2.7628   -5.7590   -0.6405   C.3       1 RES1   0.0000
   163 C76       1.5495   -6.0446   -1.5190   C.3       1 RES1   0.0000
   164 H73       3.4688    2.3943   -3.1295   H         1 RES1   0.0000
   165 H74       4.2682    0.9201   -3.6253   H         1 RES1   0.0000
   166 H75       2.6843    0.8324   -2.8230   H         1 RES1   0.0000
   167 H76       5.1741    1.9710   -1.4595   H         1 RES1   0.0000
   168 H77       3.6371    1.5065   -0.6985   H         1 RES1   0.0000
   169 H78       4.0435   -0.8378   -1.3502   H         1 RES1   0.0000
   170 H79       5.5583   -0.3811   -2.1360   H         1 RES1   0.0000
   171 H80       6.4263    0.4025    0.0892   H         1 RES1   0.0000
   172 H81       4.9590   -0.2238    0.8450   H         1 RES1   0.0000
   173 H82       6.8603   -1.7875    1.0486   H         1 RES1   0.0000
   174 H83       5.5376   -2.5139    0.1410   H         1 RES1   0.0000
   175 H84       6.7390   -2.1960   -1.9698   H         1 RES1   0.0000
   176 H85       7.8936   -1.1206   -1.1806   H         1 RES1   0.0000
   177 H86       9.0511   -3.1361   -1.5082   H         1 RES1   0.0000
   178 H87       8.6757   -3.0694    0.1983   H         1 RES1   0.0000
   179 H88       8.2937   -5.2669   -0.3524   H         1 RES1   0.0000
   180 H89       6.6844   -4.5874   -0.2657   H         1 RES1   0.0000
   181 H90       9.4021   -5.4168   -2.7996   H         1 RES1   0.0000
   182 H91       8.2559   -5.5891   -4.1336   H         1 RES1   0.0000
   183 H92       8.6089   -3.9947   -3.4905   H         1 RES1   0.0000
   184 H93       7.9695   -7.1892   -1.7181   H         1 RES1   0.0000
   185 H94       6.3081   -6.8800   -1.2643   H         1 RES1   0.0000
   186 H95       6.7376   -7.1727   -2.9653   H         1 RES1   0.0000
   187 H96       3.6730   -5.1713   -3.4778   H         1 RES1   0.0000
   188 H97       4.6383   -6.4512   -2.7328   H         1 RES1   0.0000
   189 H98       4.7383   -4.9760   -0.6509   H         1 RES1   0.0000
   190 H99       4.0989   -2.8044   -1.4048   H         1 RES1   0.0000
   191 H100      2.6734   -3.3915   -2.2474   H         1 RES1   0.0000
   192 H101      0.5621   -3.1552    1.7413   H         1 RES1   0.0000
   193 H102      2.1191   -2.7095    2.4602   H         1 RES1   0.0000
   194 H103      0.7996   -0.4387    3.9094   H         1 RES1   0.0000
   195 H104      2.4256   -0.7642    3.2487   H         1 RES1   0.0000
   196 H105      2.6669    3.4707    2.3030   H         1 RES1   0.0000
   197 H106      1.1077    3.9415    2.9929   H         1 RES1   0.0000
   198 H107      2.6228    4.9156    4.6202   H         1 RES1   0.0000
   199 H108      4.3524    2.4184    4.2495   H         1 RES1   0.0000
   200 H109      4.6996    4.0443    3.6682   H         1 RES1   0.0000
   201 H110      4.6751    3.7266    5.3928   H         1 RES1   0.0000
   202 H111      0.9120    3.5512    5.5913   H         1 RES1   0.0000
   203 H112      3.3478    2.3667    7.0029   H         1 RES1   0.0000
   204 H113      2.4764    3.8309    7.4695   H         1 RES1   0.0000
   205 H114      3.8185    0.7035    8.4147   H         1 RES1   0.0000
   206 H115      3.5282   -1.0107    8.2186   H         1 RES1   0.0000
   207 H116      3.4099    0.0396    6.8181   H         1 RES1   0.0000
   208 H117      2.0903    0.7330   10.2623   H         1 RES1   0.0000
   209 H118      0.4674    0.1150    9.9607   H         1 RES1   0.0000
   210 H119      1.8376   -0.9964   10.0528   H         1 RES1   0.0000
   211 H120     -0.1994   -0.5946    7.7369   H         1 RES1   0.0000
   212 H121      0.8904   -0.4890    6.3516   H         1 RES1   0.0000
   213 H122      2.0705   -2.4971    7.0103   H         1 RES1   0.0000
   214 H123      1.2493   -2.5325    8.5672   H         1 RES1   0.0000
   215 H124      0.2546   -4.1903    7.2000   H         1 RES1   0.0000
   216 H125     -0.9272   -2.9051    7.4287   H         1 RES1   0.0000
   217 H126     -0.3272   -1.9967    5.1706   H         1 RES1   0.0000
   218 H127      0.7705   -3.3647    4.9399   H         1 RES1   0.0000
   219 H128     -2.2391   -3.5232    5.4185   H         1 RES1   0.0000
   220 H129     -1.4761   -3.6341    3.8326   H         1 RES1   0.0000
   221 H130     -1.0419   -5.5859    6.1320   H         1 RES1   0.0000
   222 H131     -2.1935   -5.8196    4.8305   H         1 RES1   0.0000
   223 H132      0.8139   -5.5701    4.3942   H         1 RES1   0.0000
   224 H133     -0.0556   -7.0852    4.5848   H         1 RES1   0.0000
   225 H134     -0.5498   -5.0879    2.3279   H         1 RES1   0.0000
   226 H135      0.2806   -6.6485    2.2077   H         1 RES1   0.0000
   227 H136     -1.4377   -6.5896    2.5892   H         1 RES1   0.0000
   228 H137      2.5649    1.0517    5.1175   H         1 RES1   0.0000
   229 H138      0.7979    1.2375    5.1997   H         1 RES1   0.0000
   230 H139      3.1433   -4.8661    1.3132   H         1 RES1   0.0000
   231 H140      1.4233   -4.9393    0.8865   H         1 RES1   0.0000
   232 H141      3.1348   -6.7020   -0.2400   H         1 RES1   0.0000
   233 H142      1.1183   -5.1354   -1.9324   H         1 RES1   0.0000
   234 H143      1.8302   -6.6942   -2.3420   H         1 RES1   0.0000
   235 H144      0.7798   -6.5497   -0.9410   H         1 RES1   0.0000
   236 O7       -1.7017   -0.7522    2.0299   O.3       1 RES1   0.0000
   237 H145     -1.8073   -0.4158    2.9295   H         1 RES1   0.0000
   238 H146     -1.9767   -1.6777    2.0705   H         1 RES1   0.0000
   239 O8       -0.3074   -2.3047   -1.1136   O.3       1 RES1   0.0000
   240 H147     -0.5728   -3.2018   -0.8678   H         1 RES1   0.0000
   241 H148      0.2493   -2.4023   -1.8991   H         1 RES1   0.0000
@<TRIPOS>BOND
     1     1    19    1
     2     1    21    1
     3     1    24    1
     4     1   136    1
     5     1   138    1
     6     1   141    1
     7     1   236    1
     8     1   239    1
     9     2     3    1
    10     2    47    1
    11     2    48    1
    12     2    49    1
    13     3     4    1
    14     3    50    1
    15     3    51    1
    16     4     5    1
    17     4    52    1
    18     4    53    1
    19     5     6    1
    20     5    54    1
    21     5    55    1
    22     6     7    1
    23     6    56    1
    24     6    57    1
    25     7     8    1
    26     7    58    1
    27     7    59    1
    28     8     9    1
    29     8    60    1
    30     8    61    1
    31     9    10    1
    32     9    62    1
    33     9    63    1
    34    10    11    1
    35    10    12    1
    36    10    13    1
    37    11    64    1
    38    11    65    1
    39    11    66    1
    40    12    67    1
    41    12    68    1
    42    12    69    1
    43    13    14    1
    44    14    15    1
    45    14    70    1
    46    14    71    1
    47    15    16    1
    48    15    45    1
    49    15    72    1
    50    16    17    1
    51    16    73    1
    52    16    74    1
    53    17    18    1
    54    17    44    1
    55    18    19    2
    56    18    20    1
    57    20    21    1
    58    20    75    1
    59    20    76    1
    60    21    22    1
    61    22    23    1
    62    22    77    1
    63    22    78    1
    64    23    24    2
    65    23    25    1
    66    25    26    1
    67    25    43    1
    68    26    27    1
    69    26    79    1
    70    26    80    1
    71    27    28    1
    72    27    29    1
    73    27    81    1
    74    28    82    1
    75    28    83    1
    76    28    84    1
    77    29    30    1
    78    29    43    1
    79    29    85    1
    80    30    31    1
    81    30    86    1
    82    30    87    1
    83    31    32    1
    84    32    33    1
    85    32    34    1
    86    32    35    1
    87    33    88    1
    88    33    89    1
    89    33    90    1
    90    34    91    1
    91    34    92    1
    92    34    93    1
    93    35    36    1
    94    35    94    1
    95    35    95    1
    96    36    37    1
    97    36    96    1
    98    36    97    1
    99    37    38    1
   100    37    98    1
   101    37    99    1
   102    38    39    1
   103    38   100    1
   104    38   101    1
   105    39    40    1
   106    39   102    1
   107    39   103    1
   108    40    41    1
   109    40   104    1
   110    40   105    1
   111    41    42    1
   112    41   106    1
   113    41   107    1
   114    42   108    1
   115    42   109    1
   116    42   110    1
   117    43   111    1
   118    43   112    1
   119    44    45    1
   120    44   113    1
   121    44   114    1
   122    45    46    1
   123    45   115    1
   124    46   116    1
   125    46   117    1
   126    46   118    1
   127   119   120    1
   128   119   164    1
   129   119   165    1
   130   119   166    1
   131   120   121    1
   132   120   167    1
   133   120   168    1
   134   121   122    1
   135   121   169    1
   136   121   170    1
   137   122   123    1
   138   122   171    1
   139   122   172    1
   140   123   124    1
   141   123   173    1
   142   123   174    1
   143   124   125    1
   144   124   175    1
   145   124   176    1
   146   125   126    1
   147   125   177    1
   148   125   178    1
   149   126   127    1
   150   126   179    1
   151   126   180    1
   152   127   128    1
   153   127   129    1
   154   127   130    1
   155   128   181    1
   156   128   182    1
   157   128   183    1
   158   129   184    1
   159   129   185    1
   160   129   186    1
   161   130   131    1
   162   131   132    1
   163   131   187    1
   164   131   188    1
   165   132   133    1
   166   132   162    1
   167   132   189    1
   168   133   134    1
   169   133   190    1
   170   133   191    1
   171   134   135    1
   172   134   161    1
   173   135   136    2
   174   135   137    1
   175   137   138    1
   176   137   192    1
   177   137   193    1
   178   138   139    1
   179   139   140    1
   180   139   194    1
   181   139   195    1
   182   140   141    2
   183   140   142    1
   184   142   143    1
   185   142   160    1
   186   143   144    1
   187   143   196    1
   188   143   197    1
   189   144   145    1
   190   144   146    1
   191   144   198    1
   192   145   199    1
   193   145   200    1
   194   145   201    1
   195   146   147    1
   196   146   160    1
   197   146   202    1
   198   147   148    1
   199   147   203    1
   200   147   204    1
   201   148   149    1
   202   149   150    1
   203   149   151    1
   204   149   152    1
   205   150   205    1
   206   150   206    1
   207   150   207    1
   208   151   208    1
   209   151   209    1
   210   151   210    1
   211   152   153    1
   212   152   211    1
   213   152   212    1
   214   153   154    1
   215   153   213    1
   216   153   214    1
   217   154   155    1
   218   154   215    1
   219   154   216    1
   220   155   156    1
   221   155   217    1
   222   155   218    1
   223   156   157    1
   224   156   219    1
   225   156   220    1
   226   157   158    1
   227   157   221    1
   228   157   222    1
   229   158   159    1
   230   158   223    1
   231   158   224    1
   232   159   225    1
   233   159   226    1
   234   159   227    1
   235   160   228    1
   236   160   229    1
   237   161   162    1
   238   161   230    1
   239   161   231    1
   240   162   163    1
   241   162   232    1
   242   163   233    1
   243   163   234    1
   244   163   235    1
   245   236   237    1
   246   236   238    1
   247   239   240    1
   248   239   241    1
@<TRIPOS>SUBSTRUCTURE
     1 RES1      241 GROUP             0 ****  ****    0  
