@<TRIPOS>MOLECULE
ICIGOT_geomtry_0_nunpairedes_0_charge_3 Charge: 3 Unpaired_Electrons: 0 XTB_Unpaired_Electrons: 0 XTB_Charge: 3
   191   194     1     0     0
SMALL
NoCharges
****
Generated from Architector

@<TRIPOS>ATOM
     1 Lu1       0.0330    0.0618   -0.0374   Lu        1 RES1   0.0000
     2 C1        0.1614    1.3439    4.9457   C.3       1 RES1   0.0000
     3 C2       -0.7197    1.8357    6.0919   C.3       1 RES1   0.0000
     4 C3       -2.0990    2.3111    5.6414   C.3       1 RES1   0.0000
     5 C4       -2.9962    1.1895    5.1226   C.3       1 RES1   0.0000
     6 C5       -4.4037    1.7139    4.8480   C.3       1 RES1   0.0000
     7 C6       -5.3980    0.6594    4.3571   C.3       1 RES1   0.0000
     8 C7       -5.0078   -0.0524    3.0581   C.3       1 RES1   0.0000
     9 C8       -4.9652    0.9078    1.8587   C.3       1 RES1   0.0000
    10 N1       -4.2025    0.3387    0.7601   N.am      1 RES1   0.0000
    11 C9       -4.8531   -0.7687    0.0816   C.3       1 RES1   0.0000
    12 C10      -2.9702    0.6723    0.4416   C.2       1 RES1   0.0000
    13 O1       -2.2708    0.0129   -0.3719   O.2       1 RES1   0.0000
    14 C11      -2.2836    1.8990    1.0550   C.3       1 RES1   0.0000
    15 O2       -1.0935    2.1588    0.3126   O.3       1 RES1   0.0000
    16 C12      -1.2634    2.8880   -0.9133   C.3       1 RES1   0.0000
    17 C13      -0.6175    2.1371   -2.0768   C.2       1 RES1   0.0000
    18 O3       -0.0849    1.0252   -1.8387   O.2       1 RES1   0.0000
    19 N2       -0.6514    2.6002   -3.3132   N.am      1 RES1   0.0000
    20 C14      -0.1978    1.6529   -4.3498   C.3       1 RES1   0.0000
    21 C15       1.3087    1.3908   -4.3310   C.3       1 RES1   0.0000
    22 C16       1.7412    0.2566   -5.2692   C.3       1 RES1   0.0000
    23 C17       1.4412   -1.1467   -4.7330   C.3       1 RES1   0.0000
    24 C18       2.2462   -2.2606   -5.4218   C.3       1 RES1   0.0000
    25 C19       1.6368   -2.8226   -6.7082   C.3       1 RES1   0.0000
    26 C20       1.6989   -1.9058   -7.9266   C.3       1 RES1   0.0000
    27 C21       1.2961   -2.6500   -9.1960   C.3       1 RES1   0.0000
    28 C22      -1.4106    3.7825   -3.7237   C.3       1 RES1   0.0000
    29 C23      -1.0679    5.1752   -3.1613   C.3       1 RES1   0.0000
    30 C24       0.2302    5.8393   -3.6512   C.3       1 RES1   0.0000
    31 C25       1.4239    5.6812   -2.7091   C.3       1 RES1   0.0000
    32 C26       2.5846    6.5970   -3.1057   C.3       1 RES1   0.0000
    33 C27       3.7768    6.4855   -2.1590   C.3       1 RES1   0.0000
    34 C28       4.9971    7.2747   -2.6288   C.3       1 RES1   0.0000
    35 C29       6.1843    7.0886   -1.6881   C.3       1 RES1   0.0000
    36 H1        1.1505    1.0910    5.3221   H         1 RES1   0.0000
    37 H2        0.2734    2.1174    4.1855   H         1 RES1   0.0000
    38 H3       -0.2588    0.4549    4.4731   H         1 RES1   0.0000
    39 H4       -0.2112    2.6622    6.5897   H         1 RES1   0.0000
    40 H5       -0.8359    1.0403    6.8292   H         1 RES1   0.0000
    41 H6       -1.9861    3.0751    4.8684   H         1 RES1   0.0000
    42 H7       -2.5903    2.7808    6.4928   H         1 RES1   0.0000
    43 H8       -3.0436    0.3957    5.8682   H         1 RES1   0.0000
    44 H9       -2.5648    0.7638    4.2116   H         1 RES1   0.0000
    45 H10      -4.3474    2.5523    4.1484   H         1 RES1   0.0000
    46 H11      -4.7987    2.1131    5.7808   H         1 RES1   0.0000
    47 H12      -6.3741    1.1292    4.2191   H         1 RES1   0.0000
    48 H13      -5.5105   -0.1012    5.1320   H         1 RES1   0.0000
    49 H14      -5.7432   -0.8336    2.8691   H         1 RES1   0.0000
    50 H15      -4.0307   -0.5284    3.1756   H         1 RES1   0.0000
    51 H16      -4.5212    1.8470    2.1739   H         1 RES1   0.0000
    52 H17      -5.9796    1.1026    1.5070   H         1 RES1   0.0000
    53 H18      -5.7881   -0.4181   -0.3578   H         1 RES1   0.0000
    54 H19      -5.0718   -1.5656    0.7921   H         1 RES1   0.0000
    55 H20      -4.2110   -1.1474   -0.7105   H         1 RES1   0.0000
    56 H21      -1.9440    1.6759    2.0763   H         1 RES1   0.0000
    57 H22      -2.9308    2.7799    1.0940   H         1 RES1   0.0000
    58 H23      -0.7964    3.8691   -0.7845   H         1 RES1   0.0000
    59 H24      -2.3202    3.0413   -1.1420   H         1 RES1   0.0000
    60 H25      -0.4696    2.0501   -5.3254   H         1 RES1   0.0000
    61 H26      -0.7286    0.7095   -4.1934   H         1 RES1   0.0000
    62 H27       1.6352    1.1606   -3.3152   H         1 RES1   0.0000
    63 H28       1.7977    2.3069   -4.6430   H         1 RES1   0.0000
    64 H29       2.8204    0.3362   -5.4190   H         1 RES1   0.0000
    65 H30       1.2749    0.3981   -6.2418   H         1 RES1   0.0000
    66 H31       0.3766   -1.3694   -4.8387   H         1 RES1   0.0000
    67 H32       1.6957   -1.1478   -3.6623   H         1 RES1   0.0000
    68 H33       2.3359   -3.0960   -4.7225   H         1 RES1   0.0000
    69 H34       3.2554   -1.8996   -5.6259   H         1 RES1   0.0000
    70 H35       0.5998   -3.1112   -6.5225   H         1 RES1   0.0000
    71 H36       2.1823   -3.7338   -6.9569   H         1 RES1   0.0000
    72 H37       2.7131   -1.5214   -8.0459   H         1 RES1   0.0000
    73 H38       1.0304   -1.0539   -7.7975   H         1 RES1   0.0000
    74 H39       1.9735   -3.4787   -9.3896   H         1 RES1   0.0000
    75 H40       1.3239   -1.9824  -10.0540   H         1 RES1   0.0000
    76 H41       0.2873   -3.0493   -9.1078   H         1 RES1   0.0000
    77 H42      -2.4647    3.5761   -3.4955   H         1 RES1   0.0000
    78 H43      -1.3100    3.8574   -4.8067   H         1 RES1   0.0000
    79 H44      -1.0755    5.2033   -2.0730   H         1 RES1   0.0000
    80 H45      -1.9048    5.7952   -3.4943   H         1 RES1   0.0000
    81 H46       0.0319    6.9084   -3.7375   H         1 RES1   0.0000
    82 H47       0.4841    5.4746   -4.6463   H         1 RES1   0.0000
    83 H48       1.7605    4.6410   -2.6960   H         1 RES1   0.0000
    84 H49       1.1036    5.9400   -1.6983   H         1 RES1   0.0000
    85 H50       2.2324    7.6273   -3.1124   H         1 RES1   0.0000
    86 H51       2.9060    6.3582   -4.1175   H         1 RES1   0.0000
    87 H52       4.0602    5.4351   -2.0607   H         1 RES1   0.0000
    88 H53       3.4921    6.8573   -1.1730   H         1 RES1   0.0000
    89 H54       4.7496    8.3342   -2.6830   H         1 RES1   0.0000
    90 H55       5.2821    6.9552   -3.6328   H         1 RES1   0.0000
    91 H56       5.9395    7.4230   -0.6810   H         1 RES1   0.0000
    92 H57       7.0372    7.6661   -2.0352   H         1 RES1   0.0000
    93 H58       6.4858    6.0414   -1.6413   H         1 RES1   0.0000
    94 C30      -0.3367   -4.5397   -2.9459   C.3       1 RES1   0.0000
    95 C31       0.1903   -5.9704   -3.0029   C.3       1 RES1   0.0000
    96 C32       1.4060   -6.1973   -2.1067   C.3       1 RES1   0.0000
    97 C33       1.1059   -6.0571   -0.6163   C.3       1 RES1   0.0000
    98 C34       2.3364   -6.3989    0.2203   C.3       1 RES1   0.0000
    99 C35       2.1070   -6.3433    1.7322   C.3       1 RES1   0.0000
   100 C36       1.6903   -4.9760    2.2862   C.3       1 RES1   0.0000
   101 C37       2.8108   -3.9291    2.1737   C.3       1 RES1   0.0000
   102 N3        2.2939   -2.5882    2.4091   N.am      1 RES1   0.0000
   103 C38       2.0201   -2.2860    3.8047   C.3       1 RES1   0.0000
   104 C39       1.9114   -1.7562    1.4618   C.2       1 RES1   0.0000
   105 O4        1.1940   -0.7464    1.6806   O.2       1 RES1   0.0000
   106 C40       2.3116   -2.0163    0.0011   C.3       1 RES1   0.0000
   107 O5        2.0946   -0.8555   -0.8040   O.3       1 RES1   0.0000
   108 C41       3.1584    0.1072   -0.8290   C.3       1 RES1   0.0000
   109 C42       2.7591    1.3894   -0.0965   C.2       1 RES1   0.0000
   110 O6        1.5582    1.5004    0.2549   O.2       1 RES1   0.0000
   111 N4        3.6335    2.3392    0.1660   N.am      1 RES1   0.0000
   112 C43       3.1444    3.4105    1.0591   C.3       1 RES1   0.0000
   113 C44       2.2079    4.3973    0.3593   C.3       1 RES1   0.0000
   114 C45       1.4497    5.3290    1.3176   C.3       1 RES1   0.0000
   115 C46       0.3724    4.6393    2.1664   C.3       1 RES1   0.0000
   116 C47      -0.8421    5.5227    2.4974   C.3       1 RES1   0.0000
   117 C48      -0.6889    6.4239    3.7262   C.3       1 RES1   0.0000
   118 C49       0.2397    7.6229    3.5568   C.3       1 RES1   0.0000
   119 C50       0.1316    8.5753    4.7444   C.3       1 RES1   0.0000
   120 C51       5.0751    2.2501   -0.0927   C.3       1 RES1   0.0000
   121 C52       5.6329    1.8626   -1.4796   C.3       1 RES1   0.0000
   122 C53       5.5920    2.9157   -2.5988   C.3       1 RES1   0.0000
   123 C54       4.3456    2.9245   -3.4844   C.3       1 RES1   0.0000
   124 C55       4.5619    3.8435   -4.6924   C.3       1 RES1   0.0000
   125 C56       3.3493    3.9401   -5.6134   C.3       1 RES1   0.0000
   126 C57       3.5008    4.9774   -6.7246   C.3       1 RES1   0.0000
   127 C58       2.2250    5.0835   -7.5561   C.3       1 RES1   0.0000
   128 H59      -1.1489   -4.4115   -3.6575   H         1 RES1   0.0000
   129 H60       0.4629   -3.8446   -3.2051   H         1 RES1   0.0000
   130 H61      -0.7129   -4.3036   -1.9508   H         1 RES1   0.0000
   131 H62       0.4677   -6.1931   -4.0337   H         1 RES1   0.0000
   132 H63      -0.6051   -6.6598   -2.7189   H         1 RES1   0.0000
   133 H64       2.2021   -5.5019   -2.3844   H         1 RES1   0.0000
   134 H65       1.7781   -7.2033   -2.2917   H         1 RES1   0.0000
   135 H66       0.2902   -6.7299   -0.3518   H         1 RES1   0.0000
   136 H67       0.7799   -5.0357   -0.4011   H         1 RES1   0.0000
   137 H68       3.1667   -5.7515   -0.0726   H         1 RES1   0.0000
   138 H69       2.6345   -7.4182   -0.0211   H         1 RES1   0.0000
   139 H70       3.0164   -6.6660    2.2439   H         1 RES1   0.0000
   140 H71       1.3213   -7.0576    1.9859   H         1 RES1   0.0000
   141 H72       1.4292   -5.1068    3.3363   H         1 RES1   0.0000
   142 H73       0.8030   -4.6121    1.7613   H         1 RES1   0.0000
   143 H74       3.2635   -3.9971    1.1888   H         1 RES1   0.0000
   144 H75       3.5779   -4.1346    2.9211   H         1 RES1   0.0000
   145 H76       2.9479   -2.3642    4.3734   H         1 RES1   0.0000
   146 H77       1.3030   -2.9987    4.2126   H         1 RES1   0.0000
   147 H78       1.6284   -1.2755    3.9010   H         1 RES1   0.0000
   148 H79       1.6466   -2.7857   -0.4126   H         1 RES1   0.0000
   149 H80       3.3440   -2.3601   -0.0982   H         1 RES1   0.0000
   150 H81       3.3412    0.3384   -1.8843   H         1 RES1   0.0000
   151 H82       4.0701   -0.3008   -0.3924   H         1 RES1   0.0000
   152 H83       3.9992    3.9486    1.4621   H         1 RES1   0.0000
   153 H84       2.6034    2.9361    1.8822   H         1 RES1   0.0000
   154 H85       1.4932    3.8329   -0.2423   H         1 RES1   0.0000
   155 H86       2.8087    5.0111   -0.3065   H         1 RES1   0.0000
   156 H87       0.9702    6.1026    0.7123   H         1 RES1   0.0000
   157 H88       2.1704    5.8338    1.9582   H         1 RES1   0.0000
   158 H89       0.8018    4.2902    3.1055   H         1 RES1   0.0000
   159 H90       0.0235    3.7560    1.6214   H         1 RES1   0.0000
   160 H91      -1.6901    4.8611    2.7019   H         1 RES1   0.0000
   161 H92      -1.0999    6.1338    1.6286   H         1 RES1   0.0000
   162 H93      -0.3508    5.8202    4.5707   H         1 RES1   0.0000
   163 H94      -1.6773    6.8080    3.9855   H         1 RES1   0.0000
   164 H95      -0.0191    8.1648    2.6452   H         1 RES1   0.0000
   165 H96       1.2733    7.2896    3.4670   H         1 RES1   0.0000
   166 H97      -0.8774    8.9736    4.8296   H         1 RES1   0.0000
   167 H98       0.8171    9.4114    4.6265   H         1 RES1   0.0000
   168 H99       0.3750    8.0656    5.6747   H         1 RES1   0.0000
   169 H100      5.4798    1.5372    0.6394   H         1 RES1   0.0000
   170 H101      5.4863    3.2336    0.1375   H         1 RES1   0.0000
   171 H102      5.2179    0.9337   -1.8631   H         1 RES1   0.0000
   172 H103      6.6900    1.6648   -1.2782   H         1 RES1   0.0000
   173 H104      6.4400    2.7120   -3.2551   H         1 RES1   0.0000
   174 H105      5.7483    3.9073   -2.1750   H         1 RES1   0.0000
   175 H106      3.4755    3.2569   -2.9126   H         1 RES1   0.0000
   176 H107      4.1466    1.9090   -3.8356   H         1 RES1   0.0000
   177 H108      5.4130    3.4750   -5.2633   H         1 RES1   0.0000
   178 H109      4.8195    4.8389   -4.3358   H         1 RES1   0.0000
   179 H110      2.4711    4.2074   -5.0207   H         1 RES1   0.0000
   180 H111      3.1710    2.9711   -6.0829   H         1 RES1   0.0000
   181 H112      4.3302    4.7044   -7.3760   H         1 RES1   0.0000
   182 H113      3.7313    5.9537   -6.2956   H         1 RES1   0.0000
   183 H114      1.9775    4.1258   -8.0127   H         1 RES1   0.0000
   184 H115      2.3493    5.8131   -8.3521   H         1 RES1   0.0000
   185 H116      1.3837    5.4010   -6.9388   H         1 RES1   0.0000
   186 O7       -1.2147   -1.8584    1.1926   O.3       1 RES1   0.0000
   187 H117     -1.4811   -2.0088    2.1107   H         1 RES1   0.0000
   188 H118     -1.6237   -2.5747    0.6858   H         1 RES1   0.0000
   189 O8       -0.3871   -1.6949   -1.7263   O.3       1 RES1   0.0000
   190 H119      0.1159   -1.8648   -2.5457   H         1 RES1   0.0000
   191 H120     -1.3072   -1.6455   -2.0247   H         1 RES1   0.0000
@<TRIPOS>BOND
     1     1    13    1
     2     1    15    1
     3     1    18    1
     4     1   105    1
     5     1   107    1
     6     1   110    1
     7     1   186    1
     8     1   189    1
     9     2     3    1
    10     2    36    1
    11     2    37    1
    12     2    38    1
    13     3     4    1
    14     3    39    1
    15     3    40    1
    16     4     5    1
    17     4    41    1
    18     4    42    1
    19     5     6    1
    20     5    43    1
    21     5    44    1
    22     6     7    1
    23     6    45    1
    24     6    46    1
    25     7     8    1
    26     7    47    1
    27     7    48    1
    28     8     9    1
    29     8    49    1
    30     8    50    1
    31     9    10    1
    32     9    51    1
    33     9    52    1
    34    10    11    1
    35    10    12    1
    36    11    53    1
    37    11    54    1
    38    11    55    1
    39    12    13    2
    40    12    14    1
    41    14    15    1
    42    14    56    1
    43    14    57    1
    44    15    16    1
    45    16    17    1
    46    16    58    1
    47    16    59    1
    48    17    18    2
    49    17    19    1
    50    19    20    1
    51    19    28    1
    52    20    21    1
    53    20    60    1
    54    20    61    1
    55    21    22    1
    56    21    62    1
    57    21    63    1
    58    22    23    1
    59    22    64    1
    60    22    65    1
    61    23    24    1
    62    23    66    1
    63    23    67    1
    64    24    25    1
    65    24    68    1
    66    24    69    1
    67    25    26    1
    68    25    70    1
    69    25    71    1
    70    26    27    1
    71    26    72    1
    72    26    73    1
    73    27    74    1
    74    27    75    1
    75    27    76    1
    76    28    29    1
    77    28    77    1
    78    28    78    1
    79    29    30    1
    80    29    79    1
    81    29    80    1
    82    30    31    1
    83    30    81    1
    84    30    82    1
    85    31    32    1
    86    31    83    1
    87    31    84    1
    88    32    33    1
    89    32    85    1
    90    32    86    1
    91    33    34    1
    92    33    87    1
    93    33    88    1
    94    34    35    1
    95    34    89    1
    96    34    90    1
    97    35    91    1
    98    35    92    1
    99    35    93    1
   100    94    95    1
   101    94   128    1
   102    94   129    1
   103    94   130    1
   104    95    96    1
   105    95   131    1
   106    95   132    1
   107    96    97    1
   108    96   133    1
   109    96   134    1
   110    97    98    1
   111    97   135    1
   112    97   136    1
   113    98    99    1
   114    98   137    1
   115    98   138    1
   116    99   100    1
   117    99   139    1
   118    99   140    1
   119   100   101    1
   120   100   141    1
   121   100   142    1
   122   101   102    1
   123   101   143    1
   124   101   144    1
   125   102   103    1
   126   102   104    1
   127   103   145    1
   128   103   146    1
   129   103   147    1
   130   104   105    2
   131   104   106    1
   132   106   107    1
   133   106   148    1
   134   106   149    1
   135   107   108    1
   136   108   109    1
   137   108   150    1
   138   108   151    1
   139   109   110    2
   140   109   111    1
   141   111   112    1
   142   111   120    1
   143   112   113    1
   144   112   152    1
   145   112   153    1
   146   113   114    1
   147   113   154    1
   148   113   155    1
   149   114   115    1
   150   114   156    1
   151   114   157    1
   152   115   116    1
   153   115   158    1
   154   115   159    1
   155   116   117    1
   156   116   160    1
   157   116   161    1
   158   117   118    1
   159   117   162    1
   160   117   163    1
   161   118   119    1
   162   118   164    1
   163   118   165    1
   164   119   166    1
   165   119   167    1
   166   119   168    1
   167   120   121    1
   168   120   169    1
   169   120   170    1
   170   121   122    1
   171   121   171    1
   172   121   172    1
   173   122   123    1
   174   122   173    1
   175   122   174    1
   176   123   124    1
   177   123   175    1
   178   123   176    1
   179   124   125    1
   180   124   177    1
   181   124   178    1
   182   125   126    1
   183   125   179    1
   184   125   180    1
   185   126   127    1
   186   126   181    1
   187   126   182    1
   188   127   183    1
   189   127   184    1
   190   127   185    1
   191   186   187    1
   192   186   188    1
   193   189   190    1
   194   189   191    1
@<TRIPOS>SUBSTRUCTURE
     1 RES1      191 GROUP             0 ****  ****    0  
