@<TRIPOS>MOLECULE
ICIGOT_geomtry_0_nunpairedes_0_charge_3 Charge: 3 Unpaired_Electrons: 0 XTB_Unpaired_Electrons: 0 XTB_Charge: 3
    61    66     1     0     0
SMALL
NoCharges
****
Generated from Architector

@<TRIPOS>ATOM
     1 Lu1       0.0480    0.0136    0.1078   Lu        1 RES1   0.0000
     2 C1       -0.0255    3.4667   -0.4273   C.3       1 RES1   0.0000
     3 O1       -0.4956    2.1629   -0.8501   O.3       1 RES1   0.0000
     4 C2       -1.2485    2.2223   -2.0870   C.3       1 RES1   0.0000
     5 C3       -0.4523    1.7085   -3.3080   C.3       1 RES1   0.0000
     6 N1        0.3704    0.5020   -3.1082   N.am      1 RES1   0.0000
     7 C4        1.7641    0.6512   -3.5090   C.3       1 RES1   0.0000
     8 C5        2.4755    1.4710   -2.4138   C.3       1 RES1   0.0000
     9 O2        2.1260    0.9637   -1.1034   O.3       1 RES1   0.0000
    10 C6        3.1403    1.2643   -0.1165   C.3       1 RES1   0.0000
    11 C7       -0.0604   -0.5181   -2.3796   C.2       1 RES1   0.0000
    12 O3       -1.0489   -0.4055   -1.6104   O.2       1 RES1   0.0000
    13 C8        0.6853   -1.8692   -2.2482   C.3       1 RES1   0.0000
    14 O4        1.1604   -1.8150   -0.8970   O.3       1 RES1   0.0000
    15 C9        0.8913   -2.7931    0.1369   C.3       1 RES1   0.0000
    16 C10       0.9508   -1.8625    1.3704   C.2       1 RES1   0.0000
    17 O5        1.6894   -0.8722    1.1819   O.2       1 RES1   0.0000
    18 N2        0.2612   -1.9736    2.5027   N.am      1 RES1   0.0000
    19 C11       0.6255   -1.1299    3.6572   C.3       1 RES1   0.0000
    20 C12       0.9973    0.3391    3.3523   C.3       1 RES1   0.0000
    21 O6        0.1274    0.9540    2.3656   O.3       1 RES1   0.0000
    22 C13      -0.5968    2.0793    2.9089   C.3       1 RES1   0.0000
    23 C14      -1.0232   -2.6504    2.5846   C.3       1 RES1   0.0000
    24 C15      -2.1390   -1.5933    2.5253   C.3       1 RES1   0.0000
    25 O7       -1.9369   -0.6947    1.4093   O.3       1 RES1   0.0000
    26 C16      -3.1164    0.1074    1.1857   C.3       1 RES1   0.0000
    27 H1        0.5111    3.9722   -1.2322   H         1 RES1   0.0000
    28 H2        0.6571    3.3003    0.4091   H         1 RES1   0.0000
    29 H3       -0.8663    4.1022   -0.1204   H         1 RES1   0.0000
    30 H4       -1.5503    3.2566   -2.2853   H         1 RES1   0.0000
    31 H5       -2.1639    1.6401   -1.9376   H         1 RES1   0.0000
    32 H6        0.2064    2.4922   -3.6888   H         1 RES1   0.0000
    33 H7       -1.1839    1.4943   -4.0915   H         1 RES1   0.0000
    34 H8        1.8226    1.1657   -4.4723   H         1 RES1   0.0000
    35 H9        2.2469   -0.3198   -3.6166   H         1 RES1   0.0000
    36 H10       2.1736    2.5280   -2.4621   H         1 RES1   0.0000
    37 H11       3.5554    1.3960   -2.5807   H         1 RES1   0.0000
    38 H12       3.8750    1.9671   -0.5051   H         1 RES1   0.0000
    39 H13       3.6457    0.3404    0.1716   H         1 RES1   0.0000
    40 H14       2.6467    1.7020    0.7569   H         1 RES1   0.0000
    41 H15       1.5390   -1.9904   -2.9220   H         1 RES1   0.0000
    42 H16      -0.0206   -2.6813   -2.4250   H         1 RES1   0.0000
    43 H17       1.7410   -3.4921    0.1999   H         1 RES1   0.0000
    44 H18      -0.0382   -3.3491   -0.0184   H         1 RES1   0.0000
    45 H19       1.4931   -1.5850    4.1497   H         1 RES1   0.0000
    46 H20      -0.2117   -1.1617    4.3562   H         1 RES1   0.0000
    47 H21       2.0232    0.3961    2.9751   H         1 RES1   0.0000
    48 H22       0.9461    0.9009    4.2888   H         1 RES1   0.0000
    49 H23       0.0921    2.8334    3.2972   H         1 RES1   0.0000
    50 H24      -1.2636    1.7663    3.7174   H         1 RES1   0.0000
    51 H25      -1.1831    2.5137    2.0962   H         1 RES1   0.0000
    52 H26      -1.1076   -3.2143    3.5164   H         1 RES1   0.0000
    53 H27      -1.1240   -3.3426    1.7503   H         1 RES1   0.0000
    54 H28      -2.1816   -1.0064    3.4525   H         1 RES1   0.0000
    55 H29      -3.0934   -2.1192    2.4068   H         1 RES1   0.0000
    56 H30      -3.9921   -0.3628    1.6375   H         1 RES1   0.0000
    57 H31      -3.2730    0.1884    0.1083   H         1 RES1   0.0000
    58 H32      -2.9950    1.0990    1.6304   H         1 RES1   0.0000
    59 O8       -1.9727   -2.5994   -0.4116   O.3       1 RES1   0.0000
    60 H33      -2.0638   -3.1631   -1.1929   H         1 RES1   0.0000
    61 H34      -2.8866   -2.4409   -0.1498   H         1 RES1   0.0000
@<TRIPOS>BOND
     1     1     3    1
     2     1     9    1
     3     1    12    1
     4     1    14    1
     5     1    17    1
     6     1    21    1
     7     1    25    1
     8     1    59    1
     9     2     3    1
    10     2    27    1
    11     2    28    1
    12     2    29    1
    13     3     4    1
    14     4     5    1
    15     4    30    1
    16     4    31    1
    17     5     6    1
    18     5    32    1
    19     5    33    1
    20     6     7    1
    21     6    11    1
    22     7     8    1
    23     7    34    1
    24     7    35    1
    25     8     9    1
    26     8    36    1
    27     8    37    1
    28     9    10    1
    29    10    38    1
    30    10    39    1
    31    10    40    1
    32    11    12    2
    33    11    13    1
    34    13    14    1
    35    13    41    1
    36    13    42    1
    37    14    15    1
    38    15    16    1
    39    15    43    1
    40    15    44    1
    41    16    17    2
    42    16    18    1
    43    18    19    1
    44    18    23    1
    45    19    20    1
    46    19    45    1
    47    19    46    1
    48    20    21    1
    49    20    47    1
    50    20    48    1
    51    21    22    1
    52    22    49    1
    53    22    50    1
    54    22    51    1
    55    23    24    1
    56    23    52    1
    57    23    53    1
    58    24    25    1
    59    24    54    1
    60    24    55    1
    61    25    26    1
    62    26    56    1
    63    26    57    1
    64    26    58    1
    65    59    60    1
    66    59    61    1
@<TRIPOS>SUBSTRUCTURE
     1 RES1       61 GROUP             0 ****  ****    0  
