@<TRIPOS>MOLECULE
ICIGOT_geomtry_0_nunpairedes_0_charge_3 Charge: 3 Unpaired_Electrons: 0 XTB_Unpaired_Electrons: 0 XTB_Charge: 3
   145   158     1     0     0
SMALL
NoCharges
****
Generated from Architector

@<TRIPOS>ATOM
     1 Lu1      -0.0960   -0.0775    0.0982   Lu        1 RES1   0.0000
     2 C1        5.4560   -0.7339   -0.9917   C.3       1 RES1   0.0000
     3 C2        5.0522   -2.1971   -0.8744   C.3       1 RES1   0.0000
     4 N1        3.5963   -2.3235   -0.9445   N.am      1 RES1   0.0000
     5 C3        2.7057   -1.6664   -0.2042   C.2       1 RES1   0.0000
     6 O1        1.5057   -1.6330   -0.5697   O.2       1 RES1   0.0000
     7 C4        2.9764   -0.9506    1.1011   C.ar      1 RES1   0.0000
     8 C5        4.0780   -1.1001    1.9383   C.ar      1 RES1   0.0000
     9 C6        4.1411   -0.3286    3.0882   C.ar      1 RES1   0.0000
    10 C7        3.0975    0.5178    3.4239   C.ar      1 RES1   0.0000
    11 C8        1.9504    0.4917    2.6264   C.ar      1 RES1   0.0000
    12 C9        0.7062    1.2114    2.9908   C.ar      1 RES1   0.0000
    13 C10       0.6332    2.1737    3.9995   C.ar      1 RES1   0.0000
    14 C11      -0.5530    2.8689    4.1650   C.ar      1 RES1   0.0000
    15 C12      -1.6211    2.6432    3.3101   C.ar      1 RES1   0.0000
    16 C13      -1.5025    1.6110    2.3842   C.ar      1 RES1   0.0000
    17 C14      -2.5254    1.2123    1.3493   C.2       1 RES1   0.0000
    18 O2       -2.0735    0.7477    0.2675   O.2       1 RES1   0.0000
    19 N2       -3.8292    1.3529    1.5376   N.am      1 RES1   0.0000
    20 C15      -4.7463    0.8963    0.4860   C.3       1 RES1   0.0000
    21 C16      -5.6640   -0.2089    0.9862   C.3       1 RES1   0.0000
    22 C17      -4.4358    1.9209    2.6973   C.ar      1 RES1   0.0000
    23 C18      -5.2991    2.9981    2.5016   C.ar      1 RES1   0.0000
    24 C19      -5.8947    3.6273    3.5734   C.ar      1 RES1   0.0000
    25 C20      -5.6184    3.2100    4.8697   C.ar      1 RES1   0.0000
    26 C21      -6.1932    3.9120    6.0502   C.3       1 RES1   0.0000
    27 C22      -4.7845    2.1126    5.0453   C.ar      1 RES1   0.0000
    28 C23      -4.1954    1.4333    3.9863   C.ar      1 RES1   0.0000
    29 C24      -3.3440    0.2317    4.2785   C.3       1 RES1   0.0000
    30 N3       -0.3697    0.9100    2.2532   N.ar      1 RES1   0.0000
    31 N4        1.9258   -0.2075    1.4818   N.ar      1 RES1   0.0000
    32 C25       3.0861   -3.2623   -1.9198   C.ar      1 RES1   0.0000
    33 C26       2.4569   -4.4057   -1.4318   C.ar      1 RES1   0.0000
    34 C27       2.0878   -5.4352   -2.2780   C.ar      1 RES1   0.0000
    35 C28       2.3215   -5.3485   -3.6490   C.ar      1 RES1   0.0000
    36 C29       1.9939   -6.4839   -4.5665   C.3       1 RES1   0.0000
    37 C30       2.8915   -4.1768   -4.1268   C.ar      1 RES1   0.0000
    38 C31       3.2857   -3.1302   -3.2979   C.ar      1 RES1   0.0000
    39 C32       3.9036   -1.9154   -3.9201   C.3       1 RES1   0.0000
    40 H1        6.5330   -0.6313   -0.9801   H         1 RES1   0.0000
    41 H2        5.0448   -0.1492   -0.1747   H         1 RES1   0.0000
    42 H3        5.0974   -0.3138   -1.9255   H         1 RES1   0.0000
    43 H4        5.4236   -2.6544    0.0463   H         1 RES1   0.0000
    44 H5        5.4644   -2.7923   -1.6947   H         1 RES1   0.0000
    45 H6        4.8623   -1.8050    1.7278   H         1 RES1   0.0000
    46 H7        5.0094   -0.4108    3.7195   H         1 RES1   0.0000
    47 H8        3.1768    1.1267    4.3113   H         1 RES1   0.0000
    48 H9        1.4795    2.4333    4.6166   H         1 RES1   0.0000
    49 H10      -0.6325    3.6225    4.9277   H         1 RES1   0.0000
    50 H11      -2.4971    3.2684    3.3473   H         1 RES1   0.0000
    51 H12      -4.1295    0.5469   -0.3449   H         1 RES1   0.0000
    52 H13      -5.3430    1.7478    0.1503   H         1 RES1   0.0000
    53 H14      -5.0873   -1.0736    1.3028   H         1 RES1   0.0000
    54 H15      -6.3218   -0.4996    0.1733   H         1 RES1   0.0000
    55 H16      -6.2727    0.1376    1.8166   H         1 RES1   0.0000
    56 H17      -5.4895    3.3683    1.5066   H         1 RES1   0.0000
    57 H18      -6.5672    4.4518    3.4034   H         1 RES1   0.0000
    58 H19      -6.8287    4.7378    5.7424   H         1 RES1   0.0000
    59 H20      -5.3928    4.2915    6.6845   H         1 RES1   0.0000
    60 H21      -6.7758    3.2131    6.6473   H         1 RES1   0.0000
    61 H22      -4.6013    1.7754    6.0534   H         1 RES1   0.0000
    62 H23      -3.9207   -0.4708    4.8770   H         1 RES1   0.0000
    63 H24      -2.4715    0.5283    4.8604   H         1 RES1   0.0000
    64 H25      -2.9964   -0.2789    3.3823   H         1 RES1   0.0000
    65 H26       2.2938   -4.5042   -0.3674   H         1 RES1   0.0000
    66 H27       1.6555   -6.3398   -1.8732   H         1 RES1   0.0000
    67 H28       0.9327   -6.7276   -4.5202   H         1 RES1   0.0000
    68 H29       2.5522   -7.3696   -4.2634   H         1 RES1   0.0000
    69 H30       2.2524   -6.2531   -5.5974   H         1 RES1   0.0000
    70 H31       3.0676   -4.0935   -5.1900   H         1 RES1   0.0000
    71 H32       3.8817   -2.0000   -5.0038   H         1 RES1   0.0000
    72 H33       4.9452   -1.8153   -3.6248   H         1 RES1   0.0000
    73 H34       3.3655   -1.0159   -3.6194   H         1 RES1   0.0000
    74 C33      -1.9311    4.4495   -2.0563   C.3       1 RES1   0.0000
    75 C34      -0.5926    5.0511   -1.6471   C.3       1 RES1   0.0000
    76 N5        0.0450    4.2447   -0.6014   N.am      1 RES1   0.0000
    77 C35       0.3920    2.9774   -0.7965   C.2       1 RES1   0.0000
    78 O3        0.7097    2.1862    0.1249   O.2       1 RES1   0.0000
    79 C36       0.4059    2.3536   -2.1666   C.ar      1 RES1   0.0000
    80 C37       0.9738    2.8848   -3.3210   C.ar      1 RES1   0.0000
    81 C38       1.0374    2.0796   -4.4477   C.ar      1 RES1   0.0000
    82 C39       0.5486    0.7838   -4.4001   C.ar      1 RES1   0.0000
    83 C40       0.0314    0.3058   -3.1936   C.ar      1 RES1   0.0000
    84 C41      -0.4505   -1.0834   -3.0067   C.ar      1 RES1   0.0000
    85 C42      -0.6318   -1.9645   -4.0715   C.ar      1 RES1   0.0000
    86 C43      -1.1872   -3.2020   -3.7966   C.ar      1 RES1   0.0000
    87 C44      -1.4078   -3.5887   -2.4820   C.ar      1 RES1   0.0000
    88 C45      -1.0455   -2.7127   -1.4571   C.ar      1 RES1   0.0000
    89 C46      -1.0611   -2.9879    0.0343   C.2       1 RES1   0.0000
    90 O4       -1.1120   -1.9766    0.7869   O.2       1 RES1   0.0000
    91 N6       -0.9905   -4.2283    0.5332   N.am      1 RES1   0.0000
    92 C47      -0.5638   -5.4151   -0.2082   C.3       1 RES1   0.0000
    93 C48      -1.6136   -6.5192   -0.2631   C.3       1 RES1   0.0000
    94 C49      -1.4212   -4.4843    1.8854   C.ar      1 RES1   0.0000
    95 C50      -2.6534   -3.9332    2.2464   C.ar      1 RES1   0.0000
    96 C51      -3.2659   -4.2339    3.4455   C.ar      1 RES1   0.0000
    97 C52      -2.6649   -5.1232    4.3282   C.ar      1 RES1   0.0000
    98 C53      -3.3145   -5.5579    5.5972   C.3       1 RES1   0.0000
    99 C54      -1.4160   -5.6208    3.9859   C.ar      1 RES1   0.0000
   100 C55      -0.7603   -5.3316    2.7948   C.ar      1 RES1   0.0000
   101 C56       0.5978   -5.9592    2.6233   C.3       1 RES1   0.0000
   102 N7       -0.6887   -1.4550   -1.7452   N.ar      1 RES1   0.0000
   103 N8       -0.0133    1.0823   -2.1041   N.ar      1 RES1   0.0000
   104 C57      -0.0006    4.7844    0.7254   C.ar      1 RES1   0.0000
   105 C58      -1.1626    5.4494    1.1273   C.ar      1 RES1   0.0000
   106 C59      -1.2805    5.9834    2.3903   C.ar      1 RES1   0.0000
   107 C60      -0.2406    5.8613    3.3087   C.ar      1 RES1   0.0000
   108 C61      -0.3889    6.3904    4.6984   C.3       1 RES1   0.0000
   109 C62       0.9220    5.2422    2.8821   C.ar      1 RES1   0.0000
   110 C63       1.0821    4.7107    1.6027   C.ar      1 RES1   0.0000
   111 C64       2.4304    4.1498    1.2645   C.3       1 RES1   0.0000
   112 H35      -2.4134    5.0968   -2.7772   H         1 RES1   0.0000
   113 H36      -2.5937    4.3403   -1.2034   H         1 RES1   0.0000
   114 H37      -1.8003    3.4669   -2.5018   H         1 RES1   0.0000
   115 H38      -0.7083    6.0576   -1.2391   H         1 RES1   0.0000
   116 H39       0.0695    5.1366   -2.5071   H         1 RES1   0.0000
   117 H40       1.4192    3.8671   -3.3399   H         1 RES1   0.0000
   118 H41       1.5004    2.4598   -5.3426   H         1 RES1   0.0000
   119 H42       0.6470    0.1471   -5.2641   H         1 RES1   0.0000
   120 H43      -0.3985   -1.6791   -5.0857   H         1 RES1   0.0000
   121 H44      -1.4384   -3.8664   -4.6065   H         1 RES1   0.0000
   122 H45      -1.8718   -4.5378   -2.2764   H         1 RES1   0.0000
   123 H46       0.3161   -5.8095    0.3019   H         1 RES1   0.0000
   124 H47      -0.2442   -5.1118   -1.2014   H         1 RES1   0.0000
   125 H48      -1.8587   -6.8757    0.7323   H         1 RES1   0.0000
   126 H49      -1.2062   -7.3515   -0.8284   H         1 RES1   0.0000
   127 H50      -2.5341   -6.1962   -0.7378   H         1 RES1   0.0000
   128 H51      -3.1586   -3.2784    1.5506   H         1 RES1   0.0000
   129 H52      -4.2322   -3.8122    3.6779   H         1 RES1   0.0000
   130 H53      -4.2975   -5.1083    5.7028   H         1 RES1   0.0000
   131 H54      -2.6936   -5.2850    6.4499   H         1 RES1   0.0000
   132 H55      -3.4153   -6.6433    5.6102   H         1 RES1   0.0000
   133 H56      -0.9356   -6.2887    4.6841   H         1 RES1   0.0000
   134 H57       0.9583   -6.3000    3.5921   H         1 RES1   0.0000
   135 H58       1.3251   -5.2585    2.2173   H         1 RES1   0.0000
   136 H59       0.5545   -6.8441    1.9885   H         1 RES1   0.0000
   137 H60      -1.9950    5.5735    0.4542   H         1 RES1   0.0000
   138 H61      -2.1823    6.5101    2.6638   H         1 RES1   0.0000
   139 H62      -0.5548    7.4660    4.6647   H         1 RES1   0.0000
   140 H63       0.4976    6.1946    5.2971   H         1 RES1   0.0000
   141 H64      -1.2577    5.9403    5.1807   H         1 RES1   0.0000
   142 H65       1.7590    5.1976    3.5632   H         1 RES1   0.0000
   143 H66       3.1850    4.9036    1.4839   H         1 RES1   0.0000
   144 H67       2.5327    3.8552    0.2252   H         1 RES1   0.0000
   145 H68       2.6258    3.2763    1.8872   H         1 RES1   0.0000
@<TRIPOS>BOND
     1     1     6    1
     2     1    18    1
     3     1    30    1
     4     1    31    1
     5     1    78    1
     6     1    90    1
     7     1   102    1
     8     1   103    1
     9     2     3    1
    10     2    40    1
    11     2    41    1
    12     2    42    1
    13     3     4    1
    14     3    43    1
    15     3    44    1
    16     4     5    1
    17     4    32    1
    18     5     6    2
    19     5     7    1
    20     7     8    1
    21     7    31    2
    22     8     9    2
    23     8    45    1
    24     9    10    1
    25     9    46    1
    26    10    11    2
    27    10    47    1
    28    11    12    1
    29    11    31    1
    30    12    13    1
    31    12    30    2
    32    13    14    2
    33    13    48    1
    34    14    15    1
    35    14    49    1
    36    15    16    2
    37    15    50    1
    38    16    17    1
    39    16    30    1
    40    17    18    2
    41    17    19    1
    42    19    20    1
    43    19    22    1
    44    20    21    1
    45    20    51    1
    46    20    52    1
    47    21    53    1
    48    21    54    1
    49    21    55    1
    50    22    23    1
    51    22    28    2
    52    23    24    2
    53    23    56    1
    54    24    25    1
    55    24    57    1
    56    25    26    1
    57    25    27    2
    58    26    58    1
    59    26    59    1
    60    26    60    1
    61    27    28    1
    62    27    61    1
    63    28    29    1
    64    29    62    1
    65    29    63    1
    66    29    64    1
    67    32    33    1
    68    32    38    2
    69    33    34    2
    70    33    65    1
    71    34    35    1
    72    34    66    1
    73    35    36    1
    74    35    37    2
    75    36    67    1
    76    36    68    1
    77    36    69    1
    78    37    38    1
    79    37    70    1
    80    38    39    1
    81    39    71    1
    82    39    72    1
    83    39    73    1
    84    74    75    1
    85    74   112    1
    86    74   113    1
    87    74   114    1
    88    75    76    1
    89    75   115    1
    90    75   116    1
    91    76    77    1
    92    76   104    1
    93    77    78    2
    94    77    79    1
    95    79    80    1
    96    79   103    2
    97    80    81    2
    98    80   117    1
    99    81    82    1
   100    81   118    1
   101    82    83    2
   102    82   119    1
   103    83    84    1
   104    83   103    1
   105    84    85    1
   106    84   102    2
   107    85    86    2
   108    85   120    1
   109    86    87    1
   110    86   121    1
   111    87    88    2
   112    87   122    1
   113    88    89    1
   114    88   102    1
   115    89    90    2
   116    89    91    1
   117    91    92    1
   118    91    94    1
   119    92    93    1
   120    92   123    1
   121    92   124    1
   122    93   125    1
   123    93   126    1
   124    93   127    1
   125    94    95    1
   126    94   100    2
   127    95    96    2
   128    95   128    1
   129    96    97    1
   130    96   129    1
   131    97    98    1
   132    97    99    2
   133    98   130    1
   134    98   131    1
   135    98   132    1
   136    99   100    1
   137    99   133    1
   138   100   101    1
   139   101   134    1
   140   101   135    1
   141   101   136    1
   142   104   105    1
   143   104   110    2
   144   105   106    2
   145   105   137    1
   146   106   107    1
   147   106   138    1
   148   107   108    1
   149   107   109    2
   150   108   139    1
   151   108   140    1
   152   108   141    1
   153   109   110    1
   154   109   142    1
   155   110   111    1
   156   111   143    1
   157   111   144    1
   158   111   145    1
@<TRIPOS>SUBSTRUCTURE
     1 RES1      145 GROUP             0 ****  ****    0  
