@<TRIPOS>MOLECULE
dodecahedral_0_nunpairedes_0_charge_3 Charge: 3 Unpaired_Electrons: 0 XTB_Unpaired_Electrons: 0 XTB_Charge: 3
    65    73     1     0     0
SMALL
NoCharges
****
Generated from Architector

@<TRIPOS>ATOM
     1 Lu1      -1.4534   -0.6168   -1.6725   Lu        1 RES1   0.0000
     2 C1       -3.5642   -6.3512   -1.8624   C.3       1 RES1   0.0000
     3 C2       -3.2850   -6.3691   -0.3653   C.3       1 RES1   0.0000
     4 C3       -1.9236   -5.7609    0.0775   C.3       1 RES1   0.0000
     5 C4       -1.7558   -4.4486   -0.5147   C.ar      1 RES1   0.0000
     6 N1       -2.6010   -3.4813   -0.4095   N.ar      1 RES1   0.0000
     7 N2       -2.6074   -2.6090   -1.3444   N.ar      1 RES1   0.0000
     8 C5       -1.7556   -3.1634   -2.4677   C.ar      1 RES1   0.0000
     9 C6       -2.2096   -2.6638   -3.8036   C.ar      1 RES1   0.0000
    10 C7       -2.7490   -3.2519   -4.9398   C.ar      1 RES1   0.0000
    11 C8       -3.2663   -2.4013   -5.9218   C.ar      1 RES1   0.0000
    12 C9       -3.2563   -1.0141   -5.7795   C.ar      1 RES1   0.0000
    13 C10      -2.7258   -0.5120   -4.5996   C.ar      1 RES1   0.0000
    14 C11      -2.5887    0.8551   -4.0527   C.ar      1 RES1   0.0000
    15 N3       -1.4077    1.1707   -3.2068   N.ar      1 RES1   0.0000
    16 N4       -1.0640    2.5038   -3.3564   N.ar      1 RES1   0.0000
    17 C12      -2.1366    3.1473   -3.6459   C.ar      1 RES1   0.0000
    18 C13      -2.1986    4.5350   -4.1027   C.3       1 RES1   0.0000
    19 C14      -1.0815    4.8148   -5.1352   C.3       1 RES1   0.0000
    20 C15      -1.1085    3.8285   -6.2894   C.3       1 RES1   0.0000
    21 C16      -3.2678    2.1230   -3.6002   C.ar      1 RES1   0.0000
    22 C17      -4.7397    2.3918   -3.6549   C.3       1 RES1   0.0000
    23 C18      -5.4668    1.6891   -4.8121   C.3       1 RES1   0.0000
    24 C19      -5.1029    2.2401   -6.1869   C.3       1 RES1   0.0000
    25 N5       -2.7688    1.0737   -2.6522   N.ar      1 RES1   0.0000
    26 N6       -2.1990   -1.3278   -3.6779   N.ar      1 RES1   0.0000
    27 N7       -0.5544   -2.6807   -1.8710   N.ar      1 RES1   0.0000
    28 C20      -0.8206   -4.0633   -1.6798   C.ar      1 RES1   0.0000
    29 C21       0.1874   -5.1193   -2.0945   C.3       1 RES1   0.0000
    30 C22       1.0387   -4.7061   -3.2918   C.3       1 RES1   0.0000
    31 C23       1.9602   -3.5483   -2.9731   C.3       1 RES1   0.0000
    32 H1       -4.4939   -6.8917   -2.0249   H         1 RES1   0.0000
    33 H2       -2.7799   -6.8446   -2.4313   H         1 RES1   0.0000
    34 H3       -3.7039   -5.3438   -2.2550   H         1 RES1   0.0000
    35 H4       -3.2943   -7.3958   -0.0110   H         1 RES1   0.0000
    36 H5       -4.0840   -5.8400    0.1491   H         1 RES1   0.0000
    37 H6       -1.0844   -6.4257   -0.1256   H         1 RES1   0.0000
    38 H7       -1.9956   -5.6534    1.1689   H         1 RES1   0.0000
    39 H8       -2.7657   -4.3221   -5.0785   H         1 RES1   0.0000
    40 H9       -3.7332   -2.8287   -6.7989   H         1 RES1   0.0000
    41 H10      -3.6398   -0.3742   -6.5617   H         1 RES1   0.0000
    42 H11      -2.0693    5.2220   -3.2581   H         1 RES1   0.0000
    43 H12      -3.1719    4.7451   -4.5515   H         1 RES1   0.0000
    44 H13      -0.1037    4.8018   -4.6519   H         1 RES1   0.0000
    45 H14      -1.2400    5.8258   -5.5125   H         1 RES1   0.0000
    46 H15      -0.7255    2.8546   -5.9905   H         1 RES1   0.0000
    47 H16      -0.4859    4.1856   -7.1028   H         1 RES1   0.0000
    48 H17      -2.1179    3.6938   -6.6718   H         1 RES1   0.0000
    49 H18      -4.9084    3.4684   -3.7185   H         1 RES1   0.0000
    50 H19      -5.1819    2.0357   -2.7169   H         1 RES1   0.0000
    51 H20      -6.5376    1.8265   -4.6508   H         1 RES1   0.0000
    52 H21      -5.2635    0.6145   -4.7605   H         1 RES1   0.0000
    53 H22      -5.4298    3.2725   -6.2873   H         1 RES1   0.0000
    54 H23      -5.6102    1.6601   -6.9534   H         1 RES1   0.0000
    55 H24      -4.0298    2.1937   -6.3726   H         1 RES1   0.0000
    56 H25      -0.3540   -6.0440   -2.3037   H         1 RES1   0.0000
    57 H26       0.8430   -5.2928   -1.2371   H         1 RES1   0.0000
    58 H27       0.4100   -4.4803   -4.1553   H         1 RES1   0.0000
    59 H28       1.6443   -5.5781   -3.5553   H         1 RES1   0.0000
    60 H29       1.3720   -2.7238   -2.5360   H         1 RES1   0.0000
    61 H30       2.4493   -3.1681   -3.8675   H         1 RES1   0.0000
    62 H31       2.7174   -3.8373   -2.2467   H         1 RES1   0.0000
    63 O1        0.3712    0.4543   -0.6174   O.3       1 RES1   0.0000
    64 H32       1.3254    0.3555   -0.8145   H         1 RES1   0.0000
    65 H33       0.3633    1.1779    0.0406   H         1 RES1   0.0000
@<TRIPOS>BOND
     1     1     6    1
     2     1     7    1
     3     1    15    1
     4     1    16    1
     5     1    25    1
     6     1    26    1
     7     1    27    1
     8     1    63    1
     9     2     3    1
    10     2    32    1
    11     2    33    1
    12     2    34    1
    13     3     4    1
    14     3    35    1
    15     3    36    1
    16     4     5    1
    17     4    37    1
    18     4    38    1
    19     5     6    1
    20     5    28    2
    21     6     7    2
    22     7     8    1
    23     8     9    1
    24     8    27    2
    25     9    10    1
    26     9    26    2
    27    10    11    2
    28    10    39    1
    29    11    12    1
    30    11    40    1
    31    12    13    2
    32    12    41    1
    33    13    14    1
    34    13    26    1
    35    14    15    1
    36    14    25    2
    37    15    16    2
    38    16    17    1
    39    17    18    1
    40    17    21    2
    41    18    19    1
    42    18    42    1
    43    18    43    1
    44    19    20    1
    45    19    44    1
    46    19    45    1
    47    20    46    1
    48    20    47    1
    49    20    48    1
    50    21    22    1
    51    21    25    1
    52    22    23    1
    53    22    49    1
    54    22    50    1
    55    23    24    1
    56    23    51    1
    57    23    52    1
    58    24    53    1
    59    24    54    1
    60    24    55    1
    61    27    28    1
    62    28    29    1
    63    29    30    1
    64    29    56    1
    65    29    57    1
    66    30    31    1
    67    30    58    1
    68    30    59    1
    69    31    60    1
    70    31    61    1
    71    31    62    1
    72    63    64    1
    73    63    65    1
@<TRIPOS>SUBSTRUCTURE
     1 RES1       65 GROUP             0 ****  ****    0  
