@<TRIPOS>MOLECULE
ICIGOT_geomtry_0_nunpairedes_0_charge_3 Charge: 3 Unpaired_Electrons: 0 XTB_Unpaired_Electrons: 0 XTB_Charge: 3
   225   228     1     0     0
SMALL
NoCharges
****
Generated from Architector

@<TRIPOS>ATOM
     1 Lu1      -0.0511   -0.0029    0.0329   Lu        1 RES1   0.0000
     2 C1        5.2239   -0.7246   -1.3647   C.3       1 RES1   0.0000
     3 C2        4.1020   -1.6900   -1.7257   C.3       1 RES1   0.0000
     4 C3        4.0982   -1.9479   -3.2327   C.3       1 RES1   0.0000
     5 C4        3.0117   -2.9050   -3.7262   C.3       1 RES1   0.0000
     6 C5        1.5835   -2.4272   -3.4376   C.3       1 RES1   0.0000
     7 C6        1.0965   -1.2678   -4.3095   C.3       1 RES1   0.0000
     8 N1       -0.2765   -0.8361   -3.9834   N.am      1 RES1   0.0000
     9 C7       -1.3510   -1.1965   -4.9039   C.3       1 RES1   0.0000
    10 C8       -1.9121   -0.0478   -5.7483   C.3       1 RES1   0.0000
    11 C9       -0.9051    0.7647   -6.5692   C.3       1 RES1   0.0000
    12 C10      -0.2860   -0.0910   -7.6676   C.3       1 RES1   0.0000
    13 C11      -1.6822    1.9463   -7.1622   C.3       1 RES1   0.0000
    14 C12      -0.8602    2.9337   -7.9939   C.3       1 RES1   0.0000
    15 C13      -0.0233    3.8792   -7.1908   C.2       1 RES1   0.0000
    16 C14       1.2983    4.0196   -7.2518   C.2       1 RES1   0.0000
    17 C15       2.1805    3.0914   -8.0388   C.3       1 RES1   0.0000
    18 C16       1.9646    5.1771   -6.5600   C.3       1 RES1   0.0000
    19 C17      -0.4890   -0.1990   -2.8434   C.2       1 RES1   0.0000
    20 O1        0.4308   -0.0491   -2.0018   O.2       1 RES1   0.0000
    21 C18      -1.8664    0.3964   -2.4684   C.3       1 RES1   0.0000
    22 O2       -1.6982    0.8949   -1.1449   O.3       1 RES1   0.0000
    23 C19      -2.8162    1.4812   -0.4648   C.3       1 RES1   0.0000
    24 C20      -2.2867    1.7071    0.9720   C.2       1 RES1   0.0000
    25 O3       -1.1159    1.3198    1.1909   O.2       1 RES1   0.0000
    26 N2       -2.9374    2.3630    1.9206   N.am      1 RES1   0.0000
    27 C21      -2.1169    3.0794    2.9080   C.3       1 RES1   0.0000
    28 C22      -2.0165    2.5276    4.3332   C.3       1 RES1   0.0000
    29 C23      -0.9516    1.4535    4.5614   C.3       1 RES1   0.0000
    30 C24      -1.2851    0.0549    4.0496   C.3       1 RES1   0.0000
    31 C25      -2.6025   -0.4813    4.5952   C.3       1 RES1   0.0000
    32 C26      -2.7990   -1.9498    4.2560   C.3       1 RES1   0.0000
    33 C27      -4.3744    2.3270    2.1618   C.3       1 RES1   0.0000
    34 C28      -5.2678    2.8980    1.0668   C.3       1 RES1   0.0000
    35 C29      -6.6049    3.3599    1.6587   C.3       1 RES1   0.0000
    36 C30      -7.4596    3.9612    0.5468   C.3       1 RES1   0.0000
    37 C31      -7.3416    2.2705    2.4471   C.3       1 RES1   0.0000
    38 C32      -7.8104    1.0480    1.6421   C.3       1 RES1   0.0000
    39 C33      -6.8168   -0.0658    1.4989   C.2       1 RES1   0.0000
    40 C34      -6.5005   -0.9531    2.4372   C.2       1 RES1   0.0000
    41 C35      -5.6001   -2.1146    2.1096   C.3       1 RES1   0.0000
    42 C36      -6.9859   -0.9241    3.8512   C.3       1 RES1   0.0000
    43 H1        5.3761   -0.6741   -0.2884   H         1 RES1   0.0000
    44 H2        5.0251    0.2758   -1.7436   H         1 RES1   0.0000
    45 H3        6.1590   -1.0476   -1.8093   H         1 RES1   0.0000
    46 H4        3.1419   -1.2694   -1.3935   H         1 RES1   0.0000
    47 H5        4.2655   -2.6395   -1.2121   H         1 RES1   0.0000
    48 H6        5.0682   -2.3711   -3.5021   H         1 RES1   0.0000
    49 H7        4.0066   -1.0002   -3.7581   H         1 RES1   0.0000
    50 H8        3.1451   -3.8709   -3.2311   H         1 RES1   0.0000
    51 H9        3.1519   -3.0618   -4.7965   H         1 RES1   0.0000
    52 H10       1.5778   -2.0749   -2.4120   H         1 RES1   0.0000
    53 H11       0.8986   -3.2714   -3.5498   H         1 RES1   0.0000
    54 H12       1.1314   -1.5566   -5.3576   H         1 RES1   0.0000
    55 H13       1.7554   -0.4141   -4.1628   H         1 RES1   0.0000
    56 H14      -2.1745   -1.6210   -4.3192   H         1 RES1   0.0000
    57 H15      -0.9776   -1.9854   -5.5571   H         1 RES1   0.0000
    58 H16      -2.4597    0.6331   -5.0974   H         1 RES1   0.0000
    59 H17      -2.6327   -0.4928   -6.4382   H         1 RES1   0.0000
    60 H18      -0.1181    1.1484   -5.9109   H         1 RES1   0.0000
    61 H19      -1.0612   -0.4548   -8.3384   H         1 RES1   0.0000
    62 H20       0.2497   -0.9468   -7.2623   H         1 RES1   0.0000
    63 H21       0.4175    0.4942   -8.2509   H         1 RES1   0.0000
    64 H22      -2.1636    2.4957   -6.3477   H         1 RES1   0.0000
    65 H23      -2.4720    1.5384   -7.7951   H         1 RES1   0.0000
    66 H24      -1.5802    3.5439   -8.5460   H         1 RES1   0.0000
    67 H25      -0.2628    2.4062   -8.7335   H         1 RES1   0.0000
    68 H26      -0.5939    4.5773   -6.5906   H         1 RES1   0.0000
    69 H27       1.9237    3.1070   -9.0971   H         1 RES1   0.0000
    70 H28       2.0763    2.0663   -7.6799   H         1 RES1   0.0000
    71 H29       3.2258    3.3723   -7.9467   H         1 RES1   0.0000
    72 H30       1.7507    6.0964   -7.1063   H         1 RES1   0.0000
    73 H31       3.0449    5.0572   -6.5253   H         1 RES1   0.0000
    74 H32       1.5842    5.3133   -5.5485   H         1 RES1   0.0000
    75 H33      -2.6701   -0.3541   -2.4853   H         1 RES1   0.0000
    76 H34      -2.1049    1.2122   -3.1634   H         1 RES1   0.0000
    77 H35      -3.6891    0.8200   -0.5235   H         1 RES1   0.0000
    78 H36      -3.0635    2.4588   -0.9088   H         1 RES1   0.0000
    79 H37      -2.5461    4.0840    2.9609   H         1 RES1   0.0000
    80 H38      -1.1158    3.1606    2.4783   H         1 RES1   0.0000
    81 H39      -2.9873    2.1846    4.6868   H         1 RES1   0.0000
    82 H40      -1.7438    3.3768    4.9624   H         1 RES1   0.0000
    83 H41      -0.7802    1.3851    5.6376   H         1 RES1   0.0000
    84 H42      -0.0127    1.7852    4.1097   H         1 RES1   0.0000
    85 H43      -0.4775   -0.6031    4.3774   H         1 RES1   0.0000
    86 H44      -1.2956    0.0450    2.9553   H         1 RES1   0.0000
    87 H45      -3.4374    0.0910    4.1906   H         1 RES1   0.0000
    88 H46      -2.6038   -0.3686    5.6760   H         1 RES1   0.0000
    89 H47      -2.7521   -2.1014    3.1742   H         1 RES1   0.0000
    90 H48      -3.7638   -2.3058    4.6068   H         1 RES1   0.0000
    91 H49      -2.0346   -2.5604    4.7297   H         1 RES1   0.0000
    92 H50      -4.5381    2.9019    3.0756   H         1 RES1   0.0000
    93 H51      -4.6589    1.2857    2.3582   H         1 RES1   0.0000
    94 H52      -5.4498    2.1506    0.2954   H         1 RES1   0.0000
    95 H53      -4.7844    3.7630    0.6093   H         1 RES1   0.0000
    96 H54      -6.3856    4.1604    2.3746   H         1 RES1   0.0000
    97 H55      -7.6185    3.2607   -0.2703   H         1 RES1   0.0000
    98 H56      -6.9694    4.8416    0.1369   H         1 RES1   0.0000
    99 H57      -8.4287    4.2579    0.9354   H         1 RES1   0.0000
   100 H58      -8.2236    2.7490    2.8721   H         1 RES1   0.0000
   101 H59      -6.7251    1.9434    3.2863   H         1 RES1   0.0000
   102 H60      -8.1280    1.3705    0.6523   H         1 RES1   0.0000
   103 H61      -8.6936    0.6493    2.1442   H         1 RES1   0.0000
   104 H62      -6.3921   -0.2024    0.5089   H         1 RES1   0.0000
   105 H63      -4.6487   -1.7574    1.7145   H         1 RES1   0.0000
   106 H64      -6.0722   -2.7521    1.3643   H         1 RES1   0.0000
   107 H65      -5.4166   -2.7187    2.9917   H         1 RES1   0.0000
   108 H66      -7.7182   -0.1423    4.0195   H         1 RES1   0.0000
   109 H67      -6.1437   -0.7661    4.5302   H         1 RES1   0.0000
   110 H68      -7.4381   -1.8824    4.1077   H         1 RES1   0.0000
   111 C37      -4.2039   -3.6151   -1.0308   C.3       1 RES1   0.0000
   112 C38      -2.8787   -4.2806   -0.6538   C.3       1 RES1   0.0000
   113 C39      -2.8368   -4.7590    0.7997   C.3       1 RES1   0.0000
   114 C40      -1.5740   -5.5449    1.1751   C.3       1 RES1   0.0000
   115 C41      -0.2875   -4.7229    1.3192   C.3       1 RES1   0.0000
   116 C42      -0.2352   -3.8809    2.5974   C.3       1 RES1   0.0000
   117 N3        1.0220   -3.1341    2.6995   N.am      1 RES1   0.0000
   118 C43       2.0968   -3.6763    3.5122   C.3       1 RES1   0.0000
   119 C44       2.2270   -2.9845    4.8741   C.3       1 RES1   0.0000
   120 C45       1.0228   -3.0545    5.8241   C.3       1 RES1   0.0000
   121 C46       0.6725   -4.4908    6.1964   C.3       1 RES1   0.0000
   122 C47       1.4154   -2.2447    7.0686   C.3       1 RES1   0.0000
   123 C48       0.3655   -2.1435    8.1810   C.3       1 RES1   0.0000
   124 C49      -0.6444   -1.0517    8.0077   C.2       1 RES1   0.0000
   125 C50      -1.9689   -1.1485    8.0664   C.2       1 RES1   0.0000
   126 C51      -2.7409   -2.4303    8.1026   C.3       1 RES1   0.0000
   127 C52      -2.8249    0.0861    8.1677   C.3       1 RES1   0.0000
   128 C53       1.1020   -1.9811    2.0667   C.2       1 RES1   0.0000
   129 O4        0.0954   -1.4731    1.5150   O.2       1 RES1   0.0000
   130 C54       2.4129   -1.1930    1.9413   C.3       1 RES1   0.0000
   131 O5        2.1691   -0.2141    0.9301   O.3       1 RES1   0.0000
   132 C55       3.0616    0.9095    0.8765   C.3       1 RES1   0.0000
   133 C56       2.2577    2.0506    0.2382   C.2       1 RES1   0.0000
   134 O6        1.0422    1.8312    0.0260   O.2       1 RES1   0.0000
   135 N4        2.8016    3.2257   -0.0047   N.am      1 RES1   0.0000
   136 C57       1.9121    4.3794   -0.1768   C.3       1 RES1   0.0000
   137 C58       1.8399    5.0356   -1.5587   C.3       1 RES1   0.0000
   138 C59       0.9372    4.3415   -2.5795   C.3       1 RES1   0.0000
   139 C60       1.4406    3.0008   -3.1104   C.3       1 RES1   0.0000
   140 C61       2.8568    3.0572   -3.6733   C.3       1 RES1   0.0000
   141 C62       3.2986    1.6912   -4.1745   C.3       1 RES1   0.0000
   142 C63       4.2262    3.4540   -0.2079   C.3       1 RES1   0.0000
   143 C64       5.1665    3.2907    0.9859   C.3       1 RES1   0.0000
   144 C65       6.5300    3.9211    0.6591   C.3       1 RES1   0.0000
   145 C66       7.3911    3.9587    1.9173   C.3       1 RES1   0.0000
   146 C67       7.2384    3.2331   -0.5229   C.3       1 RES1   0.0000
   147 C68       8.0054    1.9550   -0.1580   C.3       1 RES1   0.0000
   148 C69       8.1429    0.9228   -1.2497   C.2       1 RES1   0.0000
   149 C70       8.4431    1.0477   -2.5379   C.2       1 RES1   0.0000
   150 C71       8.5119   -0.1827   -3.4090   C.3       1 RES1   0.0000
   151 C72       8.7484    2.3179   -3.2674   C.3       1 RES1   0.0000
   152 H69      -4.1731   -3.2484   -2.0559   H         1 RES1   0.0000
   153 H70      -4.4720   -2.7794   -0.3849   H         1 RES1   0.0000
   154 H71      -5.0126   -4.3379   -0.9675   H         1 RES1   0.0000
   155 H72      -2.0535   -3.5911   -0.8476   H         1 RES1   0.0000
   156 H73      -2.7388   -5.1435   -1.3054   H         1 RES1   0.0000
   157 H74      -3.6857   -5.4244    0.9526   H         1 RES1   0.0000
   158 H75      -2.9621   -3.9219    1.4876   H         1 RES1   0.0000
   159 H76      -1.4011   -6.3024    0.4089   H         1 RES1   0.0000
   160 H77      -1.7629   -6.0719    2.1101   H         1 RES1   0.0000
   161 H78      -0.2153   -4.0620    0.4645   H         1 RES1   0.0000
   162 H79       0.5652   -5.4046    1.3073   H         1 RES1   0.0000
   163 H80      -0.3441   -4.5278    3.4637   H         1 RES1   0.0000
   164 H81      -1.0478   -3.1581    2.5930   H         1 RES1   0.0000
   165 H82       3.0481   -3.5728    2.9822   H         1 RES1   0.0000
   166 H83       1.9099   -4.7386    3.6536   H         1 RES1   0.0000
   167 H84       2.4615   -1.9311    4.7119   H         1 RES1   0.0000
   168 H85       3.0823   -3.4479    5.3685   H         1 RES1   0.0000
   169 H86       0.1575   -2.5782    5.3506   H         1 RES1   0.0000
   170 H87       1.4879   -4.9538    6.7477   H         1 RES1   0.0000
   171 H88       0.4616   -5.1026    5.3223   H         1 RES1   0.0000
   172 H89      -0.2141   -4.5062    6.8228   H         1 RES1   0.0000
   173 H90       1.6945   -1.2334    6.7582   H         1 RES1   0.0000
   174 H91       2.3071   -2.7111    7.4901   H         1 RES1   0.0000
   175 H92       0.9129   -1.9056    9.0979   H         1 RES1   0.0000
   176 H93      -0.1097   -3.1053    8.3557   H         1 RES1   0.0000
   177 H94      -0.2071   -0.0599    7.9711   H         1 RES1   0.0000
   178 H95      -2.0955   -3.2992    8.0366   H         1 RES1   0.0000
   179 H96      -3.4464   -2.4633    7.2706   H         1 RES1   0.0000
   180 H97      -3.3201   -2.4937    9.0229   H         1 RES1   0.0000
   181 H98      -2.4940    0.8807    7.5000   H         1 RES1   0.0000
   182 H99      -2.7637    0.4735    9.1851   H         1 RES1   0.0000
   183 H100     -3.8674   -0.1469    7.9633   H         1 RES1   0.0000
   184 H101      3.2599   -1.8307    1.6450   H         1 RES1   0.0000
   185 H102      2.6259   -0.7072    2.9021   H         1 RES1   0.0000
   186 H103      3.9543    0.6547    0.2931   H         1 RES1   0.0000
   187 H104      3.3462    1.2145    1.8921   H         1 RES1   0.0000
   188 H105      2.2631    5.1308    0.5361   H         1 RES1   0.0000
   189 H106      0.9161    4.0438    0.1195   H         1 RES1   0.0000
   190 H107      2.8358    5.1807   -1.9755   H         1 RES1   0.0000
   191 H108      1.4321    6.0354   -1.3965   H         1 RES1   0.0000
   192 H109      0.8175    5.0260   -3.4218   H         1 RES1   0.0000
   193 H110     -0.0531    4.1950   -2.1386   H         1 RES1   0.0000
   194 H111      0.7607    2.6883   -3.9077   H         1 RES1   0.0000
   195 H112      1.3911    2.2450   -2.3203   H         1 RES1   0.0000
   196 H113      3.5510    3.3816   -2.9010   H         1 RES1   0.0000
   197 H114      2.9015    3.7786   -4.4851   H         1 RES1   0.0000
   198 H115      3.1716    0.9575   -3.3761   H         1 RES1   0.0000
   199 H116      4.3443    1.6979   -4.4740   H         1 RES1   0.0000
   200 H117      2.7083    1.3907   -5.0386   H         1 RES1   0.0000
   201 H118      4.3209    4.4834   -0.5583   H         1 RES1   0.0000
   202 H119      4.5460    2.7945   -1.0197   H         1 RES1   0.0000
   203 H120      5.3232    2.2414    1.2322   H         1 RES1   0.0000
   204 H121      4.7407    3.7957    1.8556   H         1 RES1   0.0000
   205 H122      6.3419    4.9581    0.3629   H         1 RES1   0.0000
   206 H123      7.5411    2.9686    2.3396   H         1 RES1   0.0000
   207 H124      6.9206    4.5779    2.6776   H         1 RES1   0.0000
   208 H125      8.3627    4.3825    1.6878   H         1 RES1   0.0000
   209 H126      7.9234    3.9681   -0.9397   H         1 RES1   0.0000
   210 H127      6.5111    2.9943   -1.2998   H         1 RES1   0.0000
   211 H128      7.4922    1.4663    0.6741   H         1 RES1   0.0000
   212 H129      9.0017    2.2253    0.2006   H         1 RES1   0.0000
   213 H130      8.0089   -0.0885   -0.8806   H         1 RES1   0.0000
   214 H131      9.2412   -0.8915   -3.0211   H         1 RES1   0.0000
   215 H132      7.5459   -0.6867   -3.4578   H         1 RES1   0.0000
   216 H133      8.8004    0.0850   -4.4207   H         1 RES1   0.0000
   217 H134      8.8060    3.1695   -2.6024   H         1 RES1   0.0000
   218 H135      7.9959    2.5114   -4.0349   H         1 RES1   0.0000
   219 H136      9.7072    2.2172   -3.7761   H         1 RES1   0.0000
   220 O7       -2.3062   -1.2514    0.3857   O.3       1 RES1   0.0000
   221 H137     -2.7217   -2.0357   -0.0156   H         1 RES1   0.0000
   222 H138     -2.3884   -1.3963    1.3433   H         1 RES1   0.0000
   223 O8        0.0633   -2.4588   -0.8898   O.3       1 RES1   0.0000
   224 H139      0.8596   -2.9710   -0.6791   H         1 RES1   0.0000
   225 H140     -0.3187   -2.9049   -1.6621   H         1 RES1   0.0000
@<TRIPOS>BOND
     1     1    20    1
     2     1    22    1
     3     1    25    1
     4     1   129    1
     5     1   131    1
     6     1   134    1
     7     1   220    1
     8     1   223    1
     9     2     3    1
    10     2    43    1
    11     2    44    1
    12     2    45    1
    13     3     4    1
    14     3    46    1
    15     3    47    1
    16     4     5    1
    17     4    48    1
    18     4    49    1
    19     5     6    1
    20     5    50    1
    21     5    51    1
    22     6     7    1
    23     6    52    1
    24     6    53    1
    25     7     8    1
    26     7    54    1
    27     7    55    1
    28     8     9    1
    29     8    19    1
    30     9    10    1
    31     9    56    1
    32     9    57    1
    33    10    11    1
    34    10    58    1
    35    10    59    1
    36    11    12    1
    37    11    13    1
    38    11    60    1
    39    12    61    1
    40    12    62    1
    41    12    63    1
    42    13    14    1
    43    13    64    1
    44    13    65    1
    45    14    15    1
    46    14    66    1
    47    14    67    1
    48    15    16    2
    49    15    68    1
    50    16    17    1
    51    16    18    1
    52    17    69    1
    53    17    70    1
    54    17    71    1
    55    18    72    1
    56    18    73    1
    57    18    74    1
    58    19    20    2
    59    19    21    1
    60    21    22    1
    61    21    75    1
    62    21    76    1
    63    22    23    1
    64    23    24    1
    65    23    77    1
    66    23    78    1
    67    24    25    2
    68    24    26    1
    69    26    27    1
    70    26    33    1
    71    27    28    1
    72    27    79    1
    73    27    80    1
    74    28    29    1
    75    28    81    1
    76    28    82    1
    77    29    30    1
    78    29    83    1
    79    29    84    1
    80    30    31    1
    81    30    85    1
    82    30    86    1
    83    31    32    1
    84    31    87    1
    85    31    88    1
    86    32    89    1
    87    32    90    1
    88    32    91    1
    89    33    34    1
    90    33    92    1
    91    33    93    1
    92    34    35    1
    93    34    94    1
    94    34    95    1
    95    35    36    1
    96    35    37    1
    97    35    96    1
    98    36    97    1
    99    36    98    1
   100    36    99    1
   101    37    38    1
   102    37   100    1
   103    37   101    1
   104    38    39    1
   105    38   102    1
   106    38   103    1
   107    39    40    2
   108    39   104    1
   109    40    41    1
   110    40    42    1
   111    41   105    1
   112    41   106    1
   113    41   107    1
   114    42   108    1
   115    42   109    1
   116    42   110    1
   117   111   112    1
   118   111   152    1
   119   111   153    1
   120   111   154    1
   121   112   113    1
   122   112   155    1
   123   112   156    1
   124   113   114    1
   125   113   157    1
   126   113   158    1
   127   114   115    1
   128   114   159    1
   129   114   160    1
   130   115   116    1
   131   115   161    1
   132   115   162    1
   133   116   117    1
   134   116   163    1
   135   116   164    1
   136   117   118    1
   137   117   128    1
   138   118   119    1
   139   118   165    1
   140   118   166    1
   141   119   120    1
   142   119   167    1
   143   119   168    1
   144   120   121    1
   145   120   122    1
   146   120   169    1
   147   121   170    1
   148   121   171    1
   149   121   172    1
   150   122   123    1
   151   122   173    1
   152   122   174    1
   153   123   124    1
   154   123   175    1
   155   123   176    1
   156   124   125    2
   157   124   177    1
   158   125   126    1
   159   125   127    1
   160   126   178    1
   161   126   179    1
   162   126   180    1
   163   127   181    1
   164   127   182    1
   165   127   183    1
   166   128   129    2
   167   128   130    1
   168   130   131    1
   169   130   184    1
   170   130   185    1
   171   131   132    1
   172   132   133    1
   173   132   186    1
   174   132   187    1
   175   133   134    2
   176   133   135    1
   177   135   136    1
   178   135   142    1
   179   136   137    1
   180   136   188    1
   181   136   189    1
   182   137   138    1
   183   137   190    1
   184   137   191    1
   185   138   139    1
   186   138   192    1
   187   138   193    1
   188   139   140    1
   189   139   194    1
   190   139   195    1
   191   140   141    1
   192   140   196    1
   193   140   197    1
   194   141   198    1
   195   141   199    1
   196   141   200    1
   197   142   143    1
   198   142   201    1
   199   142   202    1
   200   143   144    1
   201   143   203    1
   202   143   204    1
   203   144   145    1
   204   144   146    1
   205   144   205    1
   206   145   206    1
   207   145   207    1
   208   145   208    1
   209   146   147    1
   210   146   209    1
   211   146   210    1
   212   147   148    1
   213   147   211    1
   214   147   212    1
   215   148   149    2
   216   148   213    1
   217   149   150    1
   218   149   151    1
   219   150   214    1
   220   150   215    1
   221   150   216    1
   222   151   217    1
   223   151   218    1
   224   151   219    1
   225   220   221    1
   226   220   222    1
   227   223   224    1
   228   223   225    1
@<TRIPOS>SUBSTRUCTURE
     1 RES1      225 GROUP             0 ****  ****    0  
