@<TRIPOS>MOLECULE
YEMSEP_geometry_0_nunpairedes_0_charge_3 Charge: 3 Unpaired_Electrons: 0 XTB_Unpaired_Electrons: 0 XTB_Charge: 3
    79    91     1     0     0
SMALL
NoCharges
****
Generated from Architector

@<TRIPOS>ATOM
     1 Lu1       0.6369    0.1156   -1.3678   Lu        1 RES1   0.0000
     2 C1       -2.1513   -1.9590   -1.6705   C.3       1 RES1   0.0000
     3 C2       -1.4311   -3.2591   -2.0980   C.3       1 RES1   0.0000
     4 C3       -1.7781   -4.3846   -1.1337   C.3       1 RES1   0.0000
     5 C4       -1.8285   -3.6771   -3.5307   C.3       1 RES1   0.0000
     6 C5       -1.4610   -2.6615   -4.6114   C.3       1 RES1   0.0000
     7 C6        0.0095   -2.2044   -4.5785   C.3       1 RES1   0.0000
     8 C7        0.2126   -0.9376   -5.4095   C.3       1 RES1   0.0000
     9 C8        0.9643   -3.3191   -5.0945   C.3       1 RES1   0.0000
    10 C9        0.5096   -2.0844   -3.1751   C.ar      1 RES1   0.0000
    11 N1        1.6106   -1.3666   -2.8352   N.ar      1 RES1   0.0000
    12 C10       2.4357   -1.9499   -1.9077   C.ar      1 RES1   0.0000
    13 C11       3.5668   -1.1224   -1.4012   C.ar      1 RES1   0.0000
    14 C12       4.9270   -1.3642   -1.5188   C.ar      1 RES1   0.0000
    15 C13       5.7906   -0.4307   -0.9530   C.ar      1 RES1   0.0000
    16 C14       5.2822    0.6662   -0.2683   C.ar      1 RES1   0.0000
    17 C15       3.9056    0.8396   -0.1848   C.ar      1 RES1   0.0000
    18 C16       3.2303    2.0296    0.3880   C.ar      1 RES1   0.0000
    19 C17       3.7766    3.0647    1.1527   C.ar      1 RES1   0.0000
    20 C18       2.9644    4.1403    1.5053   C.ar      1 RES1   0.0000
    21 C19       1.6683    4.2408    0.9997   C.ar      1 RES1   0.0000
    22 C20       1.2196    3.1874    0.2214   C.ar      1 RES1   0.0000
    23 C21       0.1740    3.1073   -0.8281   C.ar      1 RES1   0.0000
    24 N2       -0.4158    1.9157   -0.9677   N.ar      1 RES1   0.0000
    25 N3       -1.0559    1.6471   -2.1363   N.ar      1 RES1   0.0000
    26 C22      -1.0205    2.5431   -3.1074   C.ar      1 RES1   0.0000
    27 C23       0.0412    3.5079   -3.0399   C.ar      1 RES1   0.0000
    28 N4        0.4843    3.8710   -1.8722   N.ar      1 RES1   0.0000
    29 C24       0.8066    3.7248   -4.2970   C.3       1 RES1   0.0000
    30 C25       1.5276    2.3574   -4.4906   C.3       1 RES1   0.0000
    31 C26       1.8508    4.8350   -4.1855   C.3       1 RES1   0.0000
    32 C27      -0.2096    3.9847   -5.4267   C.3       1 RES1   0.0000
    33 C28      -1.2981    2.9128   -5.5431   C.3       1 RES1   0.0000
    34 C29      -1.9904    2.5930   -4.2092   C.3       1 RES1   0.0000
    35 C30      -2.8722    1.3554   -4.2474   C.3       1 RES1   0.0000
    36 C31      -2.8324    3.7947   -3.7149   C.3       1 RES1   0.0000
    37 N5        1.9540    2.0868   -0.0135   N.ar      1 RES1   0.0000
    38 N6        3.0648   -0.0503   -0.7656   N.ar      1 RES1   0.0000
    39 N7        2.1621   -3.0835   -1.3020   N.ar      1 RES1   0.0000
    40 N8        0.9129   -3.4339   -1.2826   N.ar      1 RES1   0.0000
    41 C32       0.0376   -2.9501   -2.1240   C.ar      1 RES1   0.0000
    42 H1       -3.2281   -2.1216   -1.7444   H         1 RES1   0.0000
    43 H2       -1.9203   -1.0923   -2.3255   H         1 RES1   0.0000
    44 H3       -1.9354   -1.7381   -0.6102   H         1 RES1   0.0000
    45 H4       -2.8170   -4.6613   -1.2799   H         1 RES1   0.0000
    46 H5       -1.6275   -4.0963   -0.0989   H         1 RES1   0.0000
    47 H6       -1.1641   -5.2543   -1.3353   H         1 RES1   0.0000
    48 H7       -2.9084   -3.8243   -3.5511   H         1 RES1   0.0000
    49 H8       -1.3798   -4.6484   -3.7428   H         1 RES1   0.0000
    50 H9       -2.1145   -1.7905   -4.5307   H         1 RES1   0.0000
    51 H10      -1.6725   -3.1051   -5.5852   H         1 RES1   0.0000
    52 H11       1.2672   -0.7063   -5.5256   H         1 RES1   0.0000
    53 H12      -0.2944   -0.0991   -4.9293   H         1 RES1   0.0000
    54 H13      -0.2036   -1.0528   -6.4082   H         1 RES1   0.0000
    55 H14       0.7531   -3.5366   -6.1402   H         1 RES1   0.0000
    56 H15       0.8465   -4.2342   -4.5215   H         1 RES1   0.0000
    57 H16       1.9996   -2.9914   -5.0221   H         1 RES1   0.0000
    58 H17       5.3067   -2.2258   -2.0463   H         1 RES1   0.0000
    59 H18       6.8593   -0.5657   -1.0312   H         1 RES1   0.0000
    60 H19       5.9594    1.3866    0.1601   H         1 RES1   0.0000
    61 H20       4.8071    3.0552    1.4732   H         1 RES1   0.0000
    62 H21       3.3544    4.9192    2.1473   H         1 RES1   0.0000
    63 H22       1.0525    5.1100    1.1834   H         1 RES1   0.0000
    64 H23       1.6468    1.7954   -3.5300   H         1 RES1   0.0000
    65 H24       2.5178    2.5306   -4.8945   H         1 RES1   0.0000
    66 H25       0.9913    1.7460   -5.2053   H         1 RES1   0.0000
    67 H26       2.7016    4.5001   -3.5953   H         1 RES1   0.0000
    68 H27       1.4381    5.7316   -3.7297   H         1 RES1   0.0000
    69 H28       2.2156    5.0865   -5.1799   H         1 RES1   0.0000
    70 H29       0.3305    4.0693   -6.3703   H         1 RES1   0.0000
    71 H30      -0.6573    4.9658   -5.2573   H         1 RES1   0.0000
    72 H31      -0.8950    1.9937   -5.9749   H         1 RES1   0.0000
    73 H32      -2.0471    3.2792   -6.2394   H         1 RES1   0.0000
    74 H33      -2.2969    0.4568   -4.4514   H         1 RES1   0.0000
    75 H34      -3.6341    1.4545   -5.0106   H         1 RES1   0.0000
    76 H35      -3.3713    1.2310   -3.2908   H         1 RES1   0.0000
    77 H36      -2.2333    4.6870   -3.5669   H         1 RES1   0.0000
    78 H37      -3.3251    3.5489   -2.7789   H         1 RES1   0.0000
    79 H38      -3.5905    4.0078   -4.4602   H         1 RES1   0.0000
@<TRIPOS>BOND
     1     1    11    1
     2     1    24    1
     3     1    25    1
     4     1    28    1
     5     1    37    1
     6     1    38    1
     7     1    39    1
     8     1    40    1
     9     2     3    1
    10     2    42    1
    11     2    43    1
    12     2    44    1
    13     3     4    1
    14     3     5    1
    15     3    41    1
    16     4    45    1
    17     4    46    1
    18     4    47    1
    19     5     6    1
    20     5    48    1
    21     5    49    1
    22     6     7    1
    23     6    50    1
    24     6    51    1
    25     7     8    1
    26     7     9    1
    27     7    10    1
    28     8    52    1
    29     8    53    1
    30     8    54    1
    31     9    55    1
    32     9    56    1
    33     9    57    1
    34    10    11    1
    35    10    41    2
    36    11    12    2
    37    12    13    1
    38    12    39    1
    39    13    14    1
    40    13    38    2
    41    14    15    2
    42    14    58    1
    43    15    16    1
    44    15    59    1
    45    16    17    2
    46    16    60    1
    47    17    18    1
    48    17    38    1
    49    18    19    1
    50    18    37    2
    51    19    20    2
    52    19    61    1
    53    20    21    1
    54    20    62    1
    55    21    22    2
    56    21    63    1
    57    22    23    1
    58    22    37    1
    59    23    24    1
    60    23    28    2
    61    24    25    2
    62    25    26    1
    63    26    27    2
    64    26    34    1
    65    27    28    1
    66    27    29    1
    67    29    30    1
    68    29    31    1
    69    29    32    1
    70    30    64    1
    71    30    65    1
    72    30    66    1
    73    31    67    1
    74    31    68    1
    75    31    69    1
    76    32    33    1
    77    32    70    1
    78    32    71    1
    79    33    34    1
    80    33    72    1
    81    33    73    1
    82    34    35    1
    83    34    36    1
    84    35    74    1
    85    35    75    1
    86    35    76    1
    87    36    77    1
    88    36    78    1
    89    36    79    1
    90    39    40    2
    91    40    41    1
@<TRIPOS>SUBSTRUCTURE
     1 RES1       79 GROUP             0 ****  ****    0  
