@<TRIPOS>MOLECULE
bicapped_trigonal_prismatic_0_nunpairedes_0_charge_2 Charge: 2 Unpaired_Electrons: 0 XTB_Unpaired_Electrons: 0 XTB_Charge: 2
   115   129     1     0     0
SMALL
NoCharges
****
Generated from Architector

@<TRIPOS>ATOM
     1 Lu1      -0.1378   -1.0131    1.2214   Lu        1 RES1   0.0000
     2 C1        2.3404    4.8177   -6.5336   C.3       1 RES1   0.0000
     3 C2        2.7039    3.4621   -5.9414   C.3       1 RES1   0.0000
     4 C3        1.6444    2.9448   -4.9644   C.3       1 RES1   0.0000
     5 C4        2.0829    1.6027   -4.3768   C.3       1 RES1   0.0000
     6 C5        1.1339    1.0659   -3.3022   C.3       1 RES1   0.0000
     7 C6        1.7466   -0.0607   -2.4697   C.3       1 RES1   0.0000
     8 N1        2.5477    0.3156   -1.2888   N.ar      1 RES1   0.0000
     9 C7        3.6290    1.1894   -1.3581   C.ar      1 RES1   0.0000
    10 C8        3.4807    2.5773   -1.8176   C.ar      1 RES1   0.0000
    11 C9        4.5047    3.3555   -2.3582   C.ar      1 RES1   0.0000
    12 C10       4.3639    4.7285   -2.4714   C.ar      1 RES1   0.0000
    13 C11       3.2011    5.3555   -2.0451   C.ar      1 RES1   0.0000
    14 C12       2.1873    4.5985   -1.4767   C.ar      1 RES1   0.0000
    15 C13       2.3290    3.2285   -1.3467   C.ar      1 RES1   0.0000
    16 C14       4.6899    1.0385   -0.4052   C.ar      1 RES1   0.0000
    17 C15       6.0317    0.8418   -0.8078   C.ar      1 RES1   0.0000
    18 C16       7.0899    0.6624    0.1025   C.ar      1 RES1   0.0000
    19 C17       8.2822    0.1170   -0.3253   C.ar      1 RES1   0.0000
    20 C18       8.4671   -0.2277   -1.6609   C.ar      1 RES1   0.0000
    21 C19       7.4469   -0.0234   -2.5850   C.ar      1 RES1   0.0000
    22 C20       6.2444    0.4912   -2.1651   C.ar      1 RES1   0.0000
    23 C21       4.0568    1.0575    0.8951   C.ar      1 RES1   0.0000
    24 C22       4.1662    2.1395    1.7873   C.ar      1 RES1   0.0000
    25 C23       3.0125    2.5535    2.4557   C.ar      1 RES1   0.0000
    26 C24       2.8058    3.9221    2.8650   C.ar      1 RES1   0.0000
    27 C25       1.5716    4.4745    2.7988   C.ar      1 RES1   0.0000
    28 C26       0.4341    3.7021    2.3548   C.ar      1 RES1   0.0000
    29 C27      -0.6601    4.2366    1.6767   C.ar      1 RES1   0.0000
    30 C28      -1.5305    3.3738    0.9790   C.ar      1 RES1   0.0000
    31 C29      -2.3868    3.7146   -0.1205   C.ar      1 RES1   0.0000
    32 C30      -2.8634    5.0892   -0.4048   C.ar      1 RES1   0.0000
    33 C31      -2.3799    5.8373   -1.4718   C.ar      1 RES1   0.0000
    34 C32      -2.9576    7.0552   -1.7843   C.ar      1 RES1   0.0000
    35 C33      -4.0250    7.5323   -1.0426   C.ar      1 RES1   0.0000
    36 C34      -4.5013    6.7959    0.0302   C.ar      1 RES1   0.0000
    37 C35      -3.9225    5.5822    0.3541   C.ar      1 RES1   0.0000
    38 C36      -2.7948    2.7123   -0.9697   C.ar      1 RES1   0.0000
    39 C37      -3.4275    2.9701   -2.2833   C.ar      1 RES1   0.0000
    40 C38      -4.8069    2.8811   -2.4426   C.ar      1 RES1   0.0000
    41 C39      -5.3662    2.9920   -3.7065   C.ar      1 RES1   0.0000
    42 C40      -4.5567    3.1910   -4.8153   C.ar      1 RES1   0.0000
    43 C41      -3.1819    3.3006   -4.6574   C.ar      1 RES1   0.0000
    44 C42      -2.6195    3.1878   -3.3978   C.ar      1 RES1   0.0000
    45 N2       -2.6126    1.3780   -0.6799   N.ar      1 RES1   0.0000
    46 C43      -2.9350    0.3059   -1.6191   C.3       1 RES1   0.0000
    47 C44      -4.1891   -0.4501   -1.1773   C.3       1 RES1   0.0000
    48 C45      -4.1223   -1.9313   -1.5404   C.3       1 RES1   0.0000
    49 C46      -5.2418   -2.7262   -0.8708   C.3       1 RES1   0.0000
    50 C47      -5.1275   -2.7605    0.6545   C.3       1 RES1   0.0000
    51 C48      -6.1545   -3.7064    1.2640   C.3       1 RES1   0.0000
    52 C49      -2.1101    0.9881    0.5066   C.ar      1 RES1   0.0000
    53 O1       -2.0689   -0.2244    0.8695   O.2       1 RES1   0.0000
    54 C50      -1.3970    1.9941    1.2572   C.ar      1 RES1   0.0000
    55 N3       -0.4103    1.4590    1.9908   N.ar      1 RES1   0.0000
    56 C51       0.5532    2.2818    2.4134   C.ar      1 RES1   0.0000
    57 C52       1.8751    1.7004    2.4337   C.ar      1 RES1   0.0000
    58 N4        1.8917    0.4871    1.8582   N.ar      1 RES1   0.0000
    59 C53       2.8904    0.2615    1.0016   C.ar      1 RES1   0.0000
    60 C54       2.3590   -0.4183   -0.1676   C.ar      1 RES1   0.0000
    61 O2        1.5410   -1.3736   -0.0581   O.2       1 RES1   0.0000
    62 H1        3.1101    5.1404   -7.2291   H         1 RES1   0.0000
    63 H2        2.2502    5.5665   -5.7494   H         1 RES1   0.0000
    64 H3        1.3973    4.7606   -7.0710   H         1 RES1   0.0000
    65 H4        3.6593    3.5449   -5.4140   H         1 RES1   0.0000
    66 H5        2.8286    2.7350   -6.7469   H         1 RES1   0.0000
    67 H6        0.6892    2.8346   -5.4839   H         1 RES1   0.0000
    68 H7        1.5091    3.6814   -4.1651   H         1 RES1   0.0000
    69 H8        3.0817    1.7339   -3.9622   H         1 RES1   0.0000
    70 H9        2.1600    0.8741   -5.1857   H         1 RES1   0.0000
    71 H10       0.2505    0.6588   -3.7947   H         1 RES1   0.0000
    72 H11       0.7889    1.8729   -2.6569   H         1 RES1   0.0000
    73 H12       2.3897   -0.6686   -3.1121   H         1 RES1   0.0000
    74 H13       0.9568   -0.7092   -2.0708   H         1 RES1   0.0000
    75 H14       5.4219    2.8897   -2.6839   H         1 RES1   0.0000
    76 H15       5.1696    5.3165   -2.8893   H         1 RES1   0.0000
    77 H16       3.0941    6.4270   -2.1413   H         1 RES1   0.0000
    78 H17       1.2812    5.0718   -1.1167   H         1 RES1   0.0000
    79 H18       1.5636    2.6628   -0.8236   H         1 RES1   0.0000
    80 H19       6.9435    0.9104    1.1420   H         1 RES1   0.0000
    81 H20       9.0809   -0.0567    0.3796   H         1 RES1   0.0000
    82 H21       9.3951   -0.6781   -1.9781   H         1 RES1   0.0000
    83 H22       7.5811   -0.3091   -3.6189   H         1 RES1   0.0000
    84 H23       5.4111    0.5544   -2.8514   H         1 RES1   0.0000
    85 H24       5.0253    2.7908    1.7603   H         1 RES1   0.0000
    86 H25       3.6727    4.5238    3.0982   H         1 RES1   0.0000
    87 H26       1.4377    5.5268    2.9970   H         1 RES1   0.0000
    88 H27      -0.7764    5.3062    1.5916   H         1 RES1   0.0000
    89 H28      -1.5507    5.4702   -2.0580   H         1 RES1   0.0000
    90 H29      -2.5853    7.6299   -2.6183   H         1 RES1   0.0000
    91 H30      -4.4861    8.4727   -1.3010   H         1 RES1   0.0000
    92 H31      -5.3364    7.1539    0.6119   H         1 RES1   0.0000
    93 H32      -4.3034    5.0012    1.1824   H         1 RES1   0.0000
    94 H33      -5.4367    2.7272   -1.5792   H         1 RES1   0.0000
    95 H34      -6.4381    2.9114   -3.8307   H         1 RES1   0.0000
    96 H35      -4.9919    3.2537   -5.8036   H         1 RES1   0.0000
    97 H36      -2.5417    3.4615   -5.5144   H         1 RES1   0.0000
    98 H37      -1.5471    3.2495   -3.2754   H         1 RES1   0.0000
    99 H38      -2.0698   -0.3722   -1.6218   H         1 RES1   0.0000
   100 H39      -3.0522    0.7291   -2.6134   H         1 RES1   0.0000
   101 H40      -5.0777    0.0043   -1.6138   H         1 RES1   0.0000
   102 H41      -4.2718   -0.3672   -0.0951   H         1 RES1   0.0000
   103 H42      -3.1656   -2.3403   -1.2096   H         1 RES1   0.0000
   104 H43      -4.1834   -2.0545   -2.6227   H         1 RES1   0.0000
   105 H44      -5.2104   -3.7526   -1.2398   H         1 RES1   0.0000
   106 H45      -6.2073   -2.3022   -1.1519   H         1 RES1   0.0000
   107 H46      -5.2888   -1.7631    1.0696   H         1 RES1   0.0000
   108 H47      -4.1194   -3.0794    0.9399   H         1 RES1   0.0000
   109 H48      -7.1578   -3.4031    0.9765   H         1 RES1   0.0000
   110 H49      -6.0939   -3.6980    2.3495   H         1 RES1   0.0000
   111 H50      -5.9901   -4.7227    0.9173   H         1 RES1   0.0000
   112 N5       -0.8416   -3.0989    0.2574   N.3       1 RES1   0.0000
   113 O3       -1.1459   -4.1365   -0.1965   O.2       1 RES1   0.0000
   114 O4       -0.5341   -2.9470    1.4694   O.co2     1 RES1   0.0000
   115 O5       -0.8249   -2.0508   -0.4296   O.co2     1 RES1   0.0000
@<TRIPOS>BOND
     1     1     8    1
     2     1    45    1
     3     1    53    1
     4     1    55    1
     5     1    58    1
     6     1    61    1
     7     1   114    1
     8     1   115    1
     9     2     3    1
    10     2    62    1
    11     2    63    1
    12     2    64    1
    13     3     4    1
    14     3    65    1
    15     3    66    1
    16     4     5    1
    17     4    67    1
    18     4    68    1
    19     5     6    1
    20     5    69    1
    21     5    70    1
    22     6     7    1
    23     6    71    1
    24     6    72    1
    25     7     8    1
    26     7    73    1
    27     7    74    1
    28     8     9    1
    29     8    60    1
    30     9    10    1
    31     9    16    2
    32    10    11    1
    33    10    15    2
    34    11    12    2
    35    11    75    1
    36    12    13    1
    37    12    76    1
    38    13    14    2
    39    13    77    1
    40    14    15    1
    41    14    78    1
    42    15    79    1
    43    16    17    1
    44    16    23    1
    45    17    18    1
    46    17    22    2
    47    18    19    2
    48    18    80    1
    49    19    20    1
    50    19    81    1
    51    20    21    2
    52    20    82    1
    53    21    22    1
    54    21    83    1
    55    22    84    1
    56    23    24    1
    57    23    59    2
    58    24    25    2
    59    24    85    1
    60    25    26    1
    61    25    57    1
    62    26    27    2
    63    26    86    1
    64    27    28    1
    65    27    87    1
    66    28    29    1
    67    28    56    2
    68    29    30    2
    69    29    88    1
    70    30    31    1
    71    30    54    1
    72    31    32    1
    73    31    38    2
    74    32    33    1
    75    32    37    2
    76    33    34    2
    77    33    89    1
    78    34    35    1
    79    34    90    1
    80    35    36    2
    81    35    91    1
    82    36    37    1
    83    36    92    1
    84    37    93    1
    85    38    39    1
    86    38    45    1
    87    39    40    1
    88    39    44    2
    89    40    41    2
    90    40    94    1
    91    41    42    1
    92    41    95    1
    93    42    43    2
    94    42    96    1
    95    43    44    1
    96    43    97    1
    97    44    98    1
    98    45    46    1
    99    45    52    1
   100    46    47    1
   101    46    99    1
   102    46   100    1
   103    47    48    1
   104    47   101    1
   105    47   102    1
   106    48    49    1
   107    48   103    1
   108    48   104    1
   109    49    50    1
   110    49   105    1
   111    49   106    1
   112    50    51    1
   113    50   107    1
   114    50   108    1
   115    51   109    1
   116    51   110    1
   117    51   111    1
   118    52    53    2
   119    52    54    1
   120    54    55    2
   121    55    56    1
   122    56    57    1
   123    57    58    2
   124    58    59    1
   125    59    60    1
   126    60    61    2
   127   112   113    2
   128   112   114    1
   129   112   115    1
@<TRIPOS>SUBSTRUCTURE
     1 RES1      115 GROUP             0 ****  ****    0  
