@<TRIPOS>MOLECULE
square_prismatic_0_nunpairedes_0_charge_3 Charge: 3 Unpaired_Electrons: 0 XTB_Unpaired_Electrons: 0 XTB_Charge: 3
   149   164     1     0     0
SMALL
NoCharges
****
Generated from Architector

@<TRIPOS>ATOM
     1 Lu1      -0.0713    0.0255   -0.0264   Lu        1 RES1   0.0000
     2 C1       -4.1262    7.9912    4.2394   C.3       1 RES1   0.0000
     3 C2       -2.6875    8.3011    3.8193   C.3       1 RES1   0.0000
     4 C3       -1.9266    7.0475    3.5274   C.ar      1 RES1   0.0000
     5 C4       -2.2290    6.2630    2.4147   C.ar      1 RES1   0.0000
     6 C5       -1.5456    5.0924    2.1676   C.ar      1 RES1   0.0000
     7 C6       -0.5661    4.6374    3.0543   C.ar      1 RES1   0.0000
     8 N1        0.0843    3.4111    2.7939   N.am      1 RES1   0.0000
     9 C7        1.4660    3.2091    3.2694   C.3       1 RES1   0.0000
    10 C8        2.5761    3.8228    2.4191   C.3       1 RES1   0.0000
    11 C9       -0.4215    2.4277    2.0312   C.2       1 RES1   0.0000
    12 O1        0.3926    1.6169    1.5199   O.2       1 RES1   0.0000
    13 C10      -1.8640    2.0547    1.8088   C.ar      1 RES1   0.0000
    14 C11      -2.9992    2.3864    2.5645   C.ar      1 RES1   0.0000
    15 C12      -4.1868    1.7310    2.3188   C.ar      1 RES1   0.0000
    16 C13      -4.2653    0.7054    1.3567   C.ar      1 RES1   0.0000
    17 C14      -5.4256   -0.0786    1.0705   C.ar      1 RES1   0.0000
    18 C15      -5.4125   -1.0620    0.1276   C.ar      1 RES1   0.0000
    19 C16      -4.2345   -1.3582   -0.6233   C.ar      1 RES1   0.0000
    20 C17      -4.1298   -2.3460   -1.6261   C.ar      1 RES1   0.0000
    21 C18      -2.9379   -2.5641   -2.2828   C.ar      1 RES1   0.0000
    22 C19      -1.8136   -1.8098   -1.9047   C.ar      1 RES1   0.0000
    23 C20      -0.3723   -1.9599   -2.3071   C.2       1 RES1   0.0000
    24 O2        0.4668   -1.5575   -1.4497   O.2       1 RES1   0.0000
    25 N2        0.0495   -2.4793   -3.4531   N.am      1 RES1   0.0000
    26 C21       1.5054   -2.6178   -3.6004   C.3       1 RES1   0.0000
    27 C22       2.0903   -3.6497   -2.6426   C.3       1 RES1   0.0000
    28 C23      -0.7363   -2.7485   -4.6052   C.ar      1 RES1   0.0000
    29 C24      -0.4473   -3.8595   -5.3996   C.ar      1 RES1   0.0000
    30 C25      -1.1341   -4.0717   -6.5771   C.ar      1 RES1   0.0000
    31 C26      -2.1351   -3.1929   -6.9947   C.ar      1 RES1   0.0000
    32 C27      -2.8651   -3.4359   -8.2800   C.3       1 RES1   0.0000
    33 C28      -1.9684   -3.2506   -9.5097   C.3       1 RES1   0.0000
    34 C29      -2.4206   -2.0871   -6.1934   C.ar      1 RES1   0.0000
    35 C30      -1.7262   -1.8597   -5.0187   C.ar      1 RES1   0.0000
    36 N3       -1.9099   -0.8835   -0.9540   N.ar      1 RES1   0.0000
    37 C31      -3.0680   -0.6170   -0.3469   C.ar      1 RES1   0.0000
    38 C32      -3.0806    0.4397    0.6393   C.ar      1 RES1   0.0000
    39 N4       -1.9435    1.1182    0.8557   N.ar      1 RES1   0.0000
    40 C33      -0.2186    5.4493    4.1342   C.ar      1 RES1   0.0000
    41 C34      -0.8912    6.6354    4.3586   C.ar      1 RES1   0.0000
    42 H1       -4.6444    8.9120    4.4892   H         1 RES1   0.0000
    43 H2       -4.1368    7.3464    5.1139   H         1 RES1   0.0000
    44 H3       -4.6648    7.4927    3.4384   H         1 RES1   0.0000
    45 H4       -2.2005    8.8584    4.6204   H         1 RES1   0.0000
    46 H5       -2.7055    8.9329    2.9293   H         1 RES1   0.0000
    47 H6       -2.9924    6.5887    1.7246   H         1 RES1   0.0000
    48 H7       -1.7622    4.5375    1.2670   H         1 RES1   0.0000
    49 H8        1.6343    2.1302    3.3213   H         1 RES1   0.0000
    50 H9        1.5219    3.6289    4.2728   H         1 RES1   0.0000
    51 H10       2.5567    3.4443    1.3991   H         1 RES1   0.0000
    52 H11       3.5409    3.5578    2.8512   H         1 RES1   0.0000
    53 H12       2.5030    4.9064    2.4025   H         1 RES1   0.0000
    54 H13      -2.9591    3.1412    3.3323   H         1 RES1   0.0000
    55 H14      -5.0607    1.9921    2.8953   H         1 RES1   0.0000
    56 H15      -6.3343    0.1204    1.6196   H         1 RES1   0.0000
    57 H16      -6.2999   -1.6427   -0.0636   H         1 RES1   0.0000
    58 H17      -4.9892   -2.9489   -1.8796   H         1 RES1   0.0000
    59 H18      -2.8602   -3.3154   -3.0539   H         1 RES1   0.0000
    60 H19       1.9528   -1.6377   -3.4015   H         1 RES1   0.0000
    61 H20       1.7056   -2.8954   -4.6351   H         1 RES1   0.0000
    62 H21       1.9409   -3.3443   -1.6088   H         1 RES1   0.0000
    63 H22       3.1574   -3.7443   -2.8251   H         1 RES1   0.0000
    64 H23       1.6249   -4.6206   -2.7921   H         1 RES1   0.0000
    65 H24       0.3045   -4.5714   -5.0951   H         1 RES1   0.0000
    66 H25      -0.8786   -4.9310   -7.1815   H         1 RES1   0.0000
    67 H26      -3.7175   -2.7605   -8.3659   H         1 RES1   0.0000
    68 H27      -3.2402   -4.4622   -8.2797   H         1 RES1   0.0000
    69 H28      -1.5500   -2.2475   -9.5348   H         1 RES1   0.0000
    70 H29      -2.5491   -3.3970  -10.4169   H         1 RES1   0.0000
    71 H30      -1.1504   -3.9654   -9.5110   H         1 RES1   0.0000
    72 H31      -3.1740   -1.3808   -6.5116   H         1 RES1   0.0000
    73 H32      -1.9277   -0.9777   -4.4280   H         1 RES1   0.0000
    74 H33       0.5672    5.1838    4.8226   H         1 RES1   0.0000
    75 H34      -0.6040    7.2597    5.1934   H         1 RES1   0.0000
    76 C35      -6.4324    0.8489    4.7907   C.3       1 RES1   0.0000
    77 C36      -5.6713   -0.3133    5.4340   C.3       1 RES1   0.0000
    78 C37      -4.2482   -0.4744    4.9831   C.ar      1 RES1   0.0000
    79 C38      -3.2145    0.1611    5.6623   C.ar      1 RES1   0.0000
    80 C39      -1.8912   -0.0428    5.3241   C.ar      1 RES1   0.0000
    81 C40      -1.5493   -0.9225    4.2941   C.ar      1 RES1   0.0000
    82 N5       -0.1552   -1.1917    4.0285   N.am      1 RES1   0.0000
    83 C41       0.6455   -1.3767    5.2376   C.3       1 RES1   0.0000
    84 C42       0.1460   -2.5735    6.0417   C.3       1 RES1   0.0000
    85 C43       0.2980   -1.2785    2.7719   C.2       1 RES1   0.0000
    86 O3       -0.4948   -1.2596    1.7988   O.2       1 RES1   0.0000
    87 C44       1.7710   -1.1521    2.3712   C.ar      1 RES1   0.0000
    88 C45       2.9799   -1.5481    2.9702   C.ar      1 RES1   0.0000
    89 C46       4.1762   -1.1370    2.4155   C.ar      1 RES1   0.0000
    90 C47       4.1977   -0.2616    1.3126   C.ar      1 RES1   0.0000
    91 C48       5.3581    0.3496    0.7507   C.ar      1 RES1   0.0000
    92 C49       5.2717    1.2864   -0.2307   C.ar      1 RES1   0.0000
    93 C50       4.0131    1.7112   -0.7492   C.ar      1 RES1   0.0000
    94 C51       3.8078    2.7826   -1.6452   C.ar      1 RES1   0.0000
    95 C52       2.5326    3.1921   -1.9706   C.ar      1 RES1   0.0000
    96 C53       1.4443    2.4596   -1.4782   C.ar      1 RES1   0.0000
    97 C54      -0.0369    2.5631   -1.7872   C.2       1 RES1   0.0000
    98 O4       -0.5815    1.4407   -1.8740   O.2       1 RES1   0.0000
    99 N6       -0.7014    3.7183   -1.9087   N.am      1 RES1   0.0000
   100 C55      -2.0947    3.7972   -2.4134   C.3       1 RES1   0.0000
   101 C56      -2.9012    2.5158   -2.5388   C.3       1 RES1   0.0000
   102 C57      -0.2391    4.9682   -1.3877   C.ar      1 RES1   0.0000
   103 C58       0.5804    5.0299   -0.2642   C.ar      1 RES1   0.0000
   104 C59       0.8370    6.2412    0.3529   C.ar      1 RES1   0.0000
   105 C60       0.2274    7.4167   -0.0705   C.ar      1 RES1   0.0000
   106 C61       0.3407    8.6666    0.7469   C.3       1 RES1   0.0000
   107 C62       1.1117    9.7887    0.0500   C.3       1 RES1   0.0000
   108 C63      -0.5448    7.3646   -1.2272   C.ar      1 RES1   0.0000
   109 C64      -0.7555    6.1683   -1.8850   C.ar      1 RES1   0.0000
   110 N7        1.6381    1.3808   -0.7269   N.ar      1 RES1   0.0000
   111 C65       2.8565    1.0422   -0.2983   C.ar      1 RES1   0.0000
   112 C66       2.9453    0.0433    0.7442   C.ar      1 RES1   0.0000
   113 N8        1.8082   -0.4657    1.2300   N.ar      1 RES1   0.0000
   114 C67      -2.5771   -1.5481    3.5951   C.ar      1 RES1   0.0000
   115 C68      -3.9008   -1.3146    3.9324   C.ar      1 RES1   0.0000
   116 H35      -7.4190    0.9338    5.2398   H         1 RES1   0.0000
   117 H36      -6.5757    0.6856    3.7268   H         1 RES1   0.0000
   118 H37      -5.9092    1.7900    4.9435   H         1 RES1   0.0000
   119 H38      -6.2173   -1.2334    5.2304   H         1 RES1   0.0000
   120 H39      -5.6726   -0.1497    6.5110   H         1 RES1   0.0000
   121 H40      -3.4480    0.7920    6.5063   H         1 RES1   0.0000
   122 H41      -1.1425    0.4740    5.9046   H         1 RES1   0.0000
   123 H42       0.5766   -0.4687    5.8417   H         1 RES1   0.0000
   124 H43       1.6857   -1.5243    4.9706   H         1 RES1   0.0000
   125 H44      -0.8835   -2.4269    6.3534   H         1 RES1   0.0000
   126 H45       0.7568   -2.7068    6.9298   H         1 RES1   0.0000
   127 H46       0.2000   -3.4840    5.4525   H         1 RES1   0.0000
   128 H47       3.0161   -2.1858    3.8366   H         1 RES1   0.0000
   129 H48       5.0969   -1.4748    2.8628   H         1 RES1   0.0000
   130 H49       6.3250    0.0579    1.1291   H         1 RES1   0.0000
   131 H50       6.1658    1.7374   -0.6342   H         1 RES1   0.0000
   132 H51       4.6550    3.3078   -2.0569   H         1 RES1   0.0000
   133 H52       2.3721    4.0553   -2.5921   H         1 RES1   0.0000
   134 H53      -2.0515    4.2622   -3.4039   H         1 RES1   0.0000
   135 H54      -2.6290    4.4825   -1.7463   H         1 RES1   0.0000
   136 H55      -2.4327    1.8092   -3.2146   H         1 RES1   0.0000
   137 H56      -3.8750    2.7736   -2.9523   H         1 RES1   0.0000
   138 H57      -3.0478    2.0428   -1.5710   H         1 RES1   0.0000
   139 H58       0.9607    4.1248    0.1829   H         1 RES1   0.0000
   140 H59       1.4722    6.2724    1.2257   H         1 RES1   0.0000
   141 H60       0.8329    8.4329    1.6930   H         1 RES1   0.0000
   142 H61      -0.6636    9.0297    0.9807   H         1 RES1   0.0000
   143 H62       2.1088    9.4526   -0.2189   H         1 RES1   0.0000
   144 H63       1.2001   10.6402    0.7197   H         1 RES1   0.0000
   145 H64       0.6049   10.1195   -0.8512   H         1 RES1   0.0000
   146 H65      -1.0150    8.2596   -1.6079   H         1 RES1   0.0000
   147 H66      -1.3539    6.1737   -2.7794   H         1 RES1   0.0000
   148 H67      -2.3448   -2.2452    2.8087   H         1 RES1   0.0000
   149 H68      -4.6850   -1.8278    3.3987   H         1 RES1   0.0000
@<TRIPOS>BOND
     1     1    12    1
     2     1    24    1
     3     1    36    1
     4     1    39    1
     5     1    86    1
     6     1    98    1
     7     1   110    1
     8     1   113    1
     9     2     3    1
    10     2    42    1
    11     2    43    1
    12     2    44    1
    13     3     4    1
    14     3    45    1
    15     3    46    1
    16     4     5    1
    17     4    41    2
    18     5     6    2
    19     5    47    1
    20     6     7    1
    21     6    48    1
    22     7     8    1
    23     7    40    2
    24     8     9    1
    25     8    11    1
    26     9    10    1
    27     9    49    1
    28     9    50    1
    29    10    51    1
    30    10    52    1
    31    10    53    1
    32    11    12    2
    33    11    13    1
    34    13    14    1
    35    13    39    2
    36    14    15    2
    37    14    54    1
    38    15    16    1
    39    15    55    1
    40    16    17    1
    41    16    38    2
    42    17    18    2
    43    17    56    1
    44    18    19    1
    45    18    57    1
    46    19    20    1
    47    19    37    2
    48    20    21    2
    49    20    58    1
    50    21    22    1
    51    21    59    1
    52    22    23    1
    53    22    36    2
    54    23    24    2
    55    23    25    1
    56    25    26    1
    57    25    28    1
    58    26    27    1
    59    26    60    1
    60    26    61    1
    61    27    62    1
    62    27    63    1
    63    27    64    1
    64    28    29    1
    65    28    35    2
    66    29    30    2
    67    29    65    1
    68    30    31    1
    69    30    66    1
    70    31    32    1
    71    31    34    2
    72    32    33    1
    73    32    67    1
    74    32    68    1
    75    33    69    1
    76    33    70    1
    77    33    71    1
    78    34    35    1
    79    34    72    1
    80    35    73    1
    81    36    37    1
    82    37    38    1
    83    38    39    1
    84    40    41    1
    85    40    74    1
    86    41    75    1
    87    76    77    1
    88    76   116    1
    89    76   117    1
    90    76   118    1
    91    77    78    1
    92    77   119    1
    93    77   120    1
    94    78    79    1
    95    78   115    2
    96    79    80    2
    97    79   121    1
    98    80    81    1
    99    80   122    1
   100    81    82    1
   101    81   114    2
   102    82    83    1
   103    82    85    1
   104    83    84    1
   105    83   123    1
   106    83   124    1
   107    84   125    1
   108    84   126    1
   109    84   127    1
   110    85    86    2
   111    85    87    1
   112    87    88    1
   113    87   113    2
   114    88    89    2
   115    88   128    1
   116    89    90    1
   117    89   129    1
   118    90    91    1
   119    90   112    2
   120    91    92    2
   121    91   130    1
   122    92    93    1
   123    92   131    1
   124    93    94    1
   125    93   111    2
   126    94    95    2
   127    94   132    1
   128    95    96    1
   129    95   133    1
   130    96    97    1
   131    96   110    2
   132    97    98    2
   133    97    99    1
   134    99   100    1
   135    99   102    1
   136   100   101    1
   137   100   134    1
   138   100   135    1
   139   101   136    1
   140   101   137    1
   141   101   138    1
   142   102   103    1
   143   102   109    2
   144   103   104    2
   145   103   139    1
   146   104   105    1
   147   104   140    1
   148   105   106    1
   149   105   108    2
   150   106   107    1
   151   106   141    1
   152   106   142    1
   153   107   143    1
   154   107   144    1
   155   107   145    1
   156   108   109    1
   157   108   146    1
   158   109   147    1
   159   110   111    1
   160   111   112    1
   161   112   113    1
   162   114   115    1
   163   114   148    1
   164   115   149    1
@<TRIPOS>SUBSTRUCTURE
     1 RES1      149 GROUP             0 ****  ****    0  
