@<TRIPOS>MOLECULE
YEMSEP_geometry_0_nunpairedes_0_charge_2 Charge: 2 Unpaired_Electrons: 0 XTB_Unpaired_Electrons: 0 XTB_Charge: 2
   243   247     1     0     0
SMALL
NoCharges
****
Generated from Architector

@<TRIPOS>ATOM
     1 Lu1      -0.1013    0.2550    0.0363   Lu        1 RES1   0.0000
     2 C1       -1.6186    7.5144    0.3314   C.3       1 RES1   0.0000
     3 C2       -0.7813    6.8768   -0.7660   C.3       1 RES1   0.0000
     4 C3       -1.0784    5.3827   -0.8949   C.3       1 RES1   0.0000
     5 C4       -0.1317    4.7022   -1.8849   C.3       1 RES1   0.0000
     6 C5       -0.3751    5.1240   -3.3447   C.3       1 RES1   0.0000
     7 C6       -1.0899    4.1324   -4.2683   C.3       1 RES1   0.0000
     8 C7       -2.4834    3.7035   -3.8087   C.3       1 RES1   0.0000
     9 C8       -2.5390    2.4758   -2.8973   C.3       1 RES1   0.0000
    10 N1       -2.0452    1.1948   -3.4338   N.am      1 RES1   0.0000
    11 C9       -2.6134    0.7779   -4.7064   C.3       1 RES1   0.0000
    12 C10      -4.1392    0.9068   -4.8119   C.3       1 RES1   0.0000
    13 C11      -4.9653    0.1910   -3.7418   C.3       1 RES1   0.0000
    14 C12      -6.4152    0.6842   -3.7692   C.3       1 RES1   0.0000
    15 C13      -7.2939    0.0673   -2.6810   C.3       1 RES1   0.0000
    16 C14      -6.8725    0.3418   -1.2341   C.3       1 RES1   0.0000
    17 C15      -7.1129    1.7754   -0.7447   C.3       1 RES1   0.0000
    18 C16      -5.9778    2.7489   -1.0482   C.3       1 RES1   0.0000
    19 C17      -1.1143    0.5390   -2.7554   C.2       1 RES1   0.0000
    20 O1       -0.5105    1.0922   -1.8125   O.2       1 RES1   0.0000
    21 C18      -0.8090   -0.9794   -2.9342   C.3       1 RES1   0.0000
    22 C19      -2.1157   -1.7111   -2.6226   C.3       1 RES1   0.0000
    23 O2        0.1468   -1.2682   -1.8883   O.3       1 RES1   0.0000
    24 C20       1.0482   -2.3863   -2.0194   C.3       1 RES1   0.0000
    25 C21       0.3261   -3.6949   -2.3233   C.3       1 RES1   0.0000
    26 C22       1.7491   -2.4226   -0.6339   C.2       1 RES1   0.0000
    27 O3        1.2383   -1.7484    0.2725   O.2       1 RES1   0.0000
    28 N2        2.8718   -3.1042   -0.3879   N.am      1 RES1   0.0000
    29 C23       3.6061   -2.6685    0.8116   C.3       1 RES1   0.0000
    30 C24       3.1448   -3.0891    2.2214   C.3       1 RES1   0.0000
    31 C25       3.8818   -4.2718    2.8690   C.3       1 RES1   0.0000
    32 C26       4.4054   -3.9856    4.2852   C.3       1 RES1   0.0000
    33 C27       3.3527   -3.9261    5.3975   C.3       1 RES1   0.0000
    34 C28       2.5897   -2.6079    5.5565   C.3       1 RES1   0.0000
    35 C29       3.2806   -1.5085    6.3667   C.3       1 RES1   0.0000
    36 C30       4.4488   -0.8294    5.6589   C.3       1 RES1   0.0000
    37 C31       3.5878   -3.9240   -1.3663   C.3       1 RES1   0.0000
    38 C32       4.2950   -5.1449   -0.7713   C.3       1 RES1   0.0000
    39 C33       3.3921   -6.1025    0.0088   C.3       1 RES1   0.0000
    40 C34       2.6222   -7.0895   -0.8656   C.3       1 RES1   0.0000
    41 C35       2.0068   -8.2091   -0.0259   C.3       1 RES1   0.0000
    42 C36       1.4682   -9.3923   -0.8347   C.3       1 RES1   0.0000
    43 C37       0.0806   -9.1804   -1.4492   C.3       1 RES1   0.0000
    44 C38       0.0921   -8.4276   -2.7767   C.3       1 RES1   0.0000
    45 H1       -1.4436    8.5850    0.3799   H         1 RES1   0.0000
    46 H2       -1.3663    7.0694    1.2897   H         1 RES1   0.0000
    47 H3       -2.6741    7.3471    0.1365   H         1 RES1   0.0000
    48 H4        0.2806    7.0125   -0.5457   H         1 RES1   0.0000
    49 H5       -0.9779    7.3872   -1.7110   H         1 RES1   0.0000
    50 H6       -2.1208    5.2479   -1.1865   H         1 RES1   0.0000
    51 H7       -0.9631    4.9204    0.0870   H         1 RES1   0.0000
    52 H8       -0.1789    3.6197   -1.7567   H         1 RES1   0.0000
    53 H9        0.8815    4.9923   -1.6016   H         1 RES1   0.0000
    54 H10       0.5850    5.3512   -3.8102   H         1 RES1   0.0000
    55 H11      -0.9571    6.0455   -3.3465   H         1 RES1   0.0000
    56 H12      -0.4804    3.2454   -4.4263   H         1 RES1   0.0000
    57 H13      -1.1768    4.6215   -5.2433   H         1 RES1   0.0000
    58 H14      -3.1044    3.5550   -4.6900   H         1 RES1   0.0000
    59 H15      -2.9347    4.5156   -3.2378   H         1 RES1   0.0000
    60 H16      -3.5825    2.3129   -2.6234   H         1 RES1   0.0000
    61 H17      -1.9903    2.6889   -1.9832   H         1 RES1   0.0000
    62 H18      -2.2952   -0.2394   -4.9211   H         1 RES1   0.0000
    63 H19      -2.1844    1.4233   -5.4788   H         1 RES1   0.0000
    64 H20      -4.4131    0.5253   -5.7964   H         1 RES1   0.0000
    65 H21      -4.4177    1.9602   -4.7947   H         1 RES1   0.0000
    66 H22      -4.5454    0.3822   -2.7532   H         1 RES1   0.0000
    67 H23      -4.9614   -0.8892   -3.9049   H         1 RES1   0.0000
    68 H24      -6.8539    0.4424   -4.7389   H         1 RES1   0.0000
    69 H25      -6.4356    1.7691   -3.6785   H         1 RES1   0.0000
    70 H26      -7.3171   -1.0145   -2.8303   H         1 RES1   0.0000
    71 H27      -8.3117    0.4396   -2.8154   H         1 RES1   0.0000
    72 H28      -5.8225    0.0815   -1.0831   H         1 RES1   0.0000
    73 H29      -7.4553   -0.3311   -0.6005   H         1 RES1   0.0000
    74 H30      -7.2460    1.7477    0.3390   H         1 RES1   0.0000
    75 H31      -8.0418    2.1521   -1.1751   H         1 RES1   0.0000
    76 H32      -5.0281    2.3421   -0.7032   H         1 RES1   0.0000
    77 H33      -6.1501    3.6898   -0.5318   H         1 RES1   0.0000
    78 H34      -5.9080    2.9668   -2.1103   H         1 RES1   0.0000
    79 H35      -0.3756   -1.2258   -3.9128   H         1 RES1   0.0000
    80 H36      -2.4054   -1.4459   -1.6020   H         1 RES1   0.0000
    81 H37      -2.0000   -2.7852   -2.6973   H         1 RES1   0.0000
    82 H38      -2.9119   -1.4148   -3.2923   H         1 RES1   0.0000
    83 H39       1.8000   -2.1669   -2.7965   H         1 RES1   0.0000
    84 H40      -0.4527   -3.8640   -1.5898   H         1 RES1   0.0000
    85 H41       1.0160   -4.5274   -2.2726   H         1 RES1   0.0000
    86 H42      -0.1014   -3.6774   -3.3209   H         1 RES1   0.0000
    87 H43       3.5319   -1.5801    0.8128   H         1 RES1   0.0000
    88 H44       4.6509   -2.9401    0.6776   H         1 RES1   0.0000
    89 H45       2.0657   -3.2352    2.2463   H         1 RES1   0.0000
    90 H46       3.3740   -2.2121    2.8260   H         1 RES1   0.0000
    91 H47       4.7512   -4.5232    2.2608   H         1 RES1   0.0000
    92 H48       3.2459   -5.1558    2.8991   H         1 RES1   0.0000
    93 H49       4.9869   -3.0661    4.2749   H         1 RES1   0.0000
    94 H50       5.0929   -4.7962    4.5349   H         1 RES1   0.0000
    95 H51       3.8470   -4.1469    6.3434   H         1 RES1   0.0000
    96 H52       2.6271   -4.7227    5.2195   H         1 RES1   0.0000
    97 H53       1.6478   -2.8311    6.0605   H         1 RES1   0.0000
    98 H54       2.3451   -2.2158    4.5710   H         1 RES1   0.0000
    99 H55       3.6294   -1.9196    7.3136   H         1 RES1   0.0000
   100 H56       2.5309   -0.7475    6.6013   H         1 RES1   0.0000
   101 H57       5.3267   -1.4687    5.6465   H         1 RES1   0.0000
   102 H58       4.7175    0.0897    6.1757   H         1 RES1   0.0000
   103 H59       4.1872   -0.5775    4.6289   H         1 RES1   0.0000
   104 H60       4.3410   -3.3118   -1.8762   H         1 RES1   0.0000
   105 H61       2.8842   -4.2664   -2.1170   H         1 RES1   0.0000
   106 H62       5.0961   -4.8116   -0.1150   H         1 RES1   0.0000
   107 H63       4.7717   -5.6806   -1.5958   H         1 RES1   0.0000
   108 H64       2.6912   -5.5322    0.6179   H         1 RES1   0.0000
   109 H65       4.0223   -6.6803    0.6877   H         1 RES1   0.0000
   110 H66       3.3079   -7.5328   -1.5892   H         1 RES1   0.0000
   111 H67       1.8414   -6.5679   -1.4188   H         1 RES1   0.0000
   112 H68       1.2054   -7.8080    0.5984   H         1 RES1   0.0000
   113 H69       2.7797   -8.5869    0.6457   H         1 RES1   0.0000
   114 H70       1.4093  -10.2507   -0.1625   H         1 RES1   0.0000
   115 H71       2.1753   -9.6506   -1.6245   H         1 RES1   0.0000
   116 H72      -0.5536   -8.6560   -0.7295   H         1 RES1   0.0000
   117 H73      -0.3691  -10.1605   -1.6227   H         1 RES1   0.0000
   118 H74       0.4120   -7.3955   -2.6520   H         1 RES1   0.0000
   119 H75      -0.9041   -8.4205   -3.2144   H         1 RES1   0.0000
   120 H76       0.7703   -8.9120   -3.4750   H         1 RES1   0.0000
   121 C39      -6.0796   -6.7089   -1.4171   C.3       1 RES1   0.0000
   122 C40      -4.5653   -6.5695   -1.4812   C.3       1 RES1   0.0000
   123 C41      -4.1108   -5.2891   -0.7862   C.3       1 RES1   0.0000
   124 C42      -2.6134   -5.0291   -0.9400   C.3       1 RES1   0.0000
   125 C43      -1.6967   -5.9943   -0.1696   C.3       1 RES1   0.0000
   126 C44      -0.9836   -5.3622    1.0278   C.3       1 RES1   0.0000
   127 C45      -1.9672   -4.9779    2.1422   C.3       1 RES1   0.0000
   128 C46      -2.2270   -3.4753    2.2597   C.3       1 RES1   0.0000
   129 N3       -1.2035   -2.7052    2.9770   N.am      1 RES1   0.0000
   130 C47      -0.8966   -3.1715    4.3245   C.3       1 RES1   0.0000
   131 C48      -2.1369   -3.4420    5.1888   C.3       1 RES1   0.0000
   132 C49      -3.0733   -2.2438    5.3333   C.3       1 RES1   0.0000
   133 C50      -4.3909   -2.6781    5.9757   C.3       1 RES1   0.0000
   134 C51      -5.3957   -1.5433    6.1662   C.3       1 RES1   0.0000
   135 C52      -5.8271   -0.7876    4.9069   C.3       1 RES1   0.0000
   136 C53      -6.7313   -1.5695    3.9474   C.3       1 RES1   0.0000
   137 C54      -5.9867   -2.4666    2.9626   C.3       1 RES1   0.0000
   138 C55      -0.7202   -1.6133    2.3964   C.2       1 RES1   0.0000
   139 O4       -1.1022   -1.2631    1.2554   O.2       1 RES1   0.0000
   140 C56       0.2659   -0.6554    3.1118   C.3       1 RES1   0.0000
   141 C57      -0.5508    0.1903    4.0900   C.3       1 RES1   0.0000
   142 O5        0.8261    0.1756    2.0784   O.3       1 RES1   0.0000
   143 C58       2.1304    0.7659    2.2554   C.3       1 RES1   0.0000
   144 C59       1.9800    2.1934    2.7802   C.3       1 RES1   0.0000
   145 C60       2.8029    0.7508    0.8456   C.2       1 RES1   0.0000
   146 O6        2.0509    0.6795   -0.1417   O.2       1 RES1   0.0000
   147 N4        4.1301    0.7548    0.7178   N.am      1 RES1   0.0000
   148 C61       4.7856    0.3060   -0.5283   C.3       1 RES1   0.0000
   149 C62       4.3980    0.9525   -1.8550   C.3       1 RES1   0.0000
   150 C63       4.6886    2.4412   -2.0303   C.3       1 RES1   0.0000
   151 C64       4.3561    2.9241   -3.4493   C.3       1 RES1   0.0000
   152 C65       2.8855    3.2812   -3.6615   C.3       1 RES1   0.0000
   153 C66       1.8487    2.1572   -3.6494   C.3       1 RES1   0.0000
   154 C67       1.7384    1.3522   -4.9459   C.3       1 RES1   0.0000
   155 C68       2.7990    0.2724   -5.1292   C.3       1 RES1   0.0000
   156 C69       5.0773    1.0190    1.8001   C.3       1 RES1   0.0000
   157 C70       6.0230    2.1866    1.4815   C.3       1 RES1   0.0000
   158 C71       5.3803    3.5604    1.6659   C.3       1 RES1   0.0000
   159 C72       5.3779    3.9862    3.1321   C.3       1 RES1   0.0000
   160 C73       4.6477    5.3087    3.3460   C.3       1 RES1   0.0000
   161 C74       4.7134    5.8090    4.7915   C.3       1 RES1   0.0000
   162 C75       3.6065    5.2681    5.7008   C.3       1 RES1   0.0000
   163 C76       3.7810    3.8050    6.1001   C.3       1 RES1   0.0000
   164 H77      -6.4042   -7.6322   -1.8877   H         1 RES1   0.0000
   165 H78      -6.5533   -5.8756   -1.9311   H         1 RES1   0.0000
   166 H79      -6.4164   -6.7133   -0.3831   H         1 RES1   0.0000
   167 H80      -4.2466   -6.5479   -2.5264   H         1 RES1   0.0000
   168 H81      -4.0976   -7.4382   -1.0145   H         1 RES1   0.0000
   169 H82      -4.3842   -5.3287    0.2685   H         1 RES1   0.0000
   170 H83      -4.6532   -4.4472   -1.2236   H         1 RES1   0.0000
   171 H84      -2.4174   -4.0042   -0.6193   H         1 RES1   0.0000
   172 H85      -2.3846   -5.0981   -2.0056   H         1 RES1   0.0000
   173 H86      -0.9458   -6.4001   -0.8468   H         1 RES1   0.0000
   174 H87      -2.2826   -6.8355    0.1961   H         1 RES1   0.0000
   175 H88      -0.4289   -4.4763    0.7100   H         1 RES1   0.0000
   176 H89      -0.2507   -6.0797    1.4061   H         1 RES1   0.0000
   177 H90      -1.6349   -5.3993    3.0881   H         1 RES1   0.0000
   178 H91      -2.9302   -5.4408    1.9256   H         1 RES1   0.0000
   179 H92      -3.1850   -3.3270    2.7583   H         1 RES1   0.0000
   180 H93      -2.3099   -3.0419    1.2641   H         1 RES1   0.0000
   181 H94      -0.2685   -2.4464    4.8304   H         1 RES1   0.0000
   182 H95      -0.3262   -4.1011    4.2515   H         1 RES1   0.0000
   183 H96      -1.7888   -3.7517    6.1767   H         1 RES1   0.0000
   184 H97      -2.7109   -4.2770    4.7877   H         1 RES1   0.0000
   185 H98      -3.2714   -1.8137    4.3503   H         1 RES1   0.0000
   186 H99      -2.6138   -1.4690    5.9512   H         1 RES1   0.0000
   187 H100     -4.1734   -3.1048    6.9565   H         1 RES1   0.0000
   188 H101     -4.8388   -3.4726    5.3797   H         1 RES1   0.0000
   189 H102     -4.9673   -0.8198    6.8625   H         1 RES1   0.0000
   190 H103     -6.2870   -1.9631    6.6358   H         1 RES1   0.0000
   191 H104     -4.9558   -0.4163    4.3631   H         1 RES1   0.0000
   192 H105     -6.3818    0.0905    5.2442   H         1 RES1   0.0000
   193 H106     -7.3148   -0.8492    3.3693   H         1 RES1   0.0000
   194 H107     -7.4367   -2.1682    4.5253   H         1 RES1   0.0000
   195 H108     -5.1995   -1.9053    2.4603   H         1 RES1   0.0000
   196 H109     -6.6734   -2.8404    2.2067   H         1 RES1   0.0000
   197 H110     -5.5471   -3.3263    3.4607   H         1 RES1   0.0000
   198 H111      1.0729   -1.1865    3.6270   H         1 RES1   0.0000
   199 H112     -1.3011    0.7628    3.5442   H         1 RES1   0.0000
   200 H113      0.0892    0.8723    4.6424   H         1 RES1   0.0000
   201 H114     -1.0608   -0.4463    4.8044   H         1 RES1   0.0000
   202 H115      2.7123    0.1468    2.9510   H         1 RES1   0.0000
   203 H116      1.3058    2.7524    2.1334   H         1 RES1   0.0000
   204 H117      2.9381    2.6990    2.8032   H         1 RES1   0.0000
   205 H118      1.5678    2.1773    3.7853   H         1 RES1   0.0000
   206 H119      4.5801   -0.7636   -0.6528   H         1 RES1   0.0000
   207 H120      5.8579    0.4128   -0.3802   H         1 RES1   0.0000
   208 H121      3.3432    0.7664   -2.0176   H         1 RES1   0.0000
   209 H122      4.9527    0.4011   -2.6188   H         1 RES1   0.0000
   210 H123      5.7481    2.6346   -1.8410   H         1 RES1   0.0000
   211 H124      4.1041    3.0285   -1.3203   H         1 RES1   0.0000
   212 H125      4.6879    2.1884   -4.1795   H         1 RES1   0.0000
   213 H126      4.9319    3.8304   -3.6479   H         1 RES1   0.0000
   214 H127      2.7966    3.8021   -4.6168   H         1 RES1   0.0000
   215 H128      2.6086    3.9929   -2.8823   H         1 RES1   0.0000
   216 H129      0.8921    2.6374   -3.4709   H         1 RES1   0.0000
   217 H130      1.9800    1.4894   -2.8005   H         1 RES1   0.0000
   218 H131      1.7849    2.0375   -5.7941   H         1 RES1   0.0000
   219 H132      0.7528    0.8731   -4.9688   H         1 RES1   0.0000
   220 H133      3.7765    0.7130   -5.2925   H         1 RES1   0.0000
   221 H134      2.5741   -0.3367   -6.0030   H         1 RES1   0.0000
   222 H135      2.8515   -0.3734   -4.2522   H         1 RES1   0.0000
   223 H136      5.6719    0.1179    1.9779   H         1 RES1   0.0000
   224 H137      4.5445    1.2517    2.7165   H         1 RES1   0.0000
   225 H138      6.3872    2.1055    0.4608   H         1 RES1   0.0000
   226 H139      6.8913    2.1079    2.1379   H         1 RES1   0.0000
   227 H140      4.3653    3.5502    1.2606   H         1 RES1   0.0000
   228 H141      5.9454    4.2981    1.0939   H         1 RES1   0.0000
   229 H142      6.4116    4.0976    3.4651   H         1 RES1   0.0000
   230 H143      4.9319    3.2083    3.7510   H         1 RES1   0.0000
   231 H144      3.6003    5.2179    3.0480   H         1 RES1   0.0000
   232 H145      5.1072    6.0525    2.6938   H         1 RES1   0.0000
   233 H146      4.6343    6.8970    4.7832   H         1 RES1   0.0000
   234 H147      5.6863    5.5629    5.2207   H         1 RES1   0.0000
   235 H148      2.6403    5.3983    5.2060   H         1 RES1   0.0000
   236 H149      3.5934    5.8716    6.6106   H         1 RES1   0.0000
   237 H150      3.5094    3.1363    5.2862   H         1 RES1   0.0000
   238 H151      3.1460    3.5678    6.9507   H         1 RES1   0.0000
   239 H152      4.8140    3.6142    6.3818   H         1 RES1   0.0000
   240 N5       -1.4977    2.0763    0.8901   N.3       1 RES1   0.0000
   241 O7       -2.0991    2.8589    1.5499   O.2       1 RES1   0.0000
   242 O8       -0.2804    2.2167    0.6800   O.co2     1 RES1   0.0000
   243 O9       -2.0464    1.0857    0.3798   O.co2     1 RES1   0.0000
@<TRIPOS>BOND
     1     1    20    1
     2     1    23    1
     3     1    27    1
     4     1   139    1
     5     1   142    1
     6     1   146    1
     7     1   242    1
     8     1   243    1
     9     2     3    1
    10     2    45    1
    11     2    46    1
    12     2    47    1
    13     3     4    1
    14     3    48    1
    15     3    49    1
    16     4     5    1
    17     4    50    1
    18     4    51    1
    19     5     6    1
    20     5    52    1
    21     5    53    1
    22     6     7    1
    23     6    54    1
    24     6    55    1
    25     7     8    1
    26     7    56    1
    27     7    57    1
    28     8     9    1
    29     8    58    1
    30     8    59    1
    31     9    10    1
    32     9    60    1
    33     9    61    1
    34    10    11    1
    35    10    19    1
    36    11    12    1
    37    11    62    1
    38    11    63    1
    39    12    13    1
    40    12    64    1
    41    12    65    1
    42    13    14    1
    43    13    66    1
    44    13    67    1
    45    14    15    1
    46    14    68    1
    47    14    69    1
    48    15    16    1
    49    15    70    1
    50    15    71    1
    51    16    17    1
    52    16    72    1
    53    16    73    1
    54    17    18    1
    55    17    74    1
    56    17    75    1
    57    18    76    1
    58    18    77    1
    59    18    78    1
    60    19    20    2
    61    19    21    1
    62    21    22    1
    63    21    23    1
    64    21    79    1
    65    22    80    1
    66    22    81    1
    67    22    82    1
    68    23    24    1
    69    24    25    1
    70    24    26    1
    71    24    83    1
    72    25    84    1
    73    25    85    1
    74    25    86    1
    75    26    27    2
    76    26    28    1
    77    28    29    1
    78    28    37    1
    79    29    30    1
    80    29    87    1
    81    29    88    1
    82    30    31    1
    83    30    89    1
    84    30    90    1
    85    31    32    1
    86    31    91    1
    87    31    92    1
    88    32    33    1
    89    32    93    1
    90    32    94    1
    91    33    34    1
    92    33    95    1
    93    33    96    1
    94    34    35    1
    95    34    97    1
    96    34    98    1
    97    35    36    1
    98    35    99    1
    99    35   100    1
   100    36   101    1
   101    36   102    1
   102    36   103    1
   103    37    38    1
   104    37   104    1
   105    37   105    1
   106    38    39    1
   107    38   106    1
   108    38   107    1
   109    39    40    1
   110    39   108    1
   111    39   109    1
   112    40    41    1
   113    40   110    1
   114    40   111    1
   115    41    42    1
   116    41   112    1
   117    41   113    1
   118    42    43    1
   119    42   114    1
   120    42   115    1
   121    43    44    1
   122    43   116    1
   123    43   117    1
   124    44   118    1
   125    44   119    1
   126    44   120    1
   127   121   122    1
   128   121   164    1
   129   121   165    1
   130   121   166    1
   131   122   123    1
   132   122   167    1
   133   122   168    1
   134   123   124    1
   135   123   169    1
   136   123   170    1
   137   124   125    1
   138   124   171    1
   139   124   172    1
   140   125   126    1
   141   125   173    1
   142   125   174    1
   143   126   127    1
   144   126   175    1
   145   126   176    1
   146   127   128    1
   147   127   177    1
   148   127   178    1
   149   128   129    1
   150   128   179    1
   151   128   180    1
   152   129   130    1
   153   129   138    1
   154   130   131    1
   155   130   181    1
   156   130   182    1
   157   131   132    1
   158   131   183    1
   159   131   184    1
   160   132   133    1
   161   132   185    1
   162   132   186    1
   163   133   134    1
   164   133   187    1
   165   133   188    1
   166   134   135    1
   167   134   189    1
   168   134   190    1
   169   135   136    1
   170   135   191    1
   171   135   192    1
   172   136   137    1
   173   136   193    1
   174   136   194    1
   175   137   195    1
   176   137   196    1
   177   137   197    1
   178   138   139    2
   179   138   140    1
   180   140   141    1
   181   140   142    1
   182   140   198    1
   183   141   199    1
   184   141   200    1
   185   141   201    1
   186   142   143    1
   187   143   144    1
   188   143   145    1
   189   143   202    1
   190   144   203    1
   191   144   204    1
   192   144   205    1
   193   145   146    2
   194   145   147    1
   195   147   148    1
   196   147   156    1
   197   148   149    1
   198   148   206    1
   199   148   207    1
   200   149   150    1
   201   149   208    1
   202   149   209    1
   203   150   151    1
   204   150   210    1
   205   150   211    1
   206   151   152    1
   207   151   212    1
   208   151   213    1
   209   152   153    1
   210   152   214    1
   211   152   215    1
   212   153   154    1
   213   153   216    1
   214   153   217    1
   215   154   155    1
   216   154   218    1
   217   154   219    1
   218   155   220    1
   219   155   221    1
   220   155   222    1
   221   156   157    1
   222   156   223    1
   223   156   224    1
   224   157   158    1
   225   157   225    1
   226   157   226    1
   227   158   159    1
   228   158   227    1
   229   158   228    1
   230   159   160    1
   231   159   229    1
   232   159   230    1
   233   160   161    1
   234   160   231    1
   235   160   232    1
   236   161   162    1
   237   161   233    1
   238   161   234    1
   239   162   163    1
   240   162   235    1
   241   162   236    1
   242   163   237    1
   243   163   238    1
   244   163   239    1
   245   240   241    2
   246   240   242    1
   247   240   243    1
@<TRIPOS>SUBSTRUCTURE
     1 RES1      243 GROUP             0 ****  ****    0  
