@<TRIPOS>MOLECULE
ICIGOT_geomtry_0_nunpairedes_0_charge_2 Charge: 2 Unpaired_Electrons: 0 XTB_Unpaired_Electrons: 0 XTB_Charge: 2
   111   115     1     0     0
SMALL
NoCharges
****
Generated from Architector

@<TRIPOS>ATOM
     1 Lu1      -0.2511   -0.0513   -0.2238   Lu        1 RES1   0.0000
     2 C1       -1.2087    1.1455    7.3356   C.3       1 RES1   0.0000
     3 C2       -1.8170    0.8384    5.9767   C.3       1 RES1   0.0000
     4 C3       -1.0404   -0.2931    5.3019   C.3       1 RES1   0.0000
     5 N1       -1.4682   -0.5669    3.9418   N.am      1 RES1   0.0000
     6 C4       -2.5444   -1.5494    3.7497   C.3       1 RES1   0.0000
     7 C5       -3.7803   -0.9966    3.0284   C.3       1 RES1   0.0000
     8 C6       -4.4645    0.1481    3.7659   C.3       1 RES1   0.0000
     9 C7       -0.9091   -0.0087    2.8805   C.2       1 RES1   0.0000
    10 O1       -1.1590   -0.3967    1.7229   O.2       1 RES1   0.0000
    11 C8        0.0803    1.1544    3.0652   C.3       1 RES1   0.0000
    12 O2        0.6255    1.4803    1.7918   O.3       1 RES1   0.0000
    13 C9        0.5728    2.8395    1.3830   C.3       1 RES1   0.0000
    14 C10      -0.6058    3.0122    0.4130   C.2       1 RES1   0.0000
    15 O3       -1.1006    1.9520   -0.0374   O.2       1 RES1   0.0000
    16 N2       -1.0596    4.2041    0.0722   N.am      1 RES1   0.0000
    17 C11      -0.5870    5.4529    0.6682   C.3       1 RES1   0.0000
    18 C12       0.8397    5.8728    0.2913   C.3       1 RES1   0.0000
    19 C13       1.0535    5.9484   -1.2135   C.3       1 RES1   0.0000
    20 C14      -2.1656    4.2243   -0.8975   C.3       1 RES1   0.0000
    21 C15      -1.7304    3.8793   -2.3290   C.3       1 RES1   0.0000
    22 C16      -2.9534    3.7799   -3.2339   C.3       1 RES1   0.0000
    23 H1       -1.7663    1.9372    7.8234   H         1 RES1   0.0000
    24 H2       -1.2413    0.2633    7.9674   H         1 RES1   0.0000
    25 H3       -0.1735    1.4603    7.2318   H         1 RES1   0.0000
    26 H4       -2.8563    0.5400    6.0997   H         1 RES1   0.0000
    27 H5       -1.8021    1.7339    5.3524   H         1 RES1   0.0000
    28 H6        0.0269   -0.0594    5.3033   H         1 RES1   0.0000
    29 H7       -1.1739   -1.2161    5.8723   H         1 RES1   0.0000
    30 H8       -2.1430   -2.3827    3.1629   H         1 RES1   0.0000
    31 H9       -2.8328   -1.9152    4.7380   H         1 RES1   0.0000
    32 H10      -3.5066   -0.6850    2.0173   H         1 RES1   0.0000
    33 H11      -4.4833   -1.8278    2.9427   H         1 RES1   0.0000
    34 H12      -3.8223    1.0233    3.8364   H         1 RES1   0.0000
    35 H13      -5.3620    0.4353    3.2258   H         1 RES1   0.0000
    36 H14      -4.7575   -0.1596    4.7674   H         1 RES1   0.0000
    37 H15      -0.4462    1.9968    3.5324   H         1 RES1   0.0000
    38 H16       0.9102    0.8397    3.7162   H         1 RES1   0.0000
    39 H17       0.5187    3.5137    2.2452   H         1 RES1   0.0000
    40 H18       1.4959    3.0019    0.8083   H         1 RES1   0.0000
    41 H19      -1.2692    6.2397    0.3443   H         1 RES1   0.0000
    42 H20      -0.6736    5.3790    1.7583   H         1 RES1   0.0000
    43 H21       1.0028    6.8598    0.7264   H         1 RES1   0.0000
    44 H22       1.5735    5.1992    0.7343   H         1 RES1   0.0000
    45 H23       0.3348    6.6225   -1.6715   H         1 RES1   0.0000
    46 H24       2.0491    6.3244   -1.4293   H         1 RES1   0.0000
    47 H25       0.9555    4.9645   -1.6646   H         1 RES1   0.0000
    48 H26      -2.8965    3.4766   -0.5675   H         1 RES1   0.0000
    49 H27      -2.6384    5.2083   -0.8743   H         1 RES1   0.0000
    50 H28      -1.0618    4.6490   -2.7196   H         1 RES1   0.0000
    51 H29      -1.2002    2.9202   -2.3313   H         1 RES1   0.0000
    52 H30      -3.5015    4.7189   -3.2467   H         1 RES1   0.0000
    53 H31      -2.6421    3.5525   -4.2483   H         1 RES1   0.0000
    54 H32      -3.6186    2.9887   -2.8990   H         1 RES1   0.0000
    55 C17       4.1981   -4.6025    0.8968   C.3       1 RES1   0.0000
    56 C18       4.3191   -4.2630    2.3765   C.3       1 RES1   0.0000
    57 C19       3.1600   -3.4115    2.9072   C.3       1 RES1   0.0000
    58 N3        3.0252   -2.1364    2.2121   N.am      1 RES1   0.0000
    59 C20       4.0661   -1.1489    2.5154   C.3       1 RES1   0.0000
    60 C21       3.6551   -0.1675    3.6194   C.3       1 RES1   0.0000
    61 C22       4.8487    0.6586    4.0875   C.3       1 RES1   0.0000
    62 C23       2.0209   -1.8265    1.4004   C.2       1 RES1   0.0000
    63 O4        1.8709   -0.6999    0.8976   O.2       1 RES1   0.0000
    64 C24       0.9552   -2.9118    1.1279   C.3       1 RES1   0.0000
    65 O5       -0.0303   -2.4343    0.2198   O.3       1 RES1   0.0000
    66 C25      -0.0559   -3.0004   -1.0854   C.3       1 RES1   0.0000
    67 C26       0.6497   -2.0676   -2.0897   C.2       1 RES1   0.0000
    68 O6        1.0696   -0.9682   -1.6617   O.2       1 RES1   0.0000
    69 N4        0.7469   -2.4348   -3.3526   N.am      1 RES1   0.0000
    70 C27       0.2211   -3.6937   -3.8658   C.3       1 RES1   0.0000
    71 C28      -1.2981   -3.6749   -4.0934   C.3       1 RES1   0.0000
    72 C29      -1.7571   -2.5713   -5.0382   C.3       1 RES1   0.0000
    73 C30       1.3882   -1.5264   -4.3060   C.3       1 RES1   0.0000
    74 C31       2.8733   -1.8552   -4.4931   C.3       1 RES1   0.0000
    75 C32       3.7038   -1.5998   -3.2399   C.3       1 RES1   0.0000
    76 H33       5.0571   -5.1959    0.5982   H         1 RES1   0.0000
    77 H34       4.1842   -3.6991    0.2894   H         1 RES1   0.0000
    78 H35       3.3030   -5.1900    0.7012   H         1 RES1   0.0000
    79 H36       5.2652   -3.7486    2.5463   H         1 RES1   0.0000
    80 H37       4.3378   -5.1805    2.9647   H         1 RES1   0.0000
    81 H38       3.3371   -3.1827    3.9623   H         1 RES1   0.0000
    82 H39       2.2329   -3.9800    2.8476   H         1 RES1   0.0000
    83 H40       4.2976   -0.5874    1.6074   H         1 RES1   0.0000
    84 H41       4.9625   -1.6926    2.8226   H         1 RES1   0.0000
    85 H42       3.2472   -0.7204    4.4708   H         1 RES1   0.0000
    86 H43       2.8845    0.4959    3.2169   H         1 RES1   0.0000
    87 H44       5.6377    0.0235    4.4827   H         1 RES1   0.0000
    88 H45       4.5460    1.3381    4.8783   H         1 RES1   0.0000
    89 H46       5.2514    1.2424    3.2650   H         1 RES1   0.0000
    90 H47       0.4309   -3.0899    2.0784   H         1 RES1   0.0000
    91 H48       1.4157   -3.8365    0.7628   H         1 RES1   0.0000
    92 H49      -1.1210   -3.0389   -1.3559   H         1 RES1   0.0000
    93 H50       0.3637   -4.0137   -1.0974   H         1 RES1   0.0000
    94 H51       0.4853   -4.5165   -3.1951   H         1 RES1   0.0000
    95 H52       0.7189   -3.8909   -4.8161   H         1 RES1   0.0000
    96 H53      -1.8356   -3.5810   -3.1478   H         1 RES1   0.0000
    97 H54      -1.5598   -4.6441   -4.5182   H         1 RES1   0.0000
    98 H55      -1.5351   -1.5848   -4.6386   H         1 RES1   0.0000
    99 H56      -2.8330   -2.6298   -5.1678   H         1 RES1   0.0000
   100 H57      -1.2983   -2.6809   -6.0175   H         1 RES1   0.0000
   101 H58       1.2747   -0.5048   -3.9280   H         1 RES1   0.0000
   102 H59       0.8579   -1.6191   -5.2555   H         1 RES1   0.0000
   103 H60       3.2456   -1.2320   -5.3087   H         1 RES1   0.0000
   104 H61       2.9761   -2.9011   -4.7925   H         1 RES1   0.0000
   105 H62       3.5887   -0.5686   -2.9129   H         1 RES1   0.0000
   106 H63       4.7531   -1.7862   -3.4539   H         1 RES1   0.0000
   107 H64       3.4009   -2.2553   -2.4238   H         1 RES1   0.0000
   108 N5       -2.0951   -0.1959   -1.9215   N.3       1 RES1   0.0000
   109 O7       -3.0473   -0.2020   -2.6281   O.2       1 RES1   0.0000
   110 O8       -1.0572    0.4254   -2.2100   O.co2     1 RES1   0.0000
   111 O9       -2.0696   -0.8427   -0.8488   O.co2     1 RES1   0.0000
@<TRIPOS>BOND
     1     1    10    1
     2     1    12    1
     3     1    15    1
     4     1    63    1
     5     1    65    1
     6     1    68    1
     7     1   110    1
     8     1   111    1
     9     2     3    1
    10     2    23    1
    11     2    24    1
    12     2    25    1
    13     3     4    1
    14     3    26    1
    15     3    27    1
    16     4     5    1
    17     4    28    1
    18     4    29    1
    19     5     6    1
    20     5     9    1
    21     6     7    1
    22     6    30    1
    23     6    31    1
    24     7     8    1
    25     7    32    1
    26     7    33    1
    27     8    34    1
    28     8    35    1
    29     8    36    1
    30     9    10    2
    31     9    11    1
    32    11    12    1
    33    11    37    1
    34    11    38    1
    35    12    13    1
    36    13    14    1
    37    13    39    1
    38    13    40    1
    39    14    15    2
    40    14    16    1
    41    16    17    1
    42    16    20    1
    43    17    18    1
    44    17    41    1
    45    17    42    1
    46    18    19    1
    47    18    43    1
    48    18    44    1
    49    19    45    1
    50    19    46    1
    51    19    47    1
    52    20    21    1
    53    20    48    1
    54    20    49    1
    55    21    22    1
    56    21    50    1
    57    21    51    1
    58    22    52    1
    59    22    53    1
    60    22    54    1
    61    55    56    1
    62    55    76    1
    63    55    77    1
    64    55    78    1
    65    56    57    1
    66    56    79    1
    67    56    80    1
    68    57    58    1
    69    57    81    1
    70    57    82    1
    71    58    59    1
    72    58    62    1
    73    59    60    1
    74    59    83    1
    75    59    84    1
    76    60    61    1
    77    60    85    1
    78    60    86    1
    79    61    87    1
    80    61    88    1
    81    61    89    1
    82    62    63    2
    83    62    64    1
    84    64    65    1
    85    64    90    1
    86    64    91    1
    87    65    66    1
    88    66    67    1
    89    66    92    1
    90    66    93    1
    91    67    68    2
    92    67    69    1
    93    69    70    1
    94    69    73    1
    95    70    71    1
    96    70    94    1
    97    70    95    1
    98    71    72    1
    99    71    96    1
   100    71    97    1
   101    72    98    1
   102    72    99    1
   103    72   100    1
   104    73    74    1
   105    73   101    1
   106    73   102    1
   107    74    75    1
   108    74   103    1
   109    74   104    1
   110    75   105    1
   111    75   106    1
   112    75   107    1
   113   108   109    2
   114   108   110    1
   115   108   111    1
@<TRIPOS>SUBSTRUCTURE
     1 RES1      111 GROUP             0 ****  ****    0  
