@<TRIPOS>MOLECULE
ICIGOT_geomtry_0_nunpairedes_0_charge_3 Charge: 3 Unpaired_Electrons: 0 XTB_Unpaired_Electrons: 0 XTB_Charge: 3
    69    81     1     0     0
SMALL
NoCharges
****
Generated from Architector

@<TRIPOS>ATOM
     1 Lu1       0.9581    1.6354    1.0881   Lu        1 RES1   0.0000
     2 C1        3.3496    5.0005    2.7504   C.3       1 RES1   0.0000
     3 C2        2.0010    4.7321    2.1204   C.3       1 RES1   0.0000
     4 C3        1.0685    3.7956    2.9742   C.3       1 RES1   0.0000
     5 C4       -0.3451    3.9553    2.3345   C.3       1 RES1   0.0000
     6 C5       -0.0937    5.0202    1.2258   C.3       1 RES1   0.0000
     7 C6        0.6936    4.2274    0.2288   C.ar      1 RES1   0.0000
     8 N1        0.2623    3.3251   -0.6252   N.ar      1 RES1   0.0000
     9 N2        1.1524    2.5482   -1.2377   N.ar      1 RES1   0.0000
    10 C7        2.4020    2.5101   -0.8155   C.ar      1 RES1   0.0000
    11 C8        3.1067    1.1958   -1.0636   C.ar      1 RES1   0.0000
    12 C9        4.1198    0.6868   -1.8526   C.ar      1 RES1   0.0000
    13 C10       4.4797   -0.6524   -1.6369   C.ar      1 RES1   0.0000
    14 C11       3.9327   -1.4041   -0.5907   C.ar      1 RES1   0.0000
    15 C12       2.9347   -0.8048    0.1772   C.ar      1 RES1   0.0000
    16 C13       2.2132   -1.2333    1.4113   C.ar      1 RES1   0.0000
    17 N3        1.6577   -0.1487    1.9997   N.ar      1 RES1   0.0000
    18 N4        0.7752   -0.2502    3.0084   N.ar      1 RES1   0.0000
    19 C14       0.5746   -1.4545    3.4809   C.ar      1 RES1   0.0000
    20 C15       1.2347   -2.6014    2.8847   C.ar      1 RES1   0.0000
    21 N5        2.0389   -2.4728    1.8453   N.ar      1 RES1   0.0000
    22 C16       0.6174   -3.8040    3.4846   C.3       1 RES1   0.0000
    23 C17       1.3566   -5.1153    3.3821   C.3       1 RES1   0.0000
    24 C18      -0.7724   -3.7244    2.7442   C.3       1 RES1   0.0000
    25 C19      -1.4847   -2.5117    3.3629   C.3       1 RES1   0.0000
    26 C20      -0.4480   -1.9766    4.3964   C.3       1 RES1   0.0000
    27 C21       0.2042   -3.2937    4.9098   C.3       1 RES1   0.0000
    28 C22      -0.7687   -4.1991    5.6482   C.3       1 RES1   0.0000
    29 C23       1.4089   -3.0361    5.8109   C.3       1 RES1   0.0000
    30 N6        2.5085    0.4348   -0.1395   N.ar      1 RES1   0.0000
    31 N7        2.8115    3.1276    0.3295   N.ar      1 RES1   0.0000
    32 C24       2.0113    4.0780    0.7714   C.ar      1 RES1   0.0000
    33 C25       1.0147    5.9283    1.8476   C.3       1 RES1   0.0000
    34 C26       0.6000    6.6933    3.0972   C.3       1 RES1   0.0000
    35 C27       1.5760    6.9237    0.8342   C.3       1 RES1   0.0000
    36 H1        3.9242    4.0803    2.8422   H         1 RES1   0.0000
    37 H2        3.2175    5.4272    3.7426   H         1 RES1   0.0000
    38 H3        3.9248    5.7067    2.1579   H         1 RES1   0.0000
    39 H4        1.0708    4.2185    3.9844   H         1 RES1   0.0000
    40 H5        1.4416    2.7365    3.0804   H         1 RES1   0.0000
    41 H6       -1.0626    4.3563    3.0521   H         1 RES1   0.0000
    42 H7       -0.7997    3.0009    1.9226   H         1 RES1   0.0000
    43 H8       -0.9809    5.5214    0.8453   H         1 RES1   0.0000
    44 H9        4.5991    1.2824   -2.6200   H         1 RES1   0.0000
    45 H10       5.2445   -1.0874   -2.2710   H         1 RES1   0.0000
    46 H11       4.2696   -2.4114   -0.3831   H         1 RES1   0.0000
    47 H12       1.5894   -5.3527    2.3494   H         1 RES1   0.0000
    48 H13       0.7685   -5.9307    3.7896   H         1 RES1   0.0000
    49 H14       2.2871   -5.0641    3.9427   H         1 RES1   0.0000
    50 H15      -1.2928   -4.6631    2.9331   H         1 RES1   0.0000
    51 H16      -0.6551   -3.6288    1.6683   H         1 RES1   0.0000
    52 H17      -2.3988   -2.7880    3.8835   H         1 RES1   0.0000
    53 H18      -1.7403   -1.7503    2.6203   H         1 RES1   0.0000
    54 H19      -0.8481   -1.2821    5.1280   H         1 RES1   0.0000
    55 H20      -1.6084   -4.5268    5.0462   H         1 RES1   0.0000
    56 H21      -1.1612   -3.6826    6.5195   H         1 RES1   0.0000
    57 H22      -0.2516   -5.0844    6.0033   H         1 RES1   0.0000
    58 H23       1.0967   -2.5153    6.7123   H         1 RES1   0.0000
    59 H24       2.1803   -2.4431    5.3198   H         1 RES1   0.0000
    60 H25       1.8412   -3.9812    6.1254   H         1 RES1   0.0000
    61 H26       0.2121    6.0816    3.9065   H         1 RES1   0.0000
    62 H27      -0.1626    7.4258    2.8474   H         1 RES1   0.0000
    63 H28       1.4511    7.2491    3.4795   H         1 RES1   0.0000
    64 H29       1.7764    6.4671   -0.1368   H         1 RES1   0.0000
    65 H30       2.4908    7.3734    1.2076   H         1 RES1   0.0000
    66 H31       0.8757    7.7400    0.6834   H         1 RES1   0.0000
    67 O1       -0.6731    0.4007   -0.2840   O.3       1 RES1   0.0000
    68 H32      -1.6039    0.5626   -0.5172   H         1 RES1   0.0000
    69 H33      -0.3770   -0.1831   -1.0097   H         1 RES1   0.0000
@<TRIPOS>BOND
     1     1     8    1
     2     1     9    1
     3     1    17    1
     4     1    18    1
     5     1    21    1
     6     1    30    1
     7     1    31    1
     8     1    67    1
     9     2     3    1
    10     2    36    1
    11     2    37    1
    12     2    38    1
    13     3     4    1
    14     3    32    1
    15     3    33    1
    16     4     5    1
    17     4    39    1
    18     4    40    1
    19     5     6    1
    20     5    41    1
    21     5    42    1
    22     6     7    1
    23     6    33    1
    24     6    43    1
    25     7     8    1
    26     7    32    2
    27     8     9    2
    28     9    10    1
    29    10    11    1
    30    10    31    2
    31    11    12    1
    32    11    30    2
    33    12    13    2
    34    12    44    1
    35    13    14    1
    36    13    45    1
    37    14    15    2
    38    14    46    1
    39    15    16    1
    40    15    30    1
    41    16    17    1
    42    16    21    2
    43    17    18    2
    44    18    19    1
    45    19    20    2
    46    19    26    1
    47    20    21    1
    48    20    22    1
    49    22    23    1
    50    22    24    1
    51    22    27    1
    52    23    47    1
    53    23    48    1
    54    23    49    1
    55    24    25    1
    56    24    50    1
    57    24    51    1
    58    25    26    1
    59    25    52    1
    60    25    53    1
    61    26    27    1
    62    26    54    1
    63    27    28    1
    64    27    29    1
    65    28    55    1
    66    28    56    1
    67    28    57    1
    68    29    58    1
    69    29    59    1
    70    29    60    1
    71    31    32    1
    72    33    34    1
    73    33    35    1
    74    34    61    1
    75    34    62    1
    76    34    63    1
    77    35    64    1
    78    35    65    1
    79    35    66    1
    80    67    68    1
    81    67    69    1
@<TRIPOS>SUBSTRUCTURE
     1 RES1       69 GROUP             0 ****  ****    0  
