@<TRIPOS>MOLECULE
ICIGOT_geomtry_0_nunpairedes_0_charge_3 Charge: 3 Unpaired_Electrons: 0 XTB_Unpaired_Electrons: 0 XTB_Charge: 3
   233   236     1     0     0
SMALL
NoCharges
****
Generated from Architector

@<TRIPOS>ATOM
     1 Lu1      -0.0916   -0.3581   -0.0933   Lu        1 RES1   0.0000
     2 C1        0.7958    7.6455   -0.1078   C.3       1 RES1   0.0000
     3 C2       -0.3700    7.8634   -1.0684   C.3       1 RES1   0.0000
     4 C3        0.0528    7.7280   -2.5385   C.3       1 RES1   0.0000
     5 C4       -0.3765    6.4445   -3.2649   C.3       1 RES1   0.0000
     6 C5        0.4187    5.1392   -3.0596   C.3       1 RES1   0.0000
     7 C6        1.7529    5.1038   -3.8264   C.3       1 RES1   0.0000
     8 C7        2.7686    6.1967   -3.5160   C.3       1 RES1   0.0000
     9 C8       -0.4791    4.0226   -3.6575   C.3       1 RES1   0.0000
    10 N1       -0.1027    2.6240   -3.4587   N.am      1 RES1   0.0000
    11 C9        0.0571    1.7801   -4.6566   C.3       1 RES1   0.0000
    12 C10       1.4473    1.1966   -5.0138   C.3       1 RES1   0.0000
    13 C11       1.8005    1.5498   -6.4705   C.3       1 RES1   0.0000
    14 C12       2.0343    3.0291   -6.7537   C.3       1 RES1   0.0000
    15 C13       1.3846   -0.3345   -4.8229   C.3       1 RES1   0.0000
    16 C14       2.6323   -1.1398   -5.2030   C.3       1 RES1   0.0000
    17 C15       3.7502   -1.1203   -4.1552   C.3       1 RES1   0.0000
    18 C16       3.7265   -2.3681   -3.2785   C.3       1 RES1   0.0000
    19 C17      -0.2422    2.0247   -2.2857   C.2       1 RES1   0.0000
    20 O1        0.1212    0.8422   -2.0617   O.2       1 RES1   0.0000
    21 C18      -0.9728    2.7324   -1.1382   C.3       1 RES1   0.0000
    22 O2       -1.4524    1.7206   -0.2469   O.3       1 RES1   0.0000
    23 C19      -2.8663    1.5009   -0.2404   C.3       1 RES1   0.0000
    24 C20      -3.1193   -0.0108   -0.1309   C.2       1 RES1   0.0000
    25 O3       -2.1453   -0.7774   -0.3454   O.2       1 RES1   0.0000
    26 N2       -4.3168   -0.4763    0.1648   N.am      1 RES1   0.0000
    27 C21      -4.4961   -1.9303    0.1746   C.3       1 RES1   0.0000
    28 C22      -4.3572   -2.6122   -1.1996   C.3       1 RES1   0.0000
    29 C23      -5.2437   -1.9199   -2.2443   C.3       1 RES1   0.0000
    30 C24      -5.0709   -2.4629   -3.6594   C.3       1 RES1   0.0000
    31 C25      -4.7044   -4.1016   -1.0541   C.3       1 RES1   0.0000
    32 C26      -3.8708   -4.8473   -0.0066   C.3       1 RES1   0.0000
    33 C27      -3.8858   -6.3622   -0.2317   C.3       1 RES1   0.0000
    34 C28      -5.2529   -6.9999   -0.0226   C.3       1 RES1   0.0000
    35 C29      -5.5153    0.3460    0.2936   C.3       1 RES1   0.0000
    36 C30      -6.1779    0.5609    1.6787   C.3       1 RES1   0.0000
    37 C31      -6.8700   -0.6942    2.2461   C.3       1 RES1   0.0000
    38 C32      -6.0431   -1.6834    3.0729   C.3       1 RES1   0.0000
    39 C33      -5.3739    1.4158    2.6758   C.3       1 RES1   0.0000
    40 C34      -4.1629    0.8111    3.3936   C.3       1 RES1   0.0000
    41 C35      -3.4181    1.8826    4.1982   C.3       1 RES1   0.0000
    42 C36      -2.3954    1.3357    5.1910   C.3       1 RES1   0.0000
    43 H1        0.4829    7.8112    0.9201   H         1 RES1   0.0000
    44 H2        1.1942    6.6354   -0.1987   H         1 RES1   0.0000
    45 H3        1.5954    8.3526   -0.3183   H         1 RES1   0.0000
    46 H4       -1.1875    7.1745   -0.8395   H         1 RES1   0.0000
    47 H5       -0.7434    8.8756   -0.9145   H         1 RES1   0.0000
    48 H6       -0.3882    8.5491   -3.1058   H         1 RES1   0.0000
    49 H7        1.1247    7.8732   -2.5885   H         1 RES1   0.0000
    50 H8       -1.4162    6.2591   -2.9837   H         1 RES1   0.0000
    51 H9       -0.3606    6.6562   -4.3340   H         1 RES1   0.0000
    52 H10       0.5963    4.9706   -1.9905   H         1 RES1   0.0000
    53 H11       2.2214    4.1320   -3.6430   H         1 RES1   0.0000
    54 H12       1.5469    5.1591   -4.8965   H         1 RES1   0.0000
    55 H13       2.9795    6.2541   -2.4507   H         1 RES1   0.0000
    56 H14       3.6946    5.9803   -4.0458   H         1 RES1   0.0000
    57 H15       2.4209    7.1624   -3.8625   H         1 RES1   0.0000
    58 H16      -1.5063    4.1750   -3.3178   H         1 RES1   0.0000
    59 H17      -0.4899    4.2001   -4.7314   H         1 RES1   0.0000
    60 H18      -0.6471    0.9481   -4.5400   H         1 RES1   0.0000
    61 H19      -0.2843    2.3796   -5.4986   H         1 RES1   0.0000
    62 H20       2.2050    1.6254   -4.3535   H         1 RES1   0.0000
    63 H21       2.7228    1.0372   -6.7408   H         1 RES1   0.0000
    64 H22       1.0078    1.1726   -7.1229   H         1 RES1   0.0000
    65 H23       2.8455    3.4246   -6.1487   H         1 RES1   0.0000
    66 H24       2.3118    3.1493   -7.7968   H         1 RES1   0.0000
    67 H25       1.1472    3.6318   -6.5879   H         1 RES1   0.0000
    68 H26       1.1356   -0.5314   -3.7744   H         1 RES1   0.0000
    69 H27       0.5635   -0.6966   -5.4476   H         1 RES1   0.0000
    70 H28       2.3270   -2.1749   -5.3639   H         1 RES1   0.0000
    71 H29       3.0144   -0.7945   -6.1602   H         1 RES1   0.0000
    72 H30       4.7171   -1.0802   -4.6519   H         1 RES1   0.0000
    73 H31       3.6579   -0.2205   -3.5411   H         1 RES1   0.0000
    74 H32       3.8309   -3.2540   -3.9019   H         1 RES1   0.0000
    75 H33       4.5549   -2.3704   -2.5713   H         1 RES1   0.0000
    76 H34       2.7865   -2.4410   -2.7283   H         1 RES1   0.0000
    77 H35      -0.2965    3.3814   -0.5722   H         1 RES1   0.0000
    78 H36      -1.7948    3.3469   -1.5152   H         1 RES1   0.0000
    79 H37      -3.2984    2.0295    0.6176   H         1 RES1   0.0000
    80 H38      -3.3275    1.8749   -1.1637   H         1 RES1   0.0000
    81 H39      -3.7439   -2.3568    0.8405   H         1 RES1   0.0000
    82 H40      -5.4846   -2.1438    0.5684   H         1 RES1   0.0000
    83 H41      -3.3125   -2.5345   -1.5246   H         1 RES1   0.0000
    84 H42      -6.2915   -2.0202   -1.9532   H         1 RES1   0.0000
    85 H43      -4.9930   -0.8541   -2.2587   H         1 RES1   0.0000
    86 H44      -5.4499   -3.4758   -3.7469   H         1 RES1   0.0000
    87 H45      -5.6275   -1.8413   -4.3544   H         1 RES1   0.0000
    88 H46      -4.0235   -2.4547   -3.9567   H         1 RES1   0.0000
    89 H47      -5.7642   -4.2033   -0.8198   H         1 RES1   0.0000
    90 H48      -4.5284   -4.5823   -2.0167   H         1 RES1   0.0000
    91 H49      -2.8336   -4.4989   -0.0564   H         1 RES1   0.0000
    92 H50      -4.2455   -4.6441    0.9983   H         1 RES1   0.0000
    93 H51      -3.5493   -6.5737   -1.2482   H         1 RES1   0.0000
    94 H52      -3.1793   -6.8261    0.4593   H         1 RES1   0.0000
    95 H53      -5.9736   -6.6349   -0.7477   H         1 RES1   0.0000
    96 H54      -5.1804   -8.0774   -0.1389   H         1 RES1   0.0000
    97 H55      -5.6287   -6.7952    0.9766   H         1 RES1   0.0000
    98 H56      -5.3058    1.3301   -0.1220   H         1 RES1   0.0000
    99 H57      -6.2748   -0.1226   -0.3372   H         1 RES1   0.0000
   100 H58      -7.0142    1.2137    1.3973   H         1 RES1   0.0000
   101 H59      -7.7007   -0.3623    2.8716   H         1 RES1   0.0000
   102 H60      -7.3250   -1.2169    1.3996   H         1 RES1   0.0000
   103 H61      -6.0342   -1.3874    4.1183   H         1 RES1   0.0000
   104 H62      -6.5038   -2.6685    3.0258   H         1 RES1   0.0000
   105 H63      -5.0167   -1.7638    2.7262   H         1 RES1   0.0000
   106 H64      -5.0505    2.3151    2.1425   H         1 RES1   0.0000
   107 H65      -6.0751    1.7532    3.4402   H         1 RES1   0.0000
   108 H66      -4.4917    0.0457    4.0900   H         1 RES1   0.0000
   109 H67      -3.4947    0.3501    2.6608   H         1 RES1   0.0000
   110 H68      -2.9242    2.5731    3.5124   H         1 RES1   0.0000
   111 H69      -4.1492    2.4548    4.7691   H         1 RES1   0.0000
   112 H70      -1.6209    0.7349    4.7161   H         1 RES1   0.0000
   113 H71      -1.9050    2.1583    5.7059   H         1 RES1   0.0000
   114 H72      -2.8807    0.7187    5.9411   H         1 RES1   0.0000
   115 C37       7.7754   -0.7724   -4.5224   C.3       1 RES1   0.0000
   116 C38       7.4452   -0.4447   -3.0719   C.3       1 RES1   0.0000
   117 C39       6.9401    0.9915   -2.9420   C.3       1 RES1   0.0000
   118 C40       6.6544    1.4018   -1.4845   C.3       1 RES1   0.0000
   119 C41       5.2170    1.8786   -1.2033   C.3       1 RES1   0.0000
   120 C42       4.9859    3.3372   -1.6272   C.3       1 RES1   0.0000
   121 C43       5.2734    3.6308   -3.0962   C.3       1 RES1   0.0000
   122 C44       4.9606    1.7285    0.3146   C.3       1 RES1   0.0000
   123 N3        3.5658    1.7078    0.7543   N.am      1 RES1   0.0000
   124 C45       3.1608    2.6277    1.8346   C.3       1 RES1   0.0000
   125 C46       1.9957    3.6197    1.5935   C.3       1 RES1   0.0000
   126 C47       2.4107    4.9646    2.2174   C.3       1 RES1   0.0000
   127 C48       3.5560    5.7192    1.5498   C.3       1 RES1   0.0000
   128 C49       0.6456    3.1397    2.1945   C.3       1 RES1   0.0000
   129 C50      -0.2981    4.2180    2.7628   C.3       1 RES1   0.0000
   130 C51      -0.9340    5.1631    1.7289   C.3       1 RES1   0.0000
   131 C52      -2.4210    4.9047    1.4797   C.3       1 RES1   0.0000
   132 C53       2.7311    0.7435    0.4184   C.2       1 RES1   0.0000
   133 O4        1.5289    0.7638    0.7916   O.2       1 RES1   0.0000
   134 C54       3.1734   -0.4980   -0.3676   C.3       1 RES1   0.0000
   135 O5        2.1893   -1.5157   -0.1966   O.3       1 RES1   0.0000
   136 C55       2.4382   -2.4642    0.8433   C.3       1 RES1   0.0000
   137 C56       1.1593   -2.6412    1.6741   C.2       1 RES1   0.0000
   138 O6        0.1946   -1.8748    1.4239   O.2       1 RES1   0.0000
   139 N4        1.1045   -3.5363    2.6410   N.am      1 RES1   0.0000
   140 C57      -0.0144   -3.4768    3.5809   C.3       1 RES1   0.0000
   141 C58       0.0976   -2.3216    4.5972   C.3       1 RES1   0.0000
   142 C59       1.4845   -2.2759    5.2587   C.3       1 RES1   0.0000
   143 C60       1.6768   -1.0797    6.1882   C.3       1 RES1   0.0000
   144 C61      -1.0060   -2.4770    5.6524   C.3       1 RES1   0.0000
   145 C62      -2.4341   -2.4806    5.1053   C.3       1 RES1   0.0000
   146 C63      -3.4654   -2.2568    6.2154   C.3       1 RES1   0.0000
   147 C64      -3.5690   -3.4232    7.1886   C.3       1 RES1   0.0000
   148 C65       2.0747   -4.6030    2.8230   C.3       1 RES1   0.0000
   149 C66       1.7239   -5.9854    2.2144   C.3       1 RES1   0.0000
   150 C67       0.6257   -6.7686    2.9671   C.3       1 RES1   0.0000
   151 C68      -0.8488   -6.5785    2.6035   C.3       1 RES1   0.0000
   152 C69       1.6307   -6.0227    0.6769   C.3       1 RES1   0.0000
   153 C70       0.4451   -5.3618   -0.0331   C.3       1 RES1   0.0000
   154 C71       0.6223   -5.3711   -1.5539   C.3       1 RES1   0.0000
   155 C72      -0.6979   -5.0700   -2.2613   C.3       1 RES1   0.0000
   156 H73       8.0593   -1.8155   -4.6283   H         1 RES1   0.0000
   157 H74       6.9219   -0.5772   -5.1695   H         1 RES1   0.0000
   158 H75       8.6038   -0.1611   -4.8675   H         1 RES1   0.0000
   159 H76       6.6878   -1.1372   -2.6960   H         1 RES1   0.0000
   160 H77       8.3397   -0.5740   -2.4635   H         1 RES1   0.0000
   161 H78       7.7014    1.6468   -3.3654   H         1 RES1   0.0000
   162 H79       6.0397    1.0884   -3.5505   H         1 RES1   0.0000
   163 H80       6.8667    0.5395   -0.8492   H         1 RES1   0.0000
   164 H81       7.3403    2.1899   -1.1764   H         1 RES1   0.0000
   165 H82       4.5222    1.2422   -1.7576   H         1 RES1   0.0000
   166 H83       3.9453    3.6056   -1.4114   H         1 RES1   0.0000
   167 H84       5.6296    3.9858   -1.0305   H         1 RES1   0.0000
   168 H85       4.6552    3.0268   -3.7574   H         1 RES1   0.0000
   169 H86       5.0720    4.6777   -3.2979   H         1 RES1   0.0000
   170 H87       6.3127    3.4431   -3.3405   H         1 RES1   0.0000
   171 H88       5.4608    0.8224    0.6743   H         1 RES1   0.0000
   172 H89       5.4459    2.5691    0.8105   H         1 RES1   0.0000
   173 H90       2.9428    2.0079    2.7121   H         1 RES1   0.0000
   174 H91       4.0478    3.2167    2.0589   H         1 RES1   0.0000
   175 H92       1.8642    3.7394    0.5148   H         1 RES1   0.0000
   176 H93       1.5573    5.6316    2.1721   H         1 RES1   0.0000
   177 H94       2.6573    4.7906    3.2672   H         1 RES1   0.0000
   178 H95       3.3431    5.9301    0.5044   H         1 RES1   0.0000
   179 H96       3.6602    6.6710    2.0668   H         1 RES1   0.0000
   180 H97       4.5148    5.2109    1.6126   H         1 RES1   0.0000
   181 H98       0.0920    2.5770    1.4329   H         1 RES1   0.0000
   182 H99       0.8727    2.4722    3.0287   H         1 RES1   0.0000
   183 H100     -1.1106    3.7040    3.2831   H         1 RES1   0.0000
   184 H101      0.2252    4.7944    3.5257   H         1 RES1   0.0000
   185 H102     -0.8517    6.1934    2.0823   H         1 RES1   0.0000
   186 H103     -0.3858    5.1230    0.7907   H         1 RES1   0.0000
   187 H104     -2.9123    4.6984    2.4290   H         1 RES1   0.0000
   188 H105     -2.8865    5.7953    1.0629   H         1 RES1   0.0000
   189 H106     -2.5984    4.0715    0.8024   H         1 RES1   0.0000
   190 H107      3.1961   -0.2866   -1.4424   H         1 RES1   0.0000
   191 H108      4.1657   -0.8444   -0.0670   H         1 RES1   0.0000
   192 H109      2.7506   -3.4066    0.3844   H         1 RES1   0.0000
   193 H110      3.2233   -2.1092    1.5153   H         1 RES1   0.0000
   194 H111     -0.9365   -3.3450    3.0114   H         1 RES1   0.0000
   195 H112     -0.0547   -4.4198    4.1189   H         1 RES1   0.0000
   196 H113     -0.0475   -1.3748    4.0592   H         1 RES1   0.0000
   197 H114      1.6464   -3.1930    5.8276   H         1 RES1   0.0000
   198 H115      2.2447   -2.2268    4.4728   H         1 RES1   0.0000
   199 H116      1.0826   -1.1780    7.0905   H         1 RES1   0.0000
   200 H117      2.7188   -1.0144    6.4861   H         1 RES1   0.0000
   201 H118      1.4058   -0.1486    5.6935   H         1 RES1   0.0000
   202 H119     -0.8298   -3.3971    6.2086   H         1 RES1   0.0000
   203 H120     -0.9244   -1.6487    6.3554   H         1 RES1   0.0000
   204 H121     -2.5423   -1.6821    4.3630   H         1 RES1   0.0000
   205 H122     -2.6570   -3.4280    4.6123   H         1 RES1   0.0000
   206 H123     -3.2080   -1.3544    6.7725   H         1 RES1   0.0000
   207 H124     -4.4444   -2.1002    5.7603   H         1 RES1   0.0000
   208 H125     -2.6309   -3.5850    7.7112   H         1 RES1   0.0000
   209 H126     -4.3346   -3.2208    7.9326   H         1 RES1   0.0000
   210 H127     -3.8416   -4.3373    6.6667   H         1 RES1   0.0000
   211 H128      3.0289   -4.2867    2.4028   H         1 RES1   0.0000
   212 H129      2.2194   -4.7392    3.8971   H         1 RES1   0.0000
   213 H130      2.6400   -6.5480    2.4385   H         1 RES1   0.0000
   214 H131      0.8424   -7.8294    2.8256   H         1 RES1   0.0000
   215 H132      0.7605   -6.5736    4.0346   H         1 RES1   0.0000
   216 H133     -1.0992   -7.1537    1.7171   H         1 RES1   0.0000
   217 H134     -1.4610   -6.9667    3.4148   H         1 RES1   0.0000
   218 H135     -1.1252   -5.5425    2.4365   H         1 RES1   0.0000
   219 H136      2.5629   -5.6078    0.2808   H         1 RES1   0.0000
   220 H137      1.6249   -7.0774    0.3940   H         1 RES1   0.0000
   221 H138     -0.4617   -5.9154    0.1883   H         1 RES1   0.0000
   222 H139      0.2902   -4.3310    0.2939   H         1 RES1   0.0000
   223 H140      1.3994   -4.6553   -1.8479   H         1 RES1   0.0000
   224 H141      0.9676   -6.3530   -1.8748   H         1 RES1   0.0000
   225 H142     -1.1832   -4.1906   -1.8384   H         1 RES1   0.0000
   226 H143     -0.5515   -4.9279   -3.3293   H         1 RES1   0.0000
   227 H144     -1.3804   -5.9056   -2.1346   H         1 RES1   0.0000
   228 O7       -1.0354    0.3727    2.1337   O.3       1 RES1   0.0000
   229 H145     -0.4701    0.9505    2.6687   H         1 RES1   0.0000
   230 H146     -1.5238   -0.1771    2.7733   H         1 RES1   0.0000
   231 O8        0.0497   -2.0227   -1.8537   O.3       1 RES1   0.0000
   232 H147      0.6297   -2.7808   -2.0496   H         1 RES1   0.0000
   233 H148     -0.6490   -2.0763   -2.5254   H         1 RES1   0.0000
@<TRIPOS>BOND
     1     1    20    1
     2     1    22    1
     3     1    25    1
     4     1   133    1
     5     1   135    1
     6     1   138    1
     7     1   228    1
     8     1   231    1
     9     2     3    1
    10     2    43    1
    11     2    44    1
    12     2    45    1
    13     3     4    1
    14     3    46    1
    15     3    47    1
    16     4     5    1
    17     4    48    1
    18     4    49    1
    19     5     6    1
    20     5    50    1
    21     5    51    1
    22     6     7    1
    23     6     9    1
    24     6    52    1
    25     7     8    1
    26     7    53    1
    27     7    54    1
    28     8    55    1
    29     8    56    1
    30     8    57    1
    31     9    10    1
    32     9    58    1
    33     9    59    1
    34    10    11    1
    35    10    19    1
    36    11    12    1
    37    11    60    1
    38    11    61    1
    39    12    13    1
    40    12    15    1
    41    12    62    1
    42    13    14    1
    43    13    63    1
    44    13    64    1
    45    14    65    1
    46    14    66    1
    47    14    67    1
    48    15    16    1
    49    15    68    1
    50    15    69    1
    51    16    17    1
    52    16    70    1
    53    16    71    1
    54    17    18    1
    55    17    72    1
    56    17    73    1
    57    18    74    1
    58    18    75    1
    59    18    76    1
    60    19    20    2
    61    19    21    1
    62    21    22    1
    63    21    77    1
    64    21    78    1
    65    22    23    1
    66    23    24    1
    67    23    79    1
    68    23    80    1
    69    24    25    2
    70    24    26    1
    71    26    27    1
    72    26    35    1
    73    27    28    1
    74    27    81    1
    75    27    82    1
    76    28    29    1
    77    28    31    1
    78    28    83    1
    79    29    30    1
    80    29    84    1
    81    29    85    1
    82    30    86    1
    83    30    87    1
    84    30    88    1
    85    31    32    1
    86    31    89    1
    87    31    90    1
    88    32    33    1
    89    32    91    1
    90    32    92    1
    91    33    34    1
    92    33    93    1
    93    33    94    1
    94    34    95    1
    95    34    96    1
    96    34    97    1
    97    35    36    1
    98    35    98    1
    99    35    99    1
   100    36    37    1
   101    36    39    1
   102    36   100    1
   103    37    38    1
   104    37   101    1
   105    37   102    1
   106    38   103    1
   107    38   104    1
   108    38   105    1
   109    39    40    1
   110    39   106    1
   111    39   107    1
   112    40    41    1
   113    40   108    1
   114    40   109    1
   115    41    42    1
   116    41   110    1
   117    41   111    1
   118    42   112    1
   119    42   113    1
   120    42   114    1
   121   115   116    1
   122   115   156    1
   123   115   157    1
   124   115   158    1
   125   116   117    1
   126   116   159    1
   127   116   160    1
   128   117   118    1
   129   117   161    1
   130   117   162    1
   131   118   119    1
   132   118   163    1
   133   118   164    1
   134   119   120    1
   135   119   122    1
   136   119   165    1
   137   120   121    1
   138   120   166    1
   139   120   167    1
   140   121   168    1
   141   121   169    1
   142   121   170    1
   143   122   123    1
   144   122   171    1
   145   122   172    1
   146   123   124    1
   147   123   132    1
   148   124   125    1
   149   124   173    1
   150   124   174    1
   151   125   126    1
   152   125   128    1
   153   125   175    1
   154   126   127    1
   155   126   176    1
   156   126   177    1
   157   127   178    1
   158   127   179    1
   159   127   180    1
   160   128   129    1
   161   128   181    1
   162   128   182    1
   163   129   130    1
   164   129   183    1
   165   129   184    1
   166   130   131    1
   167   130   185    1
   168   130   186    1
   169   131   187    1
   170   131   188    1
   171   131   189    1
   172   132   133    2
   173   132   134    1
   174   134   135    1
   175   134   190    1
   176   134   191    1
   177   135   136    1
   178   136   137    1
   179   136   192    1
   180   136   193    1
   181   137   138    2
   182   137   139    1
   183   139   140    1
   184   139   148    1
   185   140   141    1
   186   140   194    1
   187   140   195    1
   188   141   142    1
   189   141   144    1
   190   141   196    1
   191   142   143    1
   192   142   197    1
   193   142   198    1
   194   143   199    1
   195   143   200    1
   196   143   201    1
   197   144   145    1
   198   144   202    1
   199   144   203    1
   200   145   146    1
   201   145   204    1
   202   145   205    1
   203   146   147    1
   204   146   206    1
   205   146   207    1
   206   147   208    1
   207   147   209    1
   208   147   210    1
   209   148   149    1
   210   148   211    1
   211   148   212    1
   212   149   150    1
   213   149   152    1
   214   149   213    1
   215   150   151    1
   216   150   214    1
   217   150   215    1
   218   151   216    1
   219   151   217    1
   220   151   218    1
   221   152   153    1
   222   152   219    1
   223   152   220    1
   224   153   154    1
   225   153   221    1
   226   153   222    1
   227   154   155    1
   228   154   223    1
   229   154   224    1
   230   155   225    1
   231   155   226    1
   232   155   227    1
   233   228   229    1
   234   228   230    1
   235   231   232    1
   236   231   233    1
@<TRIPOS>SUBSTRUCTURE
     1 RES1      233 GROUP             0 ****  ****    0  
