@<TRIPOS>MOLECULE
ICIGOT_geomtry_0_nunpairedes_0_charge_2 Charge: 2 Unpaired_Electrons: 0 XTB_Unpaired_Electrons: 0 XTB_Charge: 2
   183   187     1     0     0
SMALL
NoCharges
****
Generated from Architector

@<TRIPOS>ATOM
     1 Lu1       0.1310   -0.0108   -0.0377   Lu        1 RES1   0.0000
     2 C1        6.4154   -0.6178    2.2857   C.3       1 RES1   0.0000
     3 C2        6.0046    0.3346    1.1673   C.3       1 RES1   0.0000
     4 C3        6.2747    1.8010    1.5190   C.3       1 RES1   0.0000
     5 C4        5.0992    2.5241    2.1659   C.3       1 RES1   0.0000
     6 C5        3.9003    2.7220    1.2310   C.3       1 RES1   0.0000
     7 C6        2.8691    3.5614    1.9883   C.3       1 RES1   0.0000
     8 N1        1.6121    3.9151    1.3264   N.am      1 RES1   0.0000
     9 C7        1.2988    5.3308    1.2722   C.3       1 RES1   0.0000
    10 C8        2.2381    6.0469    0.2995   C.3       1 RES1   0.0000
    11 C9        2.2256    5.4045   -1.0836   C.3       1 RES1   0.0000
    12 C10       3.2193    6.1157   -1.9953   C.3       1 RES1   0.0000
    13 C11       3.2740    5.5508   -3.4118   C.3       1 RES1   0.0000
    14 C12       3.8600    4.1436   -3.4707   C.3       1 RES1   0.0000
    15 C13       0.8220    2.9630    0.8719   C.2       1 RES1   0.0000
    16 O1        1.1959    1.7767    0.7624   O.2       1 RES1   0.0000
    17 C14      -0.6697    3.2402    0.6029   C.3       1 RES1   0.0000
    18 O2       -1.2567    1.9466    0.5142   O.3       1 RES1   0.0000
    19 C15      -2.5653    1.7720    1.0265   C.3       1 RES1   0.0000
    20 C16      -2.6021    0.3228    1.5321   C.2       1 RES1   0.0000
    21 O3       -1.5200   -0.3045    1.5349   O.2       1 RES1   0.0000
    22 N2       -3.7316   -0.1874    1.9896   N.am      1 RES1   0.0000
    23 C17      -3.6978   -1.5301    2.5605   C.3       1 RES1   0.0000
    24 C18      -2.9338   -1.5491    3.8894   C.3       1 RES1   0.0000
    25 C19      -3.0978   -2.8744    4.6476   C.3       1 RES1   0.0000
    26 C20      -4.1157   -2.7917    5.7850   C.3       1 RES1   0.0000
    27 C21      -5.5727   -2.6337    5.3528   C.3       1 RES1   0.0000
    28 C22      -6.0943   -3.8264    4.5608   C.3       1 RES1   0.0000
    29 C23      -5.0270    0.4553    1.8412   C.3       1 RES1   0.0000
    30 C24      -5.6518    0.1922    0.4617   C.3       1 RES1   0.0000
    31 C25      -6.8957    1.0598    0.2140   C.3       1 RES1   0.0000
    32 C26      -6.6105    2.4315   -0.4055   C.3       1 RES1   0.0000
    33 C27      -5.9940    3.4570    0.5467   C.3       1 RES1   0.0000
    34 C28      -5.9124    4.8466   -0.0769   C.3       1 RES1   0.0000
    35 H1        6.1211   -1.6356    2.0422   H         1 RES1   0.0000
    36 H2        7.4938   -0.6071    2.4101   H         1 RES1   0.0000
    37 H3        5.9698   -0.3410    3.2390   H         1 RES1   0.0000
    38 H4        6.5757    0.0773    0.2744   H         1 RES1   0.0000
    39 H5        4.9480    0.1873    0.9208   H         1 RES1   0.0000
    40 H6        7.1223    1.8509    2.2045   H         1 RES1   0.0000
    41 H7        6.5512    2.3473    0.6207   H         1 RES1   0.0000
    42 H8        4.7869    1.9698    3.0515   H         1 RES1   0.0000
    43 H9        5.4391    3.5058    2.5048   H         1 RES1   0.0000
    44 H10       4.2277    3.2212    0.3193   H         1 RES1   0.0000
    45 H11       3.4742    1.7577    0.9510   H         1 RES1   0.0000
    46 H12       2.5944    3.0038    2.8871   H         1 RES1   0.0000
    47 H13       3.3345    4.4976    2.2951   H         1 RES1   0.0000
    48 H14       0.2670    5.4702    0.9569   H         1 RES1   0.0000
    49 H15       1.4182    5.7603    2.2682   H         1 RES1   0.0000
    50 H16       1.9312    7.0915    0.2287   H         1 RES1   0.0000
    51 H17       3.2600    6.0362    0.6840   H         1 RES1   0.0000
    52 H18       2.4894    4.3491   -0.9981   H         1 RES1   0.0000
    53 H19       1.2211    5.4650   -1.5068   H         1 RES1   0.0000
    54 H20       2.9481    7.1703   -2.0474   H         1 RES1   0.0000
    55 H21       4.2136    6.0534   -1.5497   H         1 RES1   0.0000
    56 H22       2.2712    5.5489   -3.8455   H         1 RES1   0.0000
    57 H23       3.8970    6.2165   -4.0129   H         1 RES1   0.0000
    58 H24       3.2072    3.4179   -2.9874   H         1 RES1   0.0000
    59 H25       3.9929    3.8402   -4.5063   H         1 RES1   0.0000
    60 H26       4.8332    4.1194   -2.9829   H         1 RES1   0.0000
    61 H27      -1.0955    3.7959    1.4467   H         1 RES1   0.0000
    62 H28      -0.8212    3.7817   -0.3390   H         1 RES1   0.0000
    63 H29      -2.7597    2.4490    1.8697   H         1 RES1   0.0000
    64 H30      -3.3052    1.9362    0.2340   H         1 RES1   0.0000
    65 H31      -4.7233   -1.8607    2.7117   H         1 RES1   0.0000
    66 H32      -3.2141   -2.2019    1.8470   H         1 RES1   0.0000
    67 H33      -1.8790   -1.3579    3.6786   H         1 RES1   0.0000
    68 H34      -3.2899   -0.7333    4.5201   H         1 RES1   0.0000
    69 H35      -3.3795   -3.6705    3.9586   H         1 RES1   0.0000
    70 H36      -2.1397   -3.1509    5.0899   H         1 RES1   0.0000
    71 H37      -4.0344   -3.6991    6.3841   H         1 RES1   0.0000
    72 H38      -3.8488   -1.9499    6.4266   H         1 RES1   0.0000
    73 H39      -6.1733   -2.5263    6.2578   H         1 RES1   0.0000
    74 H40      -5.7029   -1.7134    4.7781   H         1 RES1   0.0000
    75 H41      -5.9798   -4.7369    5.1415   H         1 RES1   0.0000
    76 H42      -7.1483   -3.7013    4.3287   H         1 RES1   0.0000
    77 H43      -5.5594   -3.9575    3.6234   H         1 RES1   0.0000
    78 H44      -5.6954    0.0586    2.6050   H         1 RES1   0.0000
    79 H45      -4.9420    1.5252    2.0152   H         1 RES1   0.0000
    80 H46      -4.9188    0.3651   -0.3297   H         1 RES1   0.0000
    81 H47      -5.9336   -0.8612    0.3987   H         1 RES1   0.0000
    82 H48      -7.5456    0.5198   -0.4757   H         1 RES1   0.0000
    83 H49      -7.4500    1.1832    1.1468   H         1 RES1   0.0000
    84 H50      -5.9621    2.3063   -1.2752   H         1 RES1   0.0000
    85 H51      -7.5538    2.8421   -0.7668   H         1 RES1   0.0000
    86 H52      -6.5909    3.5078    1.4613   H         1 RES1   0.0000
    87 H53      -4.9800    3.1543    0.8195   H         1 RES1   0.0000
    88 H54      -6.9068    5.2228   -0.2944   H         1 RES1   0.0000
    89 H55      -5.4250    5.5424    0.6036   H         1 RES1   0.0000
    90 H56      -5.3446    4.8161   -1.0039   H         1 RES1   0.0000
    91 C29      -0.4351   -1.8228    7.3189   C.3       1 RES1   0.0000
    92 C30      -0.0263   -3.2744    7.5471   C.3       1 RES1   0.0000
    93 C31       1.4799   -3.5065    7.4419   C.3       1 RES1   0.0000
    94 C32       2.0992   -3.0666    6.1154   C.3       1 RES1   0.0000
    95 C33       1.5081   -3.7761    4.8963   C.3       1 RES1   0.0000
    96 C34       2.2949   -3.5217    3.6070   C.3       1 RES1   0.0000
    97 N3        2.1357   -2.1978    3.0236   N.am      1 RES1   0.0000
    98 C35       3.0615   -1.1474    3.4683   C.3       1 RES1   0.0000
    99 C36       2.4767    0.2389    3.7689   C.3       1 RES1   0.0000
   100 C37       1.7598    0.4011    5.1062   C.3       1 RES1   0.0000
   101 C38       1.5193    1.8697    5.4637   C.3       1 RES1   0.0000
   102 C39       0.3869    2.5164    4.6654   C.3       1 RES1   0.0000
   103 C40       0.3450    4.0255    4.8854   C.3       1 RES1   0.0000
   104 C41       1.4270   -1.9685    1.9340   C.2       1 RES1   0.0000
   105 O4        1.5181   -0.8937    1.3051   O.2       1 RES1   0.0000
   106 C42       0.4212   -2.9893    1.3854   C.3       1 RES1   0.0000
   107 O5       -0.0530   -2.5218    0.1288   O.3       1 RES1   0.0000
   108 C43       0.4089   -3.2307   -1.0231   C.3       1 RES1   0.0000
   109 C44       0.8829   -2.2133   -2.0710   C.2       1 RES1   0.0000
   110 O6        1.1197   -1.0610   -1.6522   O.2       1 RES1   0.0000
   111 N4        1.0194   -2.5596   -3.3391   N.am      1 RES1   0.0000
   112 C45       0.9904   -3.9281   -3.8196   C.3       1 RES1   0.0000
   113 C46      -0.1495   -4.2721   -4.7852   C.3       1 RES1   0.0000
   114 C47      -1.5658   -4.1348   -4.2189   C.3       1 RES1   0.0000
   115 C48      -2.1511   -2.7274   -4.3348   C.3       1 RES1   0.0000
   116 C49      -3.6398   -2.6938   -3.9896   C.3       1 RES1   0.0000
   117 C50      -4.2764   -1.3622   -4.3773   C.3       1 RES1   0.0000
   118 C51       1.2305   -1.5170   -4.3419   C.3       1 RES1   0.0000
   119 C52       2.5452   -1.5709   -5.1239   C.3       1 RES1   0.0000
   120 C53       3.7223   -0.9251   -4.3975   C.3       1 RES1   0.0000
   121 C54       4.1846   -1.7135   -3.1772   C.3       1 RES1   0.0000
   122 C55       5.5201   -1.2024   -2.6445   C.3       1 RES1   0.0000
   123 C56       6.0368   -2.0798   -1.5113   C.3       1 RES1   0.0000
   124 H57      -1.4762   -1.6767    7.5949   H         1 RES1   0.0000
   125 H58       0.1752   -1.1551    7.9225   H         1 RES1   0.0000
   126 H59      -0.3272   -1.5432    6.2732   H         1 RES1   0.0000
   127 H60      -0.3385   -3.5727    8.5487   H         1 RES1   0.0000
   128 H61      -0.5512   -3.9189    6.8375   H         1 RES1   0.0000
   129 H62       1.9760   -2.9565    8.2434   H         1 RES1   0.0000
   130 H63       1.6814   -4.5653    7.6061   H         1 RES1   0.0000
   131 H64       1.9665   -1.9952    6.0076   H         1 RES1   0.0000
   132 H65       3.1698   -3.2759    6.1696   H         1 RES1   0.0000
   133 H66       1.5367   -4.8518    5.0811   H         1 RES1   0.0000
   134 H67       0.4672   -3.4806    4.7521   H         1 RES1   0.0000
   135 H68       3.3579   -3.6448    3.8141   H         1 RES1   0.0000
   136 H69       2.0115   -4.2733    2.8693   H         1 RES1   0.0000
   137 H70       3.5556   -1.5217    4.3618   H         1 RES1   0.0000
   138 H71       3.8050   -1.0065    2.6768   H         1 RES1   0.0000
   139 H72       3.3451    0.8994    3.7976   H         1 RES1   0.0000
   140 H73       1.8339    0.5656    2.9503   H         1 RES1   0.0000
   141 H74       0.8060   -0.1252    5.0927   H         1 RES1   0.0000
   142 H75       2.3885   -0.0189    5.8917   H         1 RES1   0.0000
   143 H76       1.2848    1.9433    6.5270   H         1 RES1   0.0000
   144 H77       2.4433    2.4291    5.3034   H         1 RES1   0.0000
   145 H78       0.5134    2.2999    3.5993   H         1 RES1   0.0000
   146 H79      -0.5647    2.0746    4.9727   H         1 RES1   0.0000
   147 H80       1.2973    4.4805    4.6234   H         1 RES1   0.0000
   148 H81      -0.4361    4.4927    4.2892   H         1 RES1   0.0000
   149 H82       0.1513    4.2460    5.9308   H         1 RES1   0.0000
   150 H83       0.8402   -3.9945    1.2950   H         1 RES1   0.0000
   151 H84      -0.4358   -3.0197    2.0672   H         1 RES1   0.0000
   152 H85       1.2456   -3.8914   -0.7726   H         1 RES1   0.0000
   153 H86      -0.4317   -3.8102   -1.4173   H         1 RES1   0.0000
   154 H87       1.9248   -4.0963   -4.3609   H         1 RES1   0.0000
   155 H88       0.9769   -4.6057   -2.9676   H         1 RES1   0.0000
   156 H89      -0.0624   -3.6772   -5.6958   H         1 RES1   0.0000
   157 H90       0.0138   -5.3127   -5.0754   H         1 RES1   0.0000
   158 H91      -2.2166   -4.8064   -4.7821   H         1 RES1   0.0000
   159 H92      -1.5832   -4.4763   -3.1811   H         1 RES1   0.0000
   160 H93      -1.6236   -2.0232   -3.6878   H         1 RES1   0.0000
   161 H94      -2.0417   -2.3863   -5.3658   H         1 RES1   0.0000
   162 H95      -4.1469   -3.4979   -4.5274   H         1 RES1   0.0000
   163 H96      -3.7761   -2.8711   -2.9192   H         1 RES1   0.0000
   164 H97      -4.2202   -1.2197   -5.4551   H         1 RES1   0.0000
   165 H98      -5.3259   -1.3462   -4.0889   H         1 RES1   0.0000
   166 H99      -3.7666   -0.5298   -3.8942   H         1 RES1   0.0000
   167 H100      0.3994   -1.5855   -5.0474   H         1 RES1   0.0000
   168 H101      1.1647   -0.5603   -3.8207   H         1 RES1   0.0000
   169 H102      2.8066   -2.5939   -5.3981   H         1 RES1   0.0000
   170 H103      2.3747   -1.0318   -6.0578   H         1 RES1   0.0000
   171 H104      4.5554   -0.8441   -5.0977   H         1 RES1   0.0000
   172 H105      3.4492    0.0876   -4.0985   H         1 RES1   0.0000
   173 H106      3.4401   -1.6461   -2.3818   H         1 RES1   0.0000
   174 H107      4.2981   -2.7652   -3.4503   H         1 RES1   0.0000
   175 H108      6.2501   -1.1992   -3.4546   H         1 RES1   0.0000
   176 H109      5.4026   -0.1730   -2.2989   H         1 RES1   0.0000
   177 H110      6.1658   -3.1038   -1.8551   H         1 RES1   0.0000
   178 H111      7.0002   -1.7261   -1.1518   H         1 RES1   0.0000
   179 H112      5.3334   -2.0817   -0.6798   H         1 RES1   0.0000
   180 N5       -1.2279    0.6348   -1.8908   N.3       1 RES1   0.0000
   181 O7       -2.0111    1.0612   -2.6758   O.2       1 RES1   0.0000
   182 O8       -1.4777   -0.3908   -1.2274   O.co2     1 RES1   0.0000
   183 O9       -0.1345    1.1835   -1.6956   O.co2     1 RES1   0.0000
@<TRIPOS>BOND
     1     1    16    1
     2     1    18    1
     3     1    21    1
     4     1   105    1
     5     1   107    1
     6     1   110    1
     7     1   182    1
     8     1   183    1
     9     2     3    1
    10     2    35    1
    11     2    36    1
    12     2    37    1
    13     3     4    1
    14     3    38    1
    15     3    39    1
    16     4     5    1
    17     4    40    1
    18     4    41    1
    19     5     6    1
    20     5    42    1
    21     5    43    1
    22     6     7    1
    23     6    44    1
    24     6    45    1
    25     7     8    1
    26     7    46    1
    27     7    47    1
    28     8     9    1
    29     8    15    1
    30     9    10    1
    31     9    48    1
    32     9    49    1
    33    10    11    1
    34    10    50    1
    35    10    51    1
    36    11    12    1
    37    11    52    1
    38    11    53    1
    39    12    13    1
    40    12    54    1
    41    12    55    1
    42    13    14    1
    43    13    56    1
    44    13    57    1
    45    14    58    1
    46    14    59    1
    47    14    60    1
    48    15    16    2
    49    15    17    1
    50    17    18    1
    51    17    61    1
    52    17    62    1
    53    18    19    1
    54    19    20    1
    55    19    63    1
    56    19    64    1
    57    20    21    2
    58    20    22    1
    59    22    23    1
    60    22    29    1
    61    23    24    1
    62    23    65    1
    63    23    66    1
    64    24    25    1
    65    24    67    1
    66    24    68    1
    67    25    26    1
    68    25    69    1
    69    25    70    1
    70    26    27    1
    71    26    71    1
    72    26    72    1
    73    27    28    1
    74    27    73    1
    75    27    74    1
    76    28    75    1
    77    28    76    1
    78    28    77    1
    79    29    30    1
    80    29    78    1
    81    29    79    1
    82    30    31    1
    83    30    80    1
    84    30    81    1
    85    31    32    1
    86    31    82    1
    87    31    83    1
    88    32    33    1
    89    32    84    1
    90    32    85    1
    91    33    34    1
    92    33    86    1
    93    33    87    1
    94    34    88    1
    95    34    89    1
    96    34    90    1
    97    91    92    1
    98    91   124    1
    99    91   125    1
   100    91   126    1
   101    92    93    1
   102    92   127    1
   103    92   128    1
   104    93    94    1
   105    93   129    1
   106    93   130    1
   107    94    95    1
   108    94   131    1
   109    94   132    1
   110    95    96    1
   111    95   133    1
   112    95   134    1
   113    96    97    1
   114    96   135    1
   115    96   136    1
   116    97    98    1
   117    97   104    1
   118    98    99    1
   119    98   137    1
   120    98   138    1
   121    99   100    1
   122    99   139    1
   123    99   140    1
   124   100   101    1
   125   100   141    1
   126   100   142    1
   127   101   102    1
   128   101   143    1
   129   101   144    1
   130   102   103    1
   131   102   145    1
   132   102   146    1
   133   103   147    1
   134   103   148    1
   135   103   149    1
   136   104   105    2
   137   104   106    1
   138   106   107    1
   139   106   150    1
   140   106   151    1
   141   107   108    1
   142   108   109    1
   143   108   152    1
   144   108   153    1
   145   109   110    2
   146   109   111    1
   147   111   112    1
   148   111   118    1
   149   112   113    1
   150   112   154    1
   151   112   155    1
   152   113   114    1
   153   113   156    1
   154   113   157    1
   155   114   115    1
   156   114   158    1
   157   114   159    1
   158   115   116    1
   159   115   160    1
   160   115   161    1
   161   116   117    1
   162   116   162    1
   163   116   163    1
   164   117   164    1
   165   117   165    1
   166   117   166    1
   167   118   119    1
   168   118   167    1
   169   118   168    1
   170   119   120    1
   171   119   169    1
   172   119   170    1
   173   120   121    1
   174   120   171    1
   175   120   172    1
   176   121   122    1
   177   121   173    1
   178   121   174    1
   179   122   123    1
   180   122   175    1
   181   122   176    1
   182   123   177    1
   183   123   178    1
   184   123   179    1
   185   180   181    2
   186   180   182    1
   187   180   183    1
@<TRIPOS>SUBSTRUCTURE
     1 RES1      183 GROUP             0 ****  ****    0  
