@<TRIPOS>MOLECULE
YEMSEP_geometry_0_nunpairedes_0_charge_3 Charge: 3 Unpaired_Electrons: 0 XTB_Unpaired_Electrons: 0 XTB_Charge: 3
   121   134     1     0     0
SMALL
NoCharges
****
Generated from Architector

@<TRIPOS>ATOM
     1 Lu1       0.0518    0.0090    0.0860   Lu        1 RES1   0.0000
     2 C1        5.0106   -1.3333   -3.1561   C.3       1 RES1   0.0000
     3 C2        5.1069   -0.4633   -1.9023   C.3       1 RES1   0.0000
     4 N1        3.8288    0.1826   -1.6402   N.am      1 RES1   0.0000
     5 C3        2.7445   -0.4026   -1.1409   C.2       1 RES1   0.0000
     6 O1        1.6573    0.2204   -1.2012   O.2       1 RES1   0.0000
     7 C4        2.7048   -1.7554   -0.4471   C.ar      1 RES1   0.0000
     8 C5        3.5778   -2.8408   -0.5425   C.ar      1 RES1   0.0000
     9 C6        3.3248   -3.9725    0.2245   C.ar      1 RES1   0.0000
    10 C7        2.1954   -4.0391    1.0186   C.ar      1 RES1   0.0000
    11 C8        1.3279   -2.9457    1.0150   C.ar      1 RES1   0.0000
    12 C9        0.0142   -2.9397    1.7050   C.ar      1 RES1   0.0000
    13 C10      -0.4901   -4.0380    2.4099   C.ar      1 RES1   0.0000
    14 C11      -1.8044   -3.9847    2.8310   C.ar      1 RES1   0.0000
    15 C12      -2.5794   -2.8561    2.5909   C.ar      1 RES1   0.0000
    16 C13      -1.9706   -1.7465    2.0104   C.ar      1 RES1   0.0000
    17 C14      -2.5180   -0.3600    1.7438   C.2       1 RES1   0.0000
    18 O2       -1.8711    0.3219    0.9095   O.2       1 RES1   0.0000
    19 N2       -3.5569    0.1932    2.3637   N.am      1 RES1   0.0000
    20 C15      -4.5159   -0.4968    3.2141   C.3       1 RES1   0.0000
    21 C16      -5.5721   -1.2358    2.3976   C.3       1 RES1   0.0000
    22 C17      -3.7878    1.6037    2.2043   C.ar      1 RES1   0.0000
    23 C18      -5.0738    2.0807    1.9806   C.ar      1 RES1   0.0000
    24 C19      -5.3229    3.4420    1.9620   C.ar      1 RES1   0.0000
    25 C20      -4.2908    4.3411    2.1690   C.ar      1 RES1   0.0000
    26 C21      -3.0034    3.8689    2.3723   C.ar      1 RES1   0.0000
    27 C22      -2.7476    2.5084    2.3873   C.ar      1 RES1   0.0000
    28 N3       -0.7056   -1.8253    1.5643   N.ar      1 RES1   0.0000
    29 N4        1.6080   -1.8438    0.3166   N.ar      1 RES1   0.0000
    30 C23       3.7395    1.5563   -2.0570   C.ar      1 RES1   0.0000
    31 C24       3.2789    2.5238   -1.1681   C.ar      1 RES1   0.0000
    32 C25       3.3453    3.8625   -1.5105   C.ar      1 RES1   0.0000
    33 C26       3.8588    4.2484   -2.7383   C.ar      1 RES1   0.0000
    34 C27       4.2683    3.2839   -3.6417   C.ar      1 RES1   0.0000
    35 C28       4.2178    1.9437   -3.3010   C.ar      1 RES1   0.0000
    36 H1        5.9371   -1.8772   -3.3118   H         1 RES1   0.0000
    37 H2        4.8351   -0.7202   -4.0349   H         1 RES1   0.0000
    38 H3        4.1854   -2.0383   -3.0754   H         1 RES1   0.0000
    39 H4        5.8457    0.3273   -2.0445   H         1 RES1   0.0000
    40 H5        5.4048   -1.0346   -1.0206   H         1 RES1   0.0000
    41 H6        4.4249   -2.8618   -1.2003   H         1 RES1   0.0000
    42 H7        4.0035   -4.8096    0.1989   H         1 RES1   0.0000
    43 H8        1.9934   -4.9097    1.6201   H         1 RES1   0.0000
    44 H9        0.1109   -4.9060    2.6262   H         1 RES1   0.0000
    45 H10      -2.2388   -4.8295    3.3390   H         1 RES1   0.0000
    46 H11      -3.6228   -2.8862    2.8423   H         1 RES1   0.0000
    47 H12      -4.9866    0.2605    3.8413   H         1 RES1   0.0000
    48 H13      -3.9859   -1.1786    3.8792   H         1 RES1   0.0000
    49 H14      -6.1994   -0.5451    1.8459   H         1 RES1   0.0000
    50 H15      -6.2235   -1.7953    3.0598   H         1 RES1   0.0000
    51 H16      -5.1161   -1.9195    1.6876   H         1 RES1   0.0000
    52 H17      -5.8957    1.4042    1.8307   H         1 RES1   0.0000
    53 H18      -6.3301    3.7951    1.8044   H         1 RES1   0.0000
    54 H19      -4.4878    5.4006    2.1798   H         1 RES1   0.0000
    55 H20      -2.2020    4.5684    2.5532   H         1 RES1   0.0000
    56 H21      -1.7457    2.1503    2.5765   H         1 RES1   0.0000
    57 H22       2.9155    2.2117   -0.1988   H         1 RES1   0.0000
    58 H23       3.0229    4.6133   -0.8042   H         1 RES1   0.0000
    59 H24       3.9637    5.2895   -2.9897   H         1 RES1   0.0000
    60 H25       4.6457    3.5655   -4.6119   H         1 RES1   0.0000
    61 H26       4.5732    1.2174   -4.0118   H         1 RES1   0.0000
    62 C29      -1.3737   -1.7372   -5.6947   C.3       1 RES1   0.0000
    63 C30      -2.2753   -2.1454   -4.5326   C.3       1 RES1   0.0000
    64 N5       -1.5810   -2.1555   -3.2481   N.am      1 RES1   0.0000
    65 C31      -1.2629   -1.1120   -2.4817   C.2       1 RES1   0.0000
    66 O3       -0.6713   -1.3324   -1.3962   O.2       1 RES1   0.0000
    67 C32      -1.5472    0.3469   -2.7842   C.ar      1 RES1   0.0000
    68 C33      -2.2351    0.9175   -3.8545   C.ar      1 RES1   0.0000
    69 C34      -2.3871    2.2977   -3.8919   C.ar      1 RES1   0.0000
    70 C35      -1.8405    3.0852   -2.8972   C.ar      1 RES1   0.0000
    71 C36      -1.1583    2.4538   -1.8558   C.ar      1 RES1   0.0000
    72 C37      -0.5403    3.1970   -0.7255   C.ar      1 RES1   0.0000
    73 C38      -0.5379    4.5923   -0.6320   C.ar      1 RES1   0.0000
    74 C39       0.0903    5.1695    0.4534   C.ar      1 RES1   0.0000
    75 C40       0.6927    4.3784    1.4247   C.ar      1 RES1   0.0000
    76 C41       0.6239    2.9938    1.2912   C.ar      1 RES1   0.0000
    77 C42       1.1860    1.8997    2.1798   C.2       1 RES1   0.0000
    78 O4        1.2954    0.7719    1.6364   O.2       1 RES1   0.0000
    79 N6        1.5117    2.0334    3.4640   N.am      1 RES1   0.0000
    80 C43       1.6768    3.2931    4.1745   C.3       1 RES1   0.0000
    81 C44       2.9986    3.9637    3.8038   C.3       1 RES1   0.0000
    82 C45       1.8119    0.8512    4.2251   C.ar      1 RES1   0.0000
    83 C46       2.9149    0.8227    5.0704   C.ar      1 RES1   0.0000
    84 C47       3.1685   -0.2888    5.8542   C.ar      1 RES1   0.0000
    85 C48       2.3158   -1.3773    5.8131   C.ar      1 RES1   0.0000
    86 C49       1.2041   -1.3455    4.9856   C.ar      1 RES1   0.0000
    87 C50       0.9523   -0.2418    4.1889   C.ar      1 RES1   0.0000
    88 N7        0.0207    2.4468    0.2227   N.ar      1 RES1   0.0000
    89 N8       -1.0400    1.1262   -1.8170   N.ar      1 RES1   0.0000
    90 C51      -1.2385   -3.4720   -2.7715   C.ar      1 RES1   0.0000
    91 C52      -1.5881   -3.8886   -1.4906   C.ar      1 RES1   0.0000
    92 C53      -1.3267   -5.1886   -1.0914   C.ar      1 RES1   0.0000
    93 C54      -0.7195   -6.0803   -1.9617   C.ar      1 RES1   0.0000
    94 C55      -0.3663   -5.6672   -3.2342   C.ar      1 RES1   0.0000
    95 C56      -0.6241   -4.3686   -3.6381   C.ar      1 RES1   0.0000
    96 H27      -1.9699   -1.6606   -6.5989   H         1 RES1   0.0000
    97 H28      -0.6122   -2.4876   -5.8826   H         1 RES1   0.0000
    98 H29      -0.8858   -0.7858   -5.4990   H         1 RES1   0.0000
    99 H30      -2.6527   -3.1570   -4.6980   H         1 RES1   0.0000
   100 H31      -3.1485   -1.4965   -4.4506   H         1 RES1   0.0000
   101 H32      -2.6496    0.3458   -4.6604   H         1 RES1   0.0000
   102 H33      -2.9310    2.7596   -4.6987   H         1 RES1   0.0000
   103 H34      -1.9408    4.1559   -2.9209   H         1 RES1   0.0000
   104 H35      -1.0015    5.2161   -1.3754   H         1 RES1   0.0000
   105 H36       0.1232    6.2422    0.5427   H         1 RES1   0.0000
   106 H37       1.2080    4.8699    2.2272   H         1 RES1   0.0000
   107 H38       1.6491    3.0652    5.2412   H         1 RES1   0.0000
   108 H39       0.8242    3.9408    3.9650   H         1 RES1   0.0000
   109 H40       3.8417    3.3838    4.1595   H         1 RES1   0.0000
   110 H41       3.0656    4.9482    4.2538   H         1 RES1   0.0000
   111 H42       3.0967    4.0595    2.7268   H         1 RES1   0.0000
   112 H43       3.5785    1.6670    5.1333   H         1 RES1   0.0000
   113 H44       4.0295   -0.2926    6.5048   H         1 RES1   0.0000
   114 H45       2.5092   -2.2408    6.4279   H         1 RES1   0.0000
   115 H46       0.5153   -2.1766    4.9825   H         1 RES1   0.0000
   116 H47       0.0708   -0.2147    3.5611   H         1 RES1   0.0000
   117 H48      -2.0994   -3.2060   -0.8268   H         1 RES1   0.0000
   118 H49      -1.6260   -5.5160   -0.1064   H         1 RES1   0.0000
   119 H50      -0.5348   -7.0987   -1.6632   H         1 RES1   0.0000
   120 H51       0.0975   -6.3542   -3.9267   H         1 RES1   0.0000
   121 H52      -0.3604   -4.0717   -4.6382   H         1 RES1   0.0000
@<TRIPOS>BOND
     1     1     6    1
     2     1    18    1
     3     1    28    1
     4     1    29    1
     5     1    66    1
     6     1    78    1
     7     1    88    1
     8     1    89    1
     9     2     3    1
    10     2    36    1
    11     2    37    1
    12     2    38    1
    13     3     4    1
    14     3    39    1
    15     3    40    1
    16     4     5    1
    17     4    30    1
    18     5     6    2
    19     5     7    1
    20     7     8    1
    21     7    29    2
    22     8     9    2
    23     8    41    1
    24     9    10    1
    25     9    42    1
    26    10    11    2
    27    10    43    1
    28    11    12    1
    29    11    29    1
    30    12    13    1
    31    12    28    2
    32    13    14    2
    33    13    44    1
    34    14    15    1
    35    14    45    1
    36    15    16    2
    37    15    46    1
    38    16    17    1
    39    16    28    1
    40    17    18    2
    41    17    19    1
    42    19    20    1
    43    19    22    1
    44    20    21    1
    45    20    47    1
    46    20    48    1
    47    21    49    1
    48    21    50    1
    49    21    51    1
    50    22    23    1
    51    22    27    2
    52    23    24    2
    53    23    52    1
    54    24    25    1
    55    24    53    1
    56    25    26    2
    57    25    54    1
    58    26    27    1
    59    26    55    1
    60    27    56    1
    61    30    31    1
    62    30    35    2
    63    31    32    2
    64    31    57    1
    65    32    33    1
    66    32    58    1
    67    33    34    2
    68    33    59    1
    69    34    35    1
    70    34    60    1
    71    35    61    1
    72    62    63    1
    73    62    96    1
    74    62    97    1
    75    62    98    1
    76    63    64    1
    77    63    99    1
    78    63   100    1
    79    64    65    1
    80    64    90    1
    81    65    66    2
    82    65    67    1
    83    67    68    1
    84    67    89    2
    85    68    69    2
    86    68   101    1
    87    69    70    1
    88    69   102    1
    89    70    71    2
    90    70   103    1
    91    71    72    1
    92    71    89    1
    93    72    73    1
    94    72    88    2
    95    73    74    2
    96    73   104    1
    97    74    75    1
    98    74   105    1
    99    75    76    2
   100    75   106    1
   101    76    77    1
   102    76    88    1
   103    77    78    2
   104    77    79    1
   105    79    80    1
   106    79    82    1
   107    80    81    1
   108    80   107    1
   109    80   108    1
   110    81   109    1
   111    81   110    1
   112    81   111    1
   113    82    83    1
   114    82    87    2
   115    83    84    2
   116    83   112    1
   117    84    85    1
   118    84   113    1
   119    85    86    2
   120    85   114    1
   121    86    87    1
   122    86   115    1
   123    87   116    1
   124    90    91    1
   125    90    95    2
   126    91    92    2
   127    91   117    1
   128    92    93    1
   129    92   118    1
   130    93    94    2
   131    93   119    1
   132    94    95    1
   133    94   120    1
   134    95   121    1
@<TRIPOS>SUBSTRUCTURE
     1 RES1      121 GROUP             0 ****  ****    0  
