@<TRIPOS>MOLECULE
ICIGOT_geomtry_0_nunpairedes_0_charge_2 Charge: 2 Unpaired_Electrons: 0 XTB_Unpaired_Electrons: 0 XTB_Charge: 2
   231   235     1     0     0
SMALL
NoCharges
****
Generated from Architector

@<TRIPOS>ATOM
     1 Lu1      -0.0479   -0.1118   -0.0541   Lu        1 RES1   0.0000
     2 C1       -2.0624   -4.0492    5.8311   C.3       1 RES1   0.0000
     3 C2       -2.5278   -2.7519    5.1823   C.3       1 RES1   0.0000
     4 C3       -3.6221   -2.1217    6.0445   C.3       1 RES1   0.0000
     5 C4       -4.2398   -0.8481    5.4665   C.3       1 RES1   0.0000
     6 C5       -4.7746   -1.1068    4.0618   C.3       1 RES1   0.0000
     7 C6       -5.6965   -0.0307    3.4984   C.3       1 RES1   0.0000
     8 C7       -6.1950   -0.4279    2.1088   C.3       1 RES1   0.0000
     9 C8       -5.1910   -0.2424    0.9679   C.3       1 RES1   0.0000
    10 N1       -3.9301   -0.9583    1.0926   N.am      1 RES1   0.0000
    11 C9       -3.9903   -2.4164    0.9899   C.3       1 RES1   0.0000
    12 C10      -3.5203   -3.0143   -0.3368   C.3       1 RES1   0.0000
    13 C11      -4.0334   -4.4565   -0.4588   C.3       1 RES1   0.0000
    14 C12      -4.0677   -4.9950   -1.8997   C.3       1 RES1   0.0000
    15 C13      -3.0281   -6.0718   -2.2040   C.3       1 RES1   0.0000
    16 C14      -1.5915   -5.5440   -2.2375   C.3       1 RES1   0.0000
    17 C15      -0.6783   -6.3612   -3.1570   C.3       1 RES1   0.0000
    18 C16      -0.9795   -6.1470   -4.6406   C.3       1 RES1   0.0000
    19 C17      -2.7497   -0.3888    1.2375   C.2       1 RES1   0.0000
    20 O1       -1.6820   -1.0260    1.0629   O.2       1 RES1   0.0000
    21 C18      -2.5911    1.0403    1.7627   C.3       1 RES1   0.0000
    22 O2       -1.6709    1.6682    0.8822   O.3       1 RES1   0.0000
    23 C19      -1.2571    2.9882    1.2354   C.3       1 RES1   0.0000
    24 C20       0.2750    2.9775    1.0734   C.2       1 RES1   0.0000
    25 O3        0.8061    1.8574    0.8907   O.2       1 RES1   0.0000
    26 N2        0.9715    4.0885    1.2397   N.am      1 RES1   0.0000
    27 C21       2.3963    3.9872    1.5358   C.3       1 RES1   0.0000
    28 C22       2.7497    4.6797    2.8582   C.3       1 RES1   0.0000
    29 C23       1.8188    4.3090    4.0138   C.3       1 RES1   0.0000
    30 C24       1.8766    5.3479    5.1344   C.3       1 RES1   0.0000
    31 C25       1.0634    4.9561    6.3697   C.3       1 RES1   0.0000
    32 C26      -0.3988    4.5996    6.0968   C.3       1 RES1   0.0000
    33 C27      -1.2114    5.7383    5.4844   C.3       1 RES1   0.0000
    34 C28      -2.6447    5.3056    5.1906   C.3       1 RES1   0.0000
    35 C29       0.4327    5.4155    0.9737   C.3       1 RES1   0.0000
    36 C30       0.3353    5.6897   -0.5369   C.3       1 RES1   0.0000
    37 C31       1.6938    5.8117   -1.2476   C.3       1 RES1   0.0000
    38 C32       2.1340    4.5331   -1.9642   C.3       1 RES1   0.0000
    39 C33       3.4706    4.7180   -2.6888   C.3       1 RES1   0.0000
    40 C34       4.7287    4.6793   -1.8175   C.3       1 RES1   0.0000
    41 C35       5.0875    3.3178   -1.2141   C.3       1 RES1   0.0000
    42 C36       5.1774    2.2106   -2.2576   C.3       1 RES1   0.0000
    43 H1       -1.2872   -4.5464    5.2537   H         1 RES1   0.0000
    44 H2       -2.9161   -4.7179    5.9166   H         1 RES1   0.0000
    45 H3       -1.6724   -3.8766    6.8293   H         1 RES1   0.0000
    46 H4       -2.9288   -3.0013    4.1986   H         1 RES1   0.0000
    47 H5       -1.6987   -2.0523    5.0440   H         1 RES1   0.0000
    48 H6       -3.2112   -1.8959    7.0273   H         1 RES1   0.0000
    49 H7       -4.4160   -2.8593    6.1839   H         1 RES1   0.0000
    50 H8       -3.5012   -0.0424    5.4330   H         1 RES1   0.0000
    51 H9       -5.0496   -0.5263    6.1232   H         1 RES1   0.0000
    52 H10      -5.3121   -2.0576    4.0672   H         1 RES1   0.0000
    53 H11      -3.9216   -1.2132    3.3994   H         1 RES1   0.0000
    54 H12      -5.1927    0.9381    3.4674   H         1 RES1   0.0000
    55 H13      -6.5588    0.0729    4.1570   H         1 RES1   0.0000
    56 H14      -7.0590    0.1759    1.8321   H         1 RES1   0.0000
    57 H15      -6.5316   -1.4654    2.1483   H         1 RES1   0.0000
    58 H16      -4.9767    0.8150    0.8268   H         1 RES1   0.0000
    59 H17      -5.6640   -0.6140    0.0550   H         1 RES1   0.0000
    60 H18      -5.0288   -2.6984    1.1532   H         1 RES1   0.0000
    61 H19      -3.4051   -2.8431    1.8073   H         1 RES1   0.0000
    62 H20      -2.4306   -2.9751   -0.3999   H         1 RES1   0.0000
    63 H21      -3.9340   -2.4261   -1.1527   H         1 RES1   0.0000
    64 H22      -5.0501   -4.4857   -0.0618   H         1 RES1   0.0000
    65 H23      -3.4392   -5.1275    0.1613   H         1 RES1   0.0000
    66 H24      -3.9323   -4.1749   -2.6052   H         1 RES1   0.0000
    67 H25      -5.0531   -5.4194   -2.1011   H         1 RES1   0.0000
    68 H26      -3.2754   -6.5097   -3.1703   H         1 RES1   0.0000
    69 H27      -3.1121   -6.8674   -1.4650   H         1 RES1   0.0000
    70 H28      -1.1773   -5.5514   -1.2257   H         1 RES1   0.0000
    71 H29      -1.5943   -4.5032   -2.5731   H         1 RES1   0.0000
    72 H30      -0.7840   -7.4193   -2.9110   H         1 RES1   0.0000
    73 H31       0.3612   -6.0787   -2.9590   H         1 RES1   0.0000
    74 H32      -1.9441   -6.5696   -4.9133   H         1 RES1   0.0000
    75 H33      -0.2242   -6.6287   -5.2592   H         1 RES1   0.0000
    76 H34      -0.9924   -5.0836   -4.8855   H         1 RES1   0.0000
    77 H35      -2.1438    0.9263    2.7666   H         1 RES1   0.0000
    78 H36      -3.5177    1.6145    1.8442   H         1 RES1   0.0000
    79 H37      -1.5035    3.2036    2.2856   H         1 RES1   0.0000
    80 H38      -1.7612    3.7247    0.5976   H         1 RES1   0.0000
    81 H39       2.9776    4.4424    0.7356   H         1 RES1   0.0000
    82 H40       2.6390    2.9245    1.5920   H         1 RES1   0.0000
    83 H41       2.7175    5.7614    2.7233   H         1 RES1   0.0000
    84 H42       3.7820    4.4239    3.1048   H         1 RES1   0.0000
    85 H43       2.0786    3.3256    4.4102   H         1 RES1   0.0000
    86 H44       0.7969    4.2529    3.6356   H         1 RES1   0.0000
    87 H45       1.5149    6.3029    4.7507   H         1 RES1   0.0000
    88 H46       2.9149    5.4916    5.4404   H         1 RES1   0.0000
    89 H47       1.0963    5.7882    7.0746   H         1 RES1   0.0000
    90 H48       1.5419    4.0993    6.8490   H         1 RES1   0.0000
    91 H49      -0.8588    4.3162    7.0457   H         1 RES1   0.0000
    92 H50      -0.4526    3.7256    5.4418   H         1 RES1   0.0000
    93 H51      -0.7446    6.0803    4.5583   H         1 RES1   0.0000
    94 H52      -1.2232    6.5820    6.1745   H         1 RES1   0.0000
    95 H53      -2.6581    4.4957    4.4583   H         1 RES1   0.0000
    96 H54      -3.2246    6.1379    4.7968   H         1 RES1   0.0000
    97 H55      -3.1310    4.9497    6.0969   H         1 RES1   0.0000
    98 H56       1.1017    6.1396    1.4417   H         1 RES1   0.0000
    99 H57      -0.5520    5.5226    1.4336   H         1 RES1   0.0000
   100 H58      -0.2114    6.6284   -0.6494   H         1 RES1   0.0000
   101 H59      -0.2490    4.9017   -1.0215   H         1 RES1   0.0000
   102 H60       2.4540    6.1466   -0.5389   H         1 RES1   0.0000
   103 H61       1.6137    6.5894   -2.0094   H         1 RES1   0.0000
   104 H62       1.3651    4.3027   -2.7052   H         1 RES1   0.0000
   105 H63       2.1796    3.6846   -1.2787   H         1 RES1   0.0000
   106 H64       3.4430    5.6872   -3.1932   H         1 RES1   0.0000
   107 H65       3.5565    3.9555   -3.4597   H         1 RES1   0.0000
   108 H66       4.6461    5.4162   -1.0154   H         1 RES1   0.0000
   109 H67       5.5613    4.9913   -2.4510   H         1 RES1   0.0000
   110 H68       4.3627    3.0286   -0.4490   H         1 RES1   0.0000
   111 H69       6.0581    3.4245   -0.7235   H         1 RES1   0.0000
   112 H70       4.1836    1.9121   -2.5814   H         1 RES1   0.0000
   113 H71       5.6773    1.3365   -1.8457   H         1 RES1   0.0000
   114 H72       5.7415    2.5531   -3.1217   H         1 RES1   0.0000
   115 C37       1.9478    3.3197   -5.8858   C.3       1 RES1   0.0000
   116 C38       2.3973    1.9709   -5.3379   C.3       1 RES1   0.0000
   117 C39       3.7253    1.5284   -5.9451   C.3       1 RES1   0.0000
   118 C40       4.3129    0.2595   -5.3238   C.3       1 RES1   0.0000
   119 C41       3.3119   -0.8944   -5.2592   C.3       1 RES1   0.0000
   120 C42       3.9851   -2.2199   -4.9009   C.3       1 RES1   0.0000
   121 C43       3.0773   -3.4354   -5.0915   C.3       1 RES1   0.0000
   122 C44       2.0510   -3.7244   -3.9861   C.3       1 RES1   0.0000
   123 N3        1.1755   -2.6326   -3.5540   N.am      1 RES1   0.0000
   124 C45       0.1898   -2.2667   -4.5894   C.3       1 RES1   0.0000
   125 C46      -0.3700   -0.8358   -4.6268   C.3       1 RES1   0.0000
   126 C47      -1.8893   -0.8219   -4.8502   C.3       1 RES1   0.0000
   127 C48      -2.6359   -1.4578   -3.6803   C.3       1 RES1   0.0000
   128 C49      -4.1596   -1.3693   -3.7945   C.3       1 RES1   0.0000
   129 C50      -4.7148   -0.1933   -2.9988   C.3       1 RES1   0.0000
   130 C51      -6.2439   -0.1416   -2.9967   C.3       1 RES1   0.0000
   131 C52      -6.9011   -1.4010   -2.4272   C.3       1 RES1   0.0000
   132 C53       1.0324   -2.2899   -2.2839   C.2       1 RES1   0.0000
   133 O4        0.1083   -1.5705   -1.8531   O.2       1 RES1   0.0000
   134 C54       2.0310   -2.7978   -1.2079   C.3       1 RES1   0.0000
   135 O5        1.7660   -1.9924   -0.0628   O.3       1 RES1   0.0000
   136 C55       2.1790   -2.5293    1.1946   C.3       1 RES1   0.0000
   137 C56       1.9340   -1.3467    2.1512   C.2       1 RES1   0.0000
   138 O6        0.9653   -0.6124    1.8617   O.2       1 RES1   0.0000
   139 N4        2.7520   -1.0701    3.1525   N.am      1 RES1   0.0000
   140 C57       2.6533    0.2495    3.7828   C.3       1 RES1   0.0000
   141 C58       4.0169    0.9022    4.0246   C.3       1 RES1   0.0000
   142 C59       4.8822    0.9681    2.7649   C.3       1 RES1   0.0000
   143 C60       6.3374    1.3182    3.0858   C.3       1 RES1   0.0000
   144 C61       7.1371    1.7214    1.8450   C.3       1 RES1   0.0000
   145 C62       7.1140    0.7046    0.7033   C.3       1 RES1   0.0000
   146 C63       7.7520   -0.6390    1.0501   C.3       1 RES1   0.0000
   147 C64       7.6404   -1.6157   -0.1173   C.3       1 RES1   0.0000
   148 C65       3.6557   -2.0481    3.7332   C.3       1 RES1   0.0000
   149 C66       2.9670   -2.9260    4.7889   C.3       1 RES1   0.0000
   150 C67       2.6020   -2.2235    6.1068   C.3       1 RES1   0.0000
   151 C68       1.0989   -1.9981    6.2712   C.3       1 RES1   0.0000
   152 C69       0.7272   -1.5042    7.6716   C.3       1 RES1   0.0000
   153 C70       1.2050   -0.0915    8.0126   C.3       1 RES1   0.0000
   154 C71       0.5470    1.0471    7.2195   C.3       1 RES1   0.0000
   155 C72      -0.9593    0.8944    7.0343   C.3       1 RES1   0.0000
   156 H73       1.0020    3.6213   -5.4402   H         1 RES1   0.0000
   157 H74       1.8089    3.2625   -6.9623   H         1 RES1   0.0000
   158 H75       2.6872    4.0899   -5.6814   H         1 RES1   0.0000
   159 H76       1.6285    1.2355   -5.5714   H         1 RES1   0.0000
   160 H77       2.4811    2.0213   -4.2503   H         1 RES1   0.0000
   161 H78       4.4525    2.3314   -5.8307   H         1 RES1   0.0000
   162 H79       3.5857    1.3753   -7.0156   H         1 RES1   0.0000
   163 H80       4.6729    0.4688   -4.3157   H         1 RES1   0.0000
   164 H81       5.1756   -0.0481   -5.9207   H         1 RES1   0.0000
   165 H82       2.8298   -0.9925   -6.2343   H         1 RES1   0.0000
   166 H83       2.5411   -0.6662   -4.5215   H         1 RES1   0.0000
   167 H84       4.3479   -2.1935   -3.8718   H         1 RES1   0.0000
   168 H85       4.8574   -2.3504   -5.5472   H         1 RES1   0.0000
   169 H86       3.7001   -4.3318   -5.1207   H         1 RES1   0.0000
   170 H87       2.5857   -3.3567   -6.0603   H         1 RES1   0.0000
   171 H88       2.5825   -4.1150   -3.1227   H         1 RES1   0.0000
   172 H89       1.3885   -4.5110   -4.3609   H         1 RES1   0.0000
   173 H90      -0.6501   -2.9607   -4.4939   H         1 RES1   0.0000
   174 H91       0.6801   -2.4697   -5.5372   H         1 RES1   0.0000
   175 H92       0.1051   -0.2800   -5.4364   H         1 RES1   0.0000
   176 H93      -0.1552   -0.3127   -3.6973   H         1 RES1   0.0000
   177 H94      -2.1395   -1.3446   -5.7760   H         1 RES1   0.0000
   178 H95      -2.2082    0.2151   -4.9667   H         1 RES1   0.0000
   179 H96      -2.3150   -0.9653   -2.7599   H         1 RES1   0.0000
   180 H97      -2.3455   -2.5062   -3.5951   H         1 RES1   0.0000
   181 H98      -4.6007   -2.2908   -3.4132   H         1 RES1   0.0000
   182 H99      -4.4568   -1.2799   -4.8390   H         1 RES1   0.0000
   183 H100     -4.3269    0.7416   -3.4082   H         1 RES1   0.0000
   184 H101     -4.3460   -0.2678   -1.9708   H         1 RES1   0.0000
   185 H102     -6.5965    0.0081   -4.0191   H         1 RES1   0.0000
   186 H103     -6.5606    0.7264   -2.4118   H         1 RES1   0.0000
   187 H104     -6.8783   -2.2169   -3.1443   H         1 RES1   0.0000
   188 H105     -7.9462   -1.2126   -2.1931   H         1 RES1   0.0000
   189 H106     -6.4022   -1.7399   -1.5181   H         1 RES1   0.0000
   190 H107      3.0727   -2.6636   -1.5259   H         1 RES1   0.0000
   191 H108      1.8414   -3.8558   -0.9757   H         1 RES1   0.0000
   192 H109      3.2237   -2.8540    1.1525   H         1 RES1   0.0000
   193 H110      1.5673   -3.3949    1.4930   H         1 RES1   0.0000
   194 H111      2.1209    0.1672    4.7329   H         1 RES1   0.0000
   195 H112      2.0659    0.8786    3.1066   H         1 RES1   0.0000
   196 H113      4.5538    0.3785    4.8176   H         1 RES1   0.0000
   197 H114      3.8255    1.9112    4.3958   H         1 RES1   0.0000
   198 H115      4.4728    1.7162    2.0821   H         1 RES1   0.0000
   199 H116      4.8481    0.0028    2.2553   H         1 RES1   0.0000
   200 H117      6.8204    0.4689    3.5727   H         1 RES1   0.0000
   201 H118      6.3635    2.1522    3.7910   H         1 RES1   0.0000
   202 H119      8.1722    1.8912    2.1439   H         1 RES1   0.0000
   203 H120      6.7430    2.6683    1.4678   H         1 RES1   0.0000
   204 H121      7.6553    1.1352   -0.1423   H         1 RES1   0.0000
   205 H122      6.0833    0.5385    0.3796   H         1 RES1   0.0000
   206 H123      7.2649   -1.0731    1.9265   H         1 RES1   0.0000
   207 H124      8.8037   -0.4897    1.2987   H         1 RES1   0.0000
   208 H125      6.5916   -1.8085   -0.3513   H         1 RES1   0.0000
   209 H126      8.1221   -2.5622    0.1224   H         1 RES1   0.0000
   210 H127      8.1162   -1.2030   -1.0056   H         1 RES1   0.0000
   211 H128      4.5030   -1.5203    4.1676   H         1 RES1   0.0000
   212 H129      4.0416   -2.7017    2.9495   H         1 RES1   0.0000
   213 H130      3.6463   -3.7539    4.9977   H         1 RES1   0.0000
   214 H131      2.0625   -3.3524    4.3502   H         1 RES1   0.0000
   215 H132      3.1396   -1.2806    6.1893   H         1 RES1   0.0000
   216 H133      2.9269   -2.8525    6.9344   H         1 RES1   0.0000
   217 H134      0.6008   -2.9557    6.0997   H         1 RES1   0.0000
   218 H135      0.7330   -1.3005    5.5142   H         1 RES1   0.0000
   219 H136      1.1615   -2.1942    8.3980   H         1 RES1   0.0000
   220 H137     -0.3555   -1.5587    7.7873   H         1 RES1   0.0000
   221 H138      2.2857   -0.0380    7.8712   H         1 RES1   0.0000
   222 H139      1.0184    0.0643    9.0757   H         1 RES1   0.0000
   223 H140      1.0161    1.1489    6.2360   H         1 RES1   0.0000
   224 H141      0.7379    1.9785    7.7578   H         1 RES1   0.0000
   225 H142     -1.2036    0.0241    6.4293   H         1 RES1   0.0000
   226 H143     -1.3714    1.7747    6.5443   H         1 RES1   0.0000
   227 H144     -1.4495    0.7785    7.9965   H         1 RES1   0.0000
   228 N5       -0.5245    1.4506   -1.6554   N.3       1 RES1   0.0000
   229 O7       -0.7868    2.5819   -1.9040   O.2       1 RES1   0.0000
   230 O8        0.6449    1.0437   -1.6133   O.co2     1 RES1   0.0000
   231 O9       -1.4104    0.6175   -1.4152   O.co2     1 RES1   0.0000
@<TRIPOS>BOND
     1     1    20    1
     2     1    22    1
     3     1    25    1
     4     1   133    1
     5     1   135    1
     6     1   138    1
     7     1   230    1
     8     1   231    1
     9     2     3    1
    10     2    43    1
    11     2    44    1
    12     2    45    1
    13     3     4    1
    14     3    46    1
    15     3    47    1
    16     4     5    1
    17     4    48    1
    18     4    49    1
    19     5     6    1
    20     5    50    1
    21     5    51    1
    22     6     7    1
    23     6    52    1
    24     6    53    1
    25     7     8    1
    26     7    54    1
    27     7    55    1
    28     8     9    1
    29     8    56    1
    30     8    57    1
    31     9    10    1
    32     9    58    1
    33     9    59    1
    34    10    11    1
    35    10    19    1
    36    11    12    1
    37    11    60    1
    38    11    61    1
    39    12    13    1
    40    12    62    1
    41    12    63    1
    42    13    14    1
    43    13    64    1
    44    13    65    1
    45    14    15    1
    46    14    66    1
    47    14    67    1
    48    15    16    1
    49    15    68    1
    50    15    69    1
    51    16    17    1
    52    16    70    1
    53    16    71    1
    54    17    18    1
    55    17    72    1
    56    17    73    1
    57    18    74    1
    58    18    75    1
    59    18    76    1
    60    19    20    2
    61    19    21    1
    62    21    22    1
    63    21    77    1
    64    21    78    1
    65    22    23    1
    66    23    24    1
    67    23    79    1
    68    23    80    1
    69    24    25    2
    70    24    26    1
    71    26    27    1
    72    26    35    1
    73    27    28    1
    74    27    81    1
    75    27    82    1
    76    28    29    1
    77    28    83    1
    78    28    84    1
    79    29    30    1
    80    29    85    1
    81    29    86    1
    82    30    31    1
    83    30    87    1
    84    30    88    1
    85    31    32    1
    86    31    89    1
    87    31    90    1
    88    32    33    1
    89    32    91    1
    90    32    92    1
    91    33    34    1
    92    33    93    1
    93    33    94    1
    94    34    95    1
    95    34    96    1
    96    34    97    1
    97    35    36    1
    98    35    98    1
    99    35    99    1
   100    36    37    1
   101    36   100    1
   102    36   101    1
   103    37    38    1
   104    37   102    1
   105    37   103    1
   106    38    39    1
   107    38   104    1
   108    38   105    1
   109    39    40    1
   110    39   106    1
   111    39   107    1
   112    40    41    1
   113    40   108    1
   114    40   109    1
   115    41    42    1
   116    41   110    1
   117    41   111    1
   118    42   112    1
   119    42   113    1
   120    42   114    1
   121   115   116    1
   122   115   156    1
   123   115   157    1
   124   115   158    1
   125   116   117    1
   126   116   159    1
   127   116   160    1
   128   117   118    1
   129   117   161    1
   130   117   162    1
   131   118   119    1
   132   118   163    1
   133   118   164    1
   134   119   120    1
   135   119   165    1
   136   119   166    1
   137   120   121    1
   138   120   167    1
   139   120   168    1
   140   121   122    1
   141   121   169    1
   142   121   170    1
   143   122   123    1
   144   122   171    1
   145   122   172    1
   146   123   124    1
   147   123   132    1
   148   124   125    1
   149   124   173    1
   150   124   174    1
   151   125   126    1
   152   125   175    1
   153   125   176    1
   154   126   127    1
   155   126   177    1
   156   126   178    1
   157   127   128    1
   158   127   179    1
   159   127   180    1
   160   128   129    1
   161   128   181    1
   162   128   182    1
   163   129   130    1
   164   129   183    1
   165   129   184    1
   166   130   131    1
   167   130   185    1
   168   130   186    1
   169   131   187    1
   170   131   188    1
   171   131   189    1
   172   132   133    2
   173   132   134    1
   174   134   135    1
   175   134   190    1
   176   134   191    1
   177   135   136    1
   178   136   137    1
   179   136   192    1
   180   136   193    1
   181   137   138    2
   182   137   139    1
   183   139   140    1
   184   139   148    1
   185   140   141    1
   186   140   194    1
   187   140   195    1
   188   141   142    1
   189   141   196    1
   190   141   197    1
   191   142   143    1
   192   142   198    1
   193   142   199    1
   194   143   144    1
   195   143   200    1
   196   143   201    1
   197   144   145    1
   198   144   202    1
   199   144   203    1
   200   145   146    1
   201   145   204    1
   202   145   205    1
   203   146   147    1
   204   146   206    1
   205   146   207    1
   206   147   208    1
   207   147   209    1
   208   147   210    1
   209   148   149    1
   210   148   211    1
   211   148   212    1
   212   149   150    1
   213   149   213    1
   214   149   214    1
   215   150   151    1
   216   150   215    1
   217   150   216    1
   218   151   152    1
   219   151   217    1
   220   151   218    1
   221   152   153    1
   222   152   219    1
   223   152   220    1
   224   153   154    1
   225   153   221    1
   226   153   222    1
   227   154   155    1
   228   154   223    1
   229   154   224    1
   230   155   225    1
   231   155   226    1
   232   155   227    1
   233   228   229    2
   234   228   230    1
   235   228   231    1
@<TRIPOS>SUBSTRUCTURE
     1 RES1      231 GROUP             0 ****  ****    0  
