@<TRIPOS>MOLECULE
ICIGOT_geomtry_0_nunpairedes_0_charge_2 Charge: 2 Unpaired_Electrons: 0 XTB_Unpaired_Electrons: 0 XTB_Charge: 2
   135   139     1     0     0
SMALL
NoCharges
****
Generated from Architector

@<TRIPOS>ATOM
     1 Lu1      -0.3598   -0.2340   -0.3131   Lu        1 RES1   0.0000
     2 C1       -2.4827    5.5017    2.6059   C.3       1 RES1   0.0000
     3 C2       -0.9868    5.5247    2.3224   C.3       1 RES1   0.0000
     4 C3       -0.3395    6.8310    2.7797   C.3       1 RES1   0.0000
     5 C4       -0.6891    5.3608    0.8217   C.3       1 RES1   0.0000
     6 N1       -1.1604    4.1687    0.1047   N.am      1 RES1   0.0000
     7 C5       -1.7381    4.3730   -1.2331   C.3       1 RES1   0.0000
     8 C6       -3.2340    4.0388   -1.4156   C.3       1 RES1   0.0000
     9 C7       -3.5435    2.5492   -1.2712   C.3       1 RES1   0.0000
    10 C8       -4.1509    4.8685   -0.5203   C.3       1 RES1   0.0000
    11 C9       -0.7617    2.9459    0.4111   C.2       1 RES1   0.0000
    12 O1       -0.8572    1.9614   -0.3512   O.2       1 RES1   0.0000
    13 C10      -0.1513    2.6715    1.7825   C.3       1 RES1   0.0000
    14 O2        0.3299    1.3372    1.7765   O.3       1 RES1   0.0000
    15 C11       0.2442    0.6759    3.0273   C.3       1 RES1   0.0000
    16 C12      -0.8989   -0.3455    2.9492   C.2       1 RES1   0.0000
    17 O3       -1.4333   -0.4692    1.8284   O.2       1 RES1   0.0000
    18 N2       -1.2619   -0.9980    4.0499   N.am      1 RES1   0.0000
    19 C13      -2.5244   -1.7633    4.0039   C.3       1 RES1   0.0000
    20 C14      -2.5366   -3.2114    3.4709   C.3       1 RES1   0.0000
    21 C15      -1.5914   -4.1561    4.2079   C.3       1 RES1   0.0000
    22 C16      -2.3529   -3.2979    1.9591   C.3       1 RES1   0.0000
    23 C17      -0.7777   -0.5961    5.3820   C.3       1 RES1   0.0000
    24 C18       0.6911   -0.8643    5.7774   C.3       1 RES1   0.0000
    25 C19       1.0002   -0.0302    7.0233   C.3       1 RES1   0.0000
    26 C20       0.9434   -2.3400    6.0706   C.3       1 RES1   0.0000
    27 H1       -2.6664    5.6755    3.6619   H         1 RES1   0.0000
    28 H2       -2.9908    6.2771    2.0417   H         1 RES1   0.0000
    29 H3       -2.9046    4.5350    2.3394   H         1 RES1   0.0000
    30 H4       -0.5108    4.7460    2.9171   H         1 RES1   0.0000
    31 H5       -0.7544    7.6888    2.2622   H         1 RES1   0.0000
    32 H6       -0.5023    6.9618    3.8442   H         1 RES1   0.0000
    33 H7        0.7339    6.8033    2.6051   H         1 RES1   0.0000
    34 H8       -1.1385    6.2196    0.3227   H         1 RES1   0.0000
    35 H9        0.3955    5.4184    0.6629   H         1 RES1   0.0000
    36 H10      -1.5929    5.4173   -1.5033   H         1 RES1   0.0000
    37 H11      -1.1713    3.7561   -1.9349   H         1 RES1   0.0000
    38 H12      -3.4492    4.3182   -2.4547   H         1 RES1   0.0000
    39 H13      -3.3787    2.2014   -0.2506   H         1 RES1   0.0000
    40 H14      -4.5880    2.3700   -1.5157   H         1 RES1   0.0000
    41 H15      -2.9264    1.9627   -1.9501   H         1 RES1   0.0000
    42 H16      -4.0400    4.5949    0.5240   H         1 RES1   0.0000
    43 H17      -3.9561    5.9322   -0.6316   H         1 RES1   0.0000
    44 H18      -5.1870    4.6898   -0.7967   H         1 RES1   0.0000
    45 H19       0.6828    3.3513    1.9908   H         1 RES1   0.0000
    46 H20      -0.9361    2.7955    2.5334   H         1 RES1   0.0000
    47 H21       1.2001    0.1721    3.1760   H         1 RES1   0.0000
    48 H22       0.0808    1.3862    3.8418   H         1 RES1   0.0000
    49 H23      -2.9094   -1.7960    5.0214   H         1 RES1   0.0000
    50 H24      -3.2207   -1.1848    3.3890   H         1 RES1   0.0000
    51 H25      -3.5559   -3.5540    3.6817   H         1 RES1   0.0000
    52 H26      -0.5552   -3.8612    4.0788   H         1 RES1   0.0000
    53 H27      -1.8152   -4.1907    5.2708   H         1 RES1   0.0000
    54 H28      -1.7018   -5.1636    3.8138   H         1 RES1   0.0000
    55 H29      -1.3824   -2.9215    1.6442   H         1 RES1   0.0000
    56 H30      -2.4518   -4.3317    1.6353   H         1 RES1   0.0000
    57 H31      -3.1150   -2.7128    1.4504   H         1 RES1   0.0000
    58 H32      -0.9918    0.4736    5.5046   H         1 RES1   0.0000
    59 H33      -1.3912   -1.1190    6.1165   H         1 RES1   0.0000
    60 H34       1.3771   -0.5504    4.9855   H         1 RES1   0.0000
    61 H35       0.3563   -0.3219    7.8479   H         1 RES1   0.0000
    62 H36       2.0288   -0.1887    7.3335   H         1 RES1   0.0000
    63 H37       0.8629    1.0318    6.8330   H         1 RES1   0.0000
    64 H38       0.2590   -2.7015    6.8319   H         1 RES1   0.0000
    65 H39       0.8238   -2.9403    5.1753   H         1 RES1   0.0000
    66 H40       1.9536   -2.4826    6.4439   H         1 RES1   0.0000
    67 C21       0.4070   -4.3509   -0.6091   C.3       1 RES1   0.0000
    68 C22       1.1607   -5.0654    0.5122   C.3       1 RES1   0.0000
    69 C23       2.4537   -5.6608   -0.0345   C.3       1 RES1   0.0000
    70 C24       1.3603   -4.2588    1.8151   C.3       1 RES1   0.0000
    71 N3        2.3061   -3.1314    1.8390   N.am      1 RES1   0.0000
    72 C25       3.3079   -3.1048    2.9077   C.3       1 RES1   0.0000
    73 C26       4.7914   -3.0653    2.5071   C.3       1 RES1   0.0000
    74 C27       5.2236   -4.3664    1.8456   C.3       1 RES1   0.0000
    75 C28       5.6112   -2.7953    3.7668   C.3       1 RES1   0.0000
    76 C29       1.9742   -2.0221    1.1883   C.2       1 RES1   0.0000
    77 O4        0.8888   -1.8562    0.6081   O.2       1 RES1   0.0000
    78 C30       2.9631   -0.8529    1.1254   C.3       1 RES1   0.0000
    79 O5        2.2844    0.2387    0.5201   O.3       1 RES1   0.0000
    80 C31       3.0421    0.9992   -0.4093   C.3       1 RES1   0.0000
    81 C32       2.4052    0.8364   -1.8035   C.2       1 RES1   0.0000
    82 O6        1.3411    0.1848   -1.8417   O.2       1 RES1   0.0000
    83 N4        2.9957    1.3829   -2.8591   N.am      1 RES1   0.0000
    84 C33       2.4169    1.1525   -4.1940   C.3       1 RES1   0.0000
    85 C34       1.2778    2.0602   -4.7134   C.3       1 RES1   0.0000
    86 C35       1.6473    3.5325   -4.8876   C.3       1 RES1   0.0000
    87 C36      -0.0125    1.9291   -3.9120   C.3       1 RES1   0.0000
    88 C37       4.3742    1.8794   -2.8379   C.3       1 RES1   0.0000
    89 C38       4.5537    3.3874   -3.0693   C.3       1 RES1   0.0000
    90 C39       6.0506    3.6973   -3.0937   C.3       1 RES1   0.0000
    91 C40       3.8530    4.1949   -1.9784   C.3       1 RES1   0.0000
    92 H41       0.1854   -5.0701   -1.3948   H         1 RES1   0.0000
    93 H42      -0.5343   -3.9417   -0.2529   H         1 RES1   0.0000
    94 H43       0.9951   -3.5482   -1.0554   H         1 RES1   0.0000
    95 H44       0.5260   -5.9010    0.8344   H         1 RES1   0.0000
    96 H45       3.1000   -4.8845   -0.4395   H         1 RES1   0.0000
    97 H46       2.9883   -6.2186    0.7299   H         1 RES1   0.0000
    98 H47       2.2163   -6.3455   -0.8451   H         1 RES1   0.0000
    99 H48       0.3832   -3.8791    2.1195   H         1 RES1   0.0000
   100 H49       1.7056   -4.9660    2.5674   H         1 RES1   0.0000
   101 H50       3.0793   -2.2454    3.5502   H         1 RES1   0.0000
   102 H51       3.1575   -3.9996    3.5135   H         1 RES1   0.0000
   103 H52       4.9784   -2.2457    1.8096   H         1 RES1   0.0000
   104 H53       5.0463   -5.2110    2.5047   H         1 RES1   0.0000
   105 H54       4.6849   -4.5219    0.9184   H         1 RES1   0.0000
   106 H55       6.2840   -4.3288    1.6205   H         1 RES1   0.0000
   107 H56       5.4727   -3.5893    4.4943   H         1 RES1   0.0000
   108 H57       6.6646   -2.7478    3.5138   H         1 RES1   0.0000
   109 H58       5.3282   -1.8492    4.2230   H         1 RES1   0.0000
   110 H59       3.3197   -0.5532    2.1196   H         1 RES1   0.0000
   111 H60       3.8245   -1.1651    0.5280   H         1 RES1   0.0000
   112 H61       2.9985    2.0502   -0.1023   H         1 RES1   0.0000
   113 H62       4.0819    0.6673   -0.4059   H         1 RES1   0.0000
   114 H63       3.2358    1.2269   -4.9079   H         1 RES1   0.0000
   115 H64       2.0405    0.1256   -4.2015   H         1 RES1   0.0000
   116 H65       1.0762    1.6673   -5.7174   H         1 RES1   0.0000
   117 H66       1.8341    4.0203   -3.9352   H         1 RES1   0.0000
   118 H67       2.5162    3.6463   -5.5311   H         1 RES1   0.0000
   119 H68       0.8210    4.0551   -5.3658   H         1 RES1   0.0000
   120 H69       0.1178    2.2934   -2.8935   H         1 RES1   0.0000
   121 H70      -0.8002    2.5068   -4.3922   H         1 RES1   0.0000
   122 H71      -0.3335    0.8918   -3.8692   H         1 RES1   0.0000
   123 H72       4.8561    1.6417   -1.8908   H         1 RES1   0.0000
   124 H73       4.9127    1.3328   -3.6179   H         1 RES1   0.0000
   125 H74       4.1363    3.6503   -4.0414   H         1 RES1   0.0000
   126 H75       6.5101    3.4653   -2.1351   H         1 RES1   0.0000
   127 H76       6.5545    3.1241   -3.8682   H         1 RES1   0.0000
   128 H77       6.2103    4.7512   -3.3002   H         1 RES1   0.0000
   129 H78       4.3249    4.0152   -1.0141   H         1 RES1   0.0000
   130 H79       3.9300    5.2567   -2.1955   H         1 RES1   0.0000
   131 H80       2.7978    3.9320   -1.9118   H         1 RES1   0.0000
   132 N5       -2.1019   -1.2021   -1.7287   N.3       1 RES1   0.0000
   133 O7       -3.0402   -1.6162   -2.3164   O.2       1 RES1   0.0000
   134 O8       -1.6081   -1.8030   -0.7511   O.co2     1 RES1   0.0000
   135 O9       -1.5384   -0.1358   -2.0338   O.co2     1 RES1   0.0000
@<TRIPOS>BOND
     1     1    12    1
     2     1    14    1
     3     1    17    1
     4     1    77    1
     5     1    79    1
     6     1    82    1
     7     1   134    1
     8     1   135    1
     9     2     3    1
    10     2    27    1
    11     2    28    1
    12     2    29    1
    13     3     4    1
    14     3     5    1
    15     3    30    1
    16     4    31    1
    17     4    32    1
    18     4    33    1
    19     5     6    1
    20     5    34    1
    21     5    35    1
    22     6     7    1
    23     6    11    1
    24     7     8    1
    25     7    36    1
    26     7    37    1
    27     8     9    1
    28     8    10    1
    29     8    38    1
    30     9    39    1
    31     9    40    1
    32     9    41    1
    33    10    42    1
    34    10    43    1
    35    10    44    1
    36    11    12    2
    37    11    13    1
    38    13    14    1
    39    13    45    1
    40    13    46    1
    41    14    15    1
    42    15    16    1
    43    15    47    1
    44    15    48    1
    45    16    17    2
    46    16    18    1
    47    18    19    1
    48    18    23    1
    49    19    20    1
    50    19    49    1
    51    19    50    1
    52    20    21    1
    53    20    22    1
    54    20    51    1
    55    21    52    1
    56    21    53    1
    57    21    54    1
    58    22    55    1
    59    22    56    1
    60    22    57    1
    61    23    24    1
    62    23    58    1
    63    23    59    1
    64    24    25    1
    65    24    26    1
    66    24    60    1
    67    25    61    1
    68    25    62    1
    69    25    63    1
    70    26    64    1
    71    26    65    1
    72    26    66    1
    73    67    68    1
    74    67    92    1
    75    67    93    1
    76    67    94    1
    77    68    69    1
    78    68    70    1
    79    68    95    1
    80    69    96    1
    81    69    97    1
    82    69    98    1
    83    70    71    1
    84    70    99    1
    85    70   100    1
    86    71    72    1
    87    71    76    1
    88    72    73    1
    89    72   101    1
    90    72   102    1
    91    73    74    1
    92    73    75    1
    93    73   103    1
    94    74   104    1
    95    74   105    1
    96    74   106    1
    97    75   107    1
    98    75   108    1
    99    75   109    1
   100    76    77    2
   101    76    78    1
   102    78    79    1
   103    78   110    1
   104    78   111    1
   105    79    80    1
   106    80    81    1
   107    80   112    1
   108    80   113    1
   109    81    82    2
   110    81    83    1
   111    83    84    1
   112    83    88    1
   113    84    85    1
   114    84   114    1
   115    84   115    1
   116    85    86    1
   117    85    87    1
   118    85   116    1
   119    86   117    1
   120    86   118    1
   121    86   119    1
   122    87   120    1
   123    87   121    1
   124    87   122    1
   125    88    89    1
   126    88   123    1
   127    88   124    1
   128    89    90    1
   129    89    91    1
   130    89   125    1
   131    90   126    1
   132    90   127    1
   133    90   128    1
   134    91   129    1
   135    91   130    1
   136    91   131    1
   137   132   133    2
   138   132   134    1
   139   132   135    1
@<TRIPOS>SUBSTRUCTURE
     1 RES1      135 GROUP             0 ****  ****    0  
