@<TRIPOS>MOLECULE
YEMSEP_geometry_0_nunpairedes_0_charge_2 Charge: 2 Unpaired_Electrons: 0 XTB_Unpaired_Electrons: 0 XTB_Charge: 2
   231   235     1     0     0
SMALL
NoCharges
****
Generated from Architector

@<TRIPOS>ATOM
     1 Lu1      -0.0772    0.2620    0.1781   Lu        1 RES1   0.0000
     2 C1        8.6445   -2.7978    4.4413   C.3       1 RES1   0.0000
     3 C2        7.3625   -2.2203    3.8558   C.3       1 RES1   0.0000
     4 C3        6.1034   -2.9690    4.3009   C.3       1 RES1   0.0000
     5 C4        5.7756   -2.8161    5.7910   C.3       1 RES1   0.0000
     6 C5        4.2988   -3.0203    6.1544   C.3       1 RES1   0.0000
     7 C6        3.7654   -4.4489    6.0186   C.3       1 RES1   0.0000
     8 C7        3.3973   -4.8869    4.5958   C.3       1 RES1   0.0000
     9 C8        2.1049   -4.2400    4.0885   C.3       1 RES1   0.0000
    10 C9        1.8812   -4.3849    2.5806   C.3       1 RES1   0.0000
    11 C10       2.7853   -3.4732    1.7442   C.3       1 RES1   0.0000
    12 N1        2.4088   -3.5357    0.3316   N.am      1 RES1   0.0000
    13 C11       2.6711   -4.7818   -0.3890   C.3       1 RES1   0.0000
    14 C12       4.0563   -5.4009   -0.1598   C.3       1 RES1   0.0000
    15 C13       5.2131   -4.5840   -0.7329   C.3       1 RES1   0.0000
    16 C14       6.5818   -5.1913   -0.4010   C.3       1 RES1   0.0000
    17 C15       7.7307   -4.1965   -0.6025   C.3       1 RES1   0.0000
    18 C16       8.0054   -3.8004   -2.0573   C.3       1 RES1   0.0000
    19 C17       8.7740   -2.4783   -2.1462   C.3       1 RES1   0.0000
    20 C18       8.8067   -1.9313   -3.5739   C.3       1 RES1   0.0000
    21 C19       9.6325   -0.6545   -3.7730   C.3       1 RES1   0.0000
    22 C20       9.2132    0.5454   -2.9292   C.3       1 RES1   0.0000
    23 C21       1.6304   -2.5689   -0.1322   C.2       1 RES1   0.0000
    24 O1        1.3509   -1.5470    0.5336   O.2       1 RES1   0.0000
    25 C22       0.9920   -2.6735   -1.5213   C.3       1 RES1   0.0000
    26 O2        0.3357   -1.4478   -1.8122   O.3       1 RES1   0.0000
    27 C23       0.8403   -0.6869   -2.9033   C.3       1 RES1   0.0000
    28 C24       1.3102    0.6829   -2.4049   C.2       1 RES1   0.0000
    29 O3        1.4393    0.8426   -1.1671   O.2       1 RES1   0.0000
    30 N2        1.5254    1.6508   -3.2781   N.am      1 RES1   0.0000
    31 C25       1.6168    1.3938   -4.7139   C.3       1 RES1   0.0000
    32 C26       2.9404    0.6944   -5.0869   C.3       1 RES1   0.0000
    33 C27       2.8877   -0.1994   -6.3310   C.3       1 RES1   0.0000
    34 C28       2.0530   -1.4666   -6.1407   C.3       1 RES1   0.0000
    35 C29       2.0813   -2.4210   -7.3386   C.3       1 RES1   0.0000
    36 C30       1.0446   -3.5294   -7.1605   C.3       1 RES1   0.0000
    37 C31       1.7882    3.0024   -2.7749   C.3       1 RES1   0.0000
    38 C32       3.2583    3.4094   -2.8734   C.3       1 RES1   0.0000
    39 C33       3.5156    4.7292   -2.1297   C.3       1 RES1   0.0000
    40 C34       3.8608    4.4942   -0.6590   C.3       1 RES1   0.0000
    41 C35       4.0159    5.8017    0.1138   C.3       1 RES1   0.0000
    42 C36       4.4379    5.5826    1.5616   C.3       1 RES1   0.0000
    43 H1        9.5037   -2.2184    4.1173   H         1 RES1   0.0000
    44 H2        8.7885   -3.8224    4.1138   H         1 RES1   0.0000
    45 H3        8.6237   -2.7849    5.5259   H         1 RES1   0.0000
    46 H4        7.4201   -2.2718    2.7654   H         1 RES1   0.0000
    47 H5        7.2808   -1.1660    4.1274   H         1 RES1   0.0000
    48 H6        6.2452   -4.0240    4.0575   H         1 RES1   0.0000
    49 H7        5.2599   -2.5892    3.7202   H         1 RES1   0.0000
    50 H8        6.0442   -1.8039    6.1102   H         1 RES1   0.0000
    51 H9        6.3750   -3.5109    6.3788   H         1 RES1   0.0000
    52 H10       3.6854   -2.3415    5.5590   H         1 RES1   0.0000
    53 H11       4.1820   -2.7246    7.1992   H         1 RES1   0.0000
    54 H12       2.8816   -4.5569    6.6543   H         1 RES1   0.0000
    55 H13       4.5202   -5.1307    6.4078   H         1 RES1   0.0000
    56 H14       3.2759   -5.9709    4.5993   H         1 RES1   0.0000
    57 H15       4.2231   -4.6656    3.9258   H         1 RES1   0.0000
    58 H16       2.0935   -3.1780    4.3407   H         1 RES1   0.0000
    59 H17       1.2618   -4.7071    4.6001   H         1 RES1   0.0000
    60 H18       0.8422   -4.1305    2.3455   H         1 RES1   0.0000
    61 H19       2.0380   -5.4267    2.2937   H         1 RES1   0.0000
    62 H20       3.8287   -3.7541    1.8529   H         1 RES1   0.0000
    63 H21       2.6722   -2.4333    2.0539   H         1 RES1   0.0000
    64 H22       2.5464   -4.6042   -1.4569   H         1 RES1   0.0000
    65 H23       1.9203   -5.5191   -0.0879   H         1 RES1   0.0000
    66 H24       4.0440   -6.3743   -0.6508   H         1 RES1   0.0000
    67 H25       4.2149   -5.5873    0.9021   H         1 RES1   0.0000
    68 H26       5.1753   -3.5624   -0.3506   H         1 RES1   0.0000
    69 H27       5.1024   -4.5366   -1.8157   H         1 RES1   0.0000
    70 H28       6.7481   -6.0835   -1.0032   H         1 RES1   0.0000
    71 H29       6.5959   -5.5013    0.6446   H         1 RES1   0.0000
    72 H30       8.6388   -4.6262   -0.1765   H         1 RES1   0.0000
    73 H31       7.5044   -3.2932   -0.0294   H         1 RES1   0.0000
    74 H32       7.0640   -3.7079   -2.6043   H         1 RES1   0.0000
    75 H33       8.5785   -4.5862   -2.5523   H         1 RES1   0.0000
    76 H34       9.7918   -2.6315   -1.7892   H         1 RES1   0.0000
    77 H35       8.2982   -1.7529   -1.4834   H         1 RES1   0.0000
    78 H36       7.7835   -1.7468   -3.9072   H         1 RES1   0.0000
    79 H37       9.2307   -2.6931   -4.2262   H         1 RES1   0.0000
    80 H38       9.5501   -0.3802   -4.8278   H         1 RES1   0.0000
    81 H39      10.6812   -0.8703   -3.5682   H         1 RES1   0.0000
    82 H40       8.1925    0.8506   -3.1525   H         1 RES1   0.0000
    83 H41       9.8678    1.3870   -3.1451   H         1 RES1   0.0000
    84 H42       9.2934    0.3247   -1.8680   H         1 RES1   0.0000
    85 H43       0.2210   -3.4571   -1.5082   H         1 RES1   0.0000
    86 H44       1.7209   -2.9160   -2.2975   H         1 RES1   0.0000
    87 H45       0.0122   -0.5521   -3.6087   H         1 RES1   0.0000
    88 H46       1.6578   -1.2062   -3.4098   H         1 RES1   0.0000
    89 H47       1.5508    2.3463   -5.2336   H         1 RES1   0.0000
    90 H48       0.7633    0.7869   -5.0248   H         1 RES1   0.0000
    91 H49       3.2720    0.0932   -4.2427   H         1 RES1   0.0000
    92 H50       3.7079    1.4479   -5.2490   H         1 RES1   0.0000
    93 H51       3.9139   -0.4794   -6.5762   H         1 RES1   0.0000
    94 H52       2.4968    0.3695   -7.1752   H         1 RES1   0.0000
    95 H53       1.0116   -1.1920   -5.9567   H         1 RES1   0.0000
    96 H54       2.4222   -2.0165   -5.2694   H         1 RES1   0.0000
    97 H55       3.0744   -2.8634   -7.4452   H         1 RES1   0.0000
    98 H56       1.8640   -1.8700   -8.2556   H         1 RES1   0.0000
    99 H57       1.2074   -4.0670   -6.2256   H         1 RES1   0.0000
   100 H58       1.1014   -4.2426   -7.9779   H         1 RES1   0.0000
   101 H59       0.0414   -3.1056   -7.1469   H         1 RES1   0.0000
   102 H60       1.4660    3.0305   -1.7284   H         1 RES1   0.0000
   103 H61       1.1631    3.7016   -3.3418   H         1 RES1   0.0000
   104 H62       3.5415    3.5029   -3.9207   H         1 RES1   0.0000
   105 H63       3.8715    2.6328   -2.4186   H         1 RES1   0.0000
   106 H64       2.6353    5.3700   -2.2010   H         1 RES1   0.0000
   107 H65       4.3429    5.2539   -2.6055   H         1 RES1   0.0000
   108 H66       4.8002    3.9380   -0.6077   H         1 RES1   0.0000
   109 H67       3.0795    3.8915   -0.1890   H         1 RES1   0.0000
   110 H68       3.0698    6.3459    0.1008   H         1 RES1   0.0000
   111 H69       4.7546    6.4321   -0.3855   H         1 RES1   0.0000
   112 H70       3.7058    4.9790    2.0925   H         1 RES1   0.0000
   113 H71       4.5172    6.5373    2.0743   H         1 RES1   0.0000
   114 H72       5.3967    5.0739    1.6145   H         1 RES1   0.0000
   115 C37       0.0149    5.8613    0.2929   C.3       1 RES1   0.0000
   116 C38       0.4332    4.9228    1.4189   C.3       1 RES1   0.0000
   117 C39      -0.5047    5.0197    2.6202   C.3       1 RES1   0.0000
   118 C40      -0.1888    3.9476    3.6614   C.3       1 RES1   0.0000
   119 C41      -0.9610    4.1715    4.9621   C.3       1 RES1   0.0000
   120 C42      -0.7151    3.0919    6.0192   C.3       1 RES1   0.0000
   121 C43      -1.4277    1.7825    5.6846   C.3       1 RES1   0.0000
   122 C44      -1.1438    0.6694    6.6978   C.3       1 RES1   0.0000
   123 C45      -1.4029   -0.7286    6.1264   C.3       1 RES1   0.0000
   124 C46      -0.1939   -1.3510    5.4108   C.3       1 RES1   0.0000
   125 N3        0.3349   -0.5556    4.3129   N.am      1 RES1   0.0000
   126 C47       1.4685    0.3342    4.5822   C.3       1 RES1   0.0000
   127 C48       2.7240   -0.1043    3.8286   C.3       1 RES1   0.0000
   128 C49       3.8720    0.8971    4.0410   C.3       1 RES1   0.0000
   129 C50       4.3072    1.5724    2.7386   C.3       1 RES1   0.0000
   130 C51       5.1384    0.6274    1.8750   C.3       1 RES1   0.0000
   131 C52       5.4816    1.2288    0.5176   C.3       1 RES1   0.0000
   132 C53       6.3223    0.2731   -0.3455   C.3       1 RES1   0.0000
   133 C54       5.7921    0.1467   -1.7745   C.3       1 RES1   0.0000
   134 C55       4.4614   -0.6244   -1.8262   C.3       1 RES1   0.0000
   135 C56       4.5571   -1.8585   -2.7238   C.3       1 RES1   0.0000
   136 C57      -0.1795   -0.5032    3.0964   C.2       1 RES1   0.0000
   137 O4        0.2465    0.3100    2.2509   O.2       1 RES1   0.0000
   138 C58      -1.3020   -1.4801    2.7136   C.3       1 RES1   0.0000
   139 O5       -1.4314   -1.5591    1.2886   O.3       1 RES1   0.0000
   140 C59      -2.7691   -1.4258    0.8106   C.3       1 RES1   0.0000
   141 C60      -3.1154    0.0704    0.7587   C.2       1 RES1   0.0000
   142 O6       -2.1802    0.8501    1.0256   O.2       1 RES1   0.0000
   143 N4       -4.3320    0.4819    0.4687   N.am      1 RES1   0.0000
   144 C61      -4.6035    1.9203    0.5028   C.3       1 RES1   0.0000
   145 C62      -4.4482    2.5386    1.8944   C.3       1 RES1   0.0000
   146 C63      -5.2178    1.8002    2.9873   C.3       1 RES1   0.0000
   147 C64      -5.1209    2.5430    4.3193   C.3       1 RES1   0.0000
   148 C65      -5.6441    1.7136    5.4895   C.3       1 RES1   0.0000
   149 C66      -5.5134    2.4552    6.8148   C.3       1 RES1   0.0000
   150 C67      -5.4154   -0.3710    0.0087   C.3       1 RES1   0.0000
   151 C68      -5.7397   -0.1315   -1.4737   C.3       1 RES1   0.0000
   152 C69      -4.6323   -0.5525   -2.4394   C.3       1 RES1   0.0000
   153 C70      -4.5727   -2.0615   -2.6700   C.3       1 RES1   0.0000
   154 C71      -3.7575   -2.4446   -3.9035   C.3       1 RES1   0.0000
   155 C72      -2.3144   -1.9619   -3.8429   C.3       1 RES1   0.0000
   156 H73       0.7632    5.8778   -0.4969   H         1 RES1   0.0000
   157 H74      -0.1070    6.8741    0.6707   H         1 RES1   0.0000
   158 H75      -0.9298    5.5438   -0.1428   H         1 RES1   0.0000
   159 H76       1.4428    5.1799    1.7442   H         1 RES1   0.0000
   160 H77       0.4487    3.8902    1.0499   H         1 RES1   0.0000
   161 H78      -1.5388    4.9108    2.2846   H         1 RES1   0.0000
   162 H79      -0.4035    6.0107    3.0674   H         1 RES1   0.0000
   163 H80       0.8844    3.9665    3.8769   H         1 RES1   0.0000
   164 H81      -0.4265    2.9722    3.2204   H         1 RES1   0.0000
   165 H82      -2.0312    4.2284    4.7497   H         1 RES1   0.0000
   166 H83      -0.6603    5.1367    5.3735   H         1 RES1   0.0000
   167 H84      -1.0615    3.4539    6.9888   H         1 RES1   0.0000
   168 H85       0.3600    2.9154    6.1069   H         1 RES1   0.0000
   169 H86      -1.1306    1.4666    4.6853   H         1 RES1   0.0000
   170 H87      -2.5030    1.9619    5.6639   H         1 RES1   0.0000
   171 H88      -1.7856    0.8209    7.5671   H         1 RES1   0.0000
   172 H89      -0.1181    0.7359    7.0615   H         1 RES1   0.0000
   173 H90      -2.2658   -0.6830    5.4612   H         1 RES1   0.0000
   174 H91      -1.6498   -1.4067    6.9441   H         1 RES1   0.0000
   175 H92      -0.4632   -2.3491    5.0585   H         1 RES1   0.0000
   176 H93       0.6084   -1.4665    6.1405   H         1 RES1   0.0000
   177 H94       1.6541    0.3342    5.6550   H         1 RES1   0.0000
   178 H95       1.1982    1.3407    4.2578   H         1 RES1   0.0000
   179 H96       2.4890   -0.1727    2.7625   H         1 RES1   0.0000
   180 H97       3.0234   -1.0918    4.1786   H         1 RES1   0.0000
   181 H98       4.7343    0.3925    4.4836   H         1 RES1   0.0000
   182 H99       3.5546    1.6604    4.7508   H         1 RES1   0.0000
   183 H100      4.8917    2.4650    2.9724   H         1 RES1   0.0000
   184 H101      3.4198    1.8961    2.1850   H         1 RES1   0.0000
   185 H102      4.5797   -0.2997    1.7117   H         1 RES1   0.0000
   186 H103      6.0553    0.3745    2.4111   H         1 RES1   0.0000
   187 H104      6.0107    2.1706    0.6691   H         1 RES1   0.0000
   188 H105      4.5460    1.4649    0.0050   H         1 RES1   0.0000
   189 H106      6.3208   -0.7255    0.1059   H         1 RES1   0.0000
   190 H107      7.3609    0.6030   -0.3818   H         1 RES1   0.0000
   191 H108      6.5292   -0.3848   -2.3761   H         1 RES1   0.0000
   192 H109      5.6964    1.1442   -2.2130   H         1 RES1   0.0000
   193 H110      3.6589    0.0318   -2.1641   H         1 RES1   0.0000
   194 H111      4.1965   -0.9397   -0.8159   H         1 RES1   0.0000
   195 H112      4.4487   -1.6120   -3.7779   H         1 RES1   0.0000
   196 H113      3.8063   -2.6028   -2.4678   H         1 RES1   0.0000
   197 H114      5.5341   -2.3136   -2.5969   H         1 RES1   0.0000
   198 H115     -2.2350   -1.1355    3.1727   H         1 RES1   0.0000
   199 H116     -1.0498   -2.4793    3.0917   H         1 RES1   0.0000
   200 H117     -3.4604   -1.9795    1.4530   H         1 RES1   0.0000
   201 H118     -2.7723   -1.8510   -0.1987   H         1 RES1   0.0000
   202 H119     -5.6255    2.0631    0.1601   H         1 RES1   0.0000
   203 H120     -3.9219    2.4245   -0.1873   H         1 RES1   0.0000
   204 H121     -4.8162    3.5637    1.8295   H         1 RES1   0.0000
   205 H122     -3.3915    2.5844    2.1632   H         1 RES1   0.0000
   206 H123     -4.8105    0.7912    3.1039   H         1 RES1   0.0000
   207 H124     -6.2680    1.7015    2.7066   H         1 RES1   0.0000
   208 H125     -5.6890    3.4716    4.2552   H         1 RES1   0.0000
   209 H126     -4.0783    2.8133    4.5034   H         1 RES1   0.0000
   210 H127     -5.0881    0.7732    5.5465   H         1 RES1   0.0000
   211 H128     -6.6919    1.4634    5.3130   H         1 RES1   0.0000
   212 H129     -4.4706    2.6812    7.0332   H         1 RES1   0.0000
   213 H130     -5.9095    1.8528    7.6281   H         1 RES1   0.0000
   214 H131     -6.0646    3.3912    6.7765   H         1 RES1   0.0000
   215 H132     -6.3055   -0.1557    0.6098   H         1 RES1   0.0000
   216 H133     -5.1515   -1.4152    0.1568   H         1 RES1   0.0000
   217 H134     -5.9559    0.9267   -1.6225   H         1 RES1   0.0000
   218 H135     -6.6498   -0.6840   -1.7098   H         1 RES1   0.0000
   219 H136     -3.6693   -0.1840   -2.0829   H         1 RES1   0.0000
   220 H137     -4.8277   -0.0654   -3.3935   H         1 RES1   0.0000
   221 H138     -5.5857   -2.4397   -2.8069   H         1 RES1   0.0000
   222 H139     -4.1554   -2.5656   -1.7957   H         1 RES1   0.0000
   223 H140     -4.2337   -2.0324   -4.7921   H         1 RES1   0.0000
   224 H141     -3.7706   -3.5300   -4.0044   H         1 RES1   0.0000
   225 H142     -2.2789   -0.8765   -3.8660   H         1 RES1   0.0000
   226 H143     -1.7511   -2.3460   -4.6903   H         1 RES1   0.0000
   227 H144     -1.8375   -2.2994   -2.9246   H         1 RES1   0.0000
   228 N5       -1.1943    1.7747   -1.3000   N.3       1 RES1   0.0000
   229 O7       -1.6935    2.4839   -2.1114   O.2       1 RES1   0.0000
   230 O8       -1.3388    0.5339   -1.3805   O.co2     1 RES1   0.0000
   231 O9       -0.5127    2.2062   -0.3710   O.co2     1 RES1   0.0000
@<TRIPOS>BOND
     1     1    24    1
     2     1    26    1
     3     1    29    1
     4     1   137    1
     5     1   139    1
     6     1   142    1
     7     1   230    1
     8     1   231    1
     9     2     3    1
    10     2    43    1
    11     2    44    1
    12     2    45    1
    13     3     4    1
    14     3    46    1
    15     3    47    1
    16     4     5    1
    17     4    48    1
    18     4    49    1
    19     5     6    1
    20     5    50    1
    21     5    51    1
    22     6     7    1
    23     6    52    1
    24     6    53    1
    25     7     8    1
    26     7    54    1
    27     7    55    1
    28     8     9    1
    29     8    56    1
    30     8    57    1
    31     9    10    1
    32     9    58    1
    33     9    59    1
    34    10    11    1
    35    10    60    1
    36    10    61    1
    37    11    12    1
    38    11    62    1
    39    11    63    1
    40    12    13    1
    41    12    23    1
    42    13    14    1
    43    13    64    1
    44    13    65    1
    45    14    15    1
    46    14    66    1
    47    14    67    1
    48    15    16    1
    49    15    68    1
    50    15    69    1
    51    16    17    1
    52    16    70    1
    53    16    71    1
    54    17    18    1
    55    17    72    1
    56    17    73    1
    57    18    19    1
    58    18    74    1
    59    18    75    1
    60    19    20    1
    61    19    76    1
    62    19    77    1
    63    20    21    1
    64    20    78    1
    65    20    79    1
    66    21    22    1
    67    21    80    1
    68    21    81    1
    69    22    82    1
    70    22    83    1
    71    22    84    1
    72    23    24    2
    73    23    25    1
    74    25    26    1
    75    25    85    1
    76    25    86    1
    77    26    27    1
    78    27    28    1
    79    27    87    1
    80    27    88    1
    81    28    29    2
    82    28    30    1
    83    30    31    1
    84    30    37    1
    85    31    32    1
    86    31    89    1
    87    31    90    1
    88    32    33    1
    89    32    91    1
    90    32    92    1
    91    33    34    1
    92    33    93    1
    93    33    94    1
    94    34    35    1
    95    34    95    1
    96    34    96    1
    97    35    36    1
    98    35    97    1
    99    35    98    1
   100    36    99    1
   101    36   100    1
   102    36   101    1
   103    37    38    1
   104    37   102    1
   105    37   103    1
   106    38    39    1
   107    38   104    1
   108    38   105    1
   109    39    40    1
   110    39   106    1
   111    39   107    1
   112    40    41    1
   113    40   108    1
   114    40   109    1
   115    41    42    1
   116    41   110    1
   117    41   111    1
   118    42   112    1
   119    42   113    1
   120    42   114    1
   121   115   116    1
   122   115   156    1
   123   115   157    1
   124   115   158    1
   125   116   117    1
   126   116   159    1
   127   116   160    1
   128   117   118    1
   129   117   161    1
   130   117   162    1
   131   118   119    1
   132   118   163    1
   133   118   164    1
   134   119   120    1
   135   119   165    1
   136   119   166    1
   137   120   121    1
   138   120   167    1
   139   120   168    1
   140   121   122    1
   141   121   169    1
   142   121   170    1
   143   122   123    1
   144   122   171    1
   145   122   172    1
   146   123   124    1
   147   123   173    1
   148   123   174    1
   149   124   125    1
   150   124   175    1
   151   124   176    1
   152   125   126    1
   153   125   136    1
   154   126   127    1
   155   126   177    1
   156   126   178    1
   157   127   128    1
   158   127   179    1
   159   127   180    1
   160   128   129    1
   161   128   181    1
   162   128   182    1
   163   129   130    1
   164   129   183    1
   165   129   184    1
   166   130   131    1
   167   130   185    1
   168   130   186    1
   169   131   132    1
   170   131   187    1
   171   131   188    1
   172   132   133    1
   173   132   189    1
   174   132   190    1
   175   133   134    1
   176   133   191    1
   177   133   192    1
   178   134   135    1
   179   134   193    1
   180   134   194    1
   181   135   195    1
   182   135   196    1
   183   135   197    1
   184   136   137    2
   185   136   138    1
   186   138   139    1
   187   138   198    1
   188   138   199    1
   189   139   140    1
   190   140   141    1
   191   140   200    1
   192   140   201    1
   193   141   142    2
   194   141   143    1
   195   143   144    1
   196   143   150    1
   197   144   145    1
   198   144   202    1
   199   144   203    1
   200   145   146    1
   201   145   204    1
   202   145   205    1
   203   146   147    1
   204   146   206    1
   205   146   207    1
   206   147   148    1
   207   147   208    1
   208   147   209    1
   209   148   149    1
   210   148   210    1
   211   148   211    1
   212   149   212    1
   213   149   213    1
   214   149   214    1
   215   150   151    1
   216   150   215    1
   217   150   216    1
   218   151   152    1
   219   151   217    1
   220   151   218    1
   221   152   153    1
   222   152   219    1
   223   152   220    1
   224   153   154    1
   225   153   221    1
   226   153   222    1
   227   154   155    1
   228   154   223    1
   229   154   224    1
   230   155   225    1
   231   155   226    1
   232   155   227    1
   233   228   229    2
   234   228   230    1
   235   228   231    1
@<TRIPOS>SUBSTRUCTURE
     1 RES1      231 GROUP             0 ****  ****    0  
