@<TRIPOS>MOLECULE
ICIGOT_geomtry_0_nunpairedes_0_charge_2 Charge: 2 Unpaired_Electrons: 0 XTB_Unpaired_Electrons: 0 XTB_Charge: 2
    95   105     1     0     0
SMALL
NoCharges
****
Generated from Architector

@<TRIPOS>ATOM
     1 Lu1      -0.2136    0.0604   -0.1171   Lu        1 RES1   0.0000
     2 C1       -0.6968   -1.8593    4.4427   C.3       1 RES1   0.0000
     3 N1       -0.0035   -0.5882    4.2818   N.am      1 RES1   0.0000
     4 C2       -0.0443    0.0053    3.0839   C.2       1 RES1   0.0000
     5 O1       -0.3920   -0.6228    2.0651   O.2       1 RES1   0.0000
     6 C3        0.2436    1.4679    2.8771   C.ar      1 RES1   0.0000
     7 C4        0.4725    2.4431    3.8414   C.ar      1 RES1   0.0000
     8 C5        0.7013    3.7398    3.4071   C.ar      1 RES1   0.0000
     9 C6        0.6439    4.0418    2.0528   C.ar      1 RES1   0.0000
    10 C7        0.2774    3.0363    1.1566   C.ar      1 RES1   0.0000
    11 C8        0.0512    3.1168   -0.3401   C.2       1 RES1   0.0000
    12 O2       -0.3230    2.0721   -0.9125   O.2       1 RES1   0.0000
    13 N2        0.3194    4.2012   -1.0622   N.am      1 RES1   0.0000
    14 C9        0.3089    4.0693   -2.5113   C.3       1 RES1   0.0000
    15 C10       0.3213    5.5462   -0.6061   C.ar      1 RES1   0.0000
    16 C11       1.2509    6.4512   -1.1020   C.ar      1 RES1   0.0000
    17 C12       1.1663    7.7883   -0.7544   C.ar      1 RES1   0.0000
    18 C13       0.1774    8.2209    0.1128   C.ar      1 RES1   0.0000
    19 C14      -0.7523    7.3213    0.6084   C.ar      1 RES1   0.0000
    20 C15      -0.6958    5.9907    0.2360   C.ar      1 RES1   0.0000
    21 N3        0.1208    1.7805    1.5839   N.ar      1 RES1   0.0000
    22 C16       0.8480   -0.2133    5.3536   C.ar      1 RES1   0.0000
    23 C17       2.1516    0.2082    5.0956   C.ar      1 RES1   0.0000
    24 C18       3.0008    0.5158    6.1431   C.ar      1 RES1   0.0000
    25 C19       2.5696    0.3692    7.4515   C.ar      1 RES1   0.0000
    26 C20       1.2960   -0.1041    7.7106   C.ar      1 RES1   0.0000
    27 C21       0.4321   -0.3890    6.6691   C.ar      1 RES1   0.0000
    28 H1       -1.1166   -2.1637    3.4879   H         1 RES1   0.0000
    29 H2       -1.5118   -1.7498    5.1598   H         1 RES1   0.0000
    30 H3       -0.0033   -2.6178    4.7988   H         1 RES1   0.0000
    31 H4        0.4762    2.2131    4.8930   H         1 RES1   0.0000
    32 H5        0.9300    4.5097    4.1268   H         1 RES1   0.0000
    33 H6        0.8451    5.0459    1.7204   H         1 RES1   0.0000
    34 H7        0.2256    3.0194   -2.7798   H         1 RES1   0.0000
    35 H8        1.2348    4.4806   -2.9060   H         1 RES1   0.0000
    36 H9       -0.5337    4.6156   -2.9326   H         1 RES1   0.0000
    37 H10       2.0358    6.1250   -1.7659   H         1 RES1   0.0000
    38 H11       1.8602    8.4926   -1.1862   H         1 RES1   0.0000
    39 H12       0.1145    9.2600    0.3905   H         1 RES1   0.0000
    40 H13      -1.5443    7.6659    1.2562   H         1 RES1   0.0000
    41 H14      -1.4416    5.2899    0.5824   H         1 RES1   0.0000
    42 H15       2.5038    0.2849    4.0754   H         1 RES1   0.0000
    43 H16       4.0103    0.8354    5.9317   H         1 RES1   0.0000
    44 H17       3.2327    0.5873    8.2698   H         1 RES1   0.0000
    45 H18       0.9762   -0.2751    8.7260   H         1 RES1   0.0000
    46 H19      -0.5622   -0.7434    6.8829   H         1 RES1   0.0000
    47 C22      -2.0171   -4.3555   -0.4071   C.3       1 RES1   0.0000
    48 N4       -0.5817   -4.2136   -0.6041   N.am      1 RES1   0.0000
    49 C23      -0.0401   -3.0305   -0.3181   C.2       1 RES1   0.0000
    50 O3       -0.7691   -2.0468   -0.0757   O.2       1 RES1   0.0000
    51 C24       1.4449   -2.8260   -0.1561   C.ar      1 RES1   0.0000
    52 C25       2.4159   -3.8089    0.0329   C.ar      1 RES1   0.0000
    53 C26       3.7298   -3.4140    0.2284   C.ar      1 RES1   0.0000
    54 C27       4.0452   -2.0578    0.2703   C.ar      1 RES1   0.0000
    55 C28       3.0114   -1.1340    0.1331   C.ar      1 RES1   0.0000
    56 C29       3.0693    0.3744    0.0859   C.2       1 RES1   0.0000
    57 O4        2.0261    0.9129   -0.3507   O.2       1 RES1   0.0000
    58 N5        4.1295    1.1343    0.3985   N.am      1 RES1   0.0000
    59 C30       4.0501    2.5438    0.0176   C.3       1 RES1   0.0000
    60 C31       5.2715    0.8269    1.2008   C.ar      1 RES1   0.0000
    61 C32       6.4645    1.5134    0.9699   C.ar      1 RES1   0.0000
    62 C33       7.5560    1.3627    1.8069   C.ar      1 RES1   0.0000
    63 C34       7.4891    0.4979    2.8842   C.ar      1 RES1   0.0000
    64 C35       6.3152   -0.1956    3.1227   C.ar      1 RES1   0.0000
    65 C36       5.2084   -0.0247    2.3039   C.ar      1 RES1   0.0000
    66 N6        1.7487   -1.5307   -0.0855   N.ar      1 RES1   0.0000
    67 C37       0.0526   -5.2193   -1.3723   C.ar      1 RES1   0.0000
    68 C38       0.9565   -4.8680   -2.3736   C.ar      1 RES1   0.0000
    69 C39       1.5367   -5.8488   -3.1564   C.ar      1 RES1   0.0000
    70 C40       1.1796   -7.1771   -2.9865   C.ar      1 RES1   0.0000
    71 C41       0.2370   -7.5195   -2.0340   C.ar      1 RES1   0.0000
    72 C42      -0.3125   -6.5516   -1.2142   C.ar      1 RES1   0.0000
    73 H20      -2.4159   -3.4436    0.0302   H         1 RES1   0.0000
    74 H21      -2.2107   -5.1846    0.2696   H         1 RES1   0.0000
    75 H22      -2.5082   -4.5444   -1.3582   H         1 RES1   0.0000
    76 H23       2.1520   -4.8519    0.0336   H         1 RES1   0.0000
    77 H24       4.5009   -4.1613    0.3475   H         1 RES1   0.0000
    78 H25       5.0671   -1.7410    0.4056   H         1 RES1   0.0000
    79 H26       3.0736    2.7339   -0.4178   H         1 RES1   0.0000
    80 H27       4.8132    2.7795   -0.7246   H         1 RES1   0.0000
    81 H28       4.1920    3.1743    0.8947   H         1 RES1   0.0000
    82 H29       6.5600    2.1836    0.1330   H         1 RES1   0.0000
    83 H30       8.4458    1.9455    1.6224   H         1 RES1   0.0000
    84 H31       8.3310    0.3812    3.5458   H         1 RES1   0.0000
    85 H32       6.2534   -0.8551    3.9773   H         1 RES1   0.0000
    86 H33       4.2934   -0.5505    2.5405   H         1 RES1   0.0000
    87 H34       1.1766   -3.8275   -2.5668   H         1 RES1   0.0000
    88 H35       2.2356   -5.5681   -3.9291   H         1 RES1   0.0000
    89 H36       1.6026   -7.9414   -3.6157   H         1 RES1   0.0000
    90 H37      -0.0932   -8.5413   -1.9411   H         1 RES1   0.0000
    91 H38      -1.0306   -6.8369   -0.4637   H         1 RES1   0.0000
    92 N7       -2.2030    0.0724   -1.3679   N.3       1 RES1   0.0000
    93 O5       -3.2057    0.0854   -1.9949   O.2       1 RES1   0.0000
    94 O6       -1.1158   -0.2595   -1.8824   O.co2     1 RES1   0.0000
    95 O7       -2.1845    0.3848   -0.1632   O.co2     1 RES1   0.0000
@<TRIPOS>BOND
     1     1     5    1
     2     1    12    1
     3     1    21    1
     4     1    50    1
     5     1    57    1
     6     1    66    1
     7     1    94    1
     8     1    95    1
     9     2     3    1
    10     2    28    1
    11     2    29    1
    12     2    30    1
    13     3     4    1
    14     3    22    1
    15     4     5    2
    16     4     6    1
    17     6     7    1
    18     6    21    2
    19     7     8    2
    20     7    31    1
    21     8     9    1
    22     8    32    1
    23     9    10    2
    24     9    33    1
    25    10    11    1
    26    10    21    1
    27    11    12    2
    28    11    13    1
    29    13    14    1
    30    13    15    1
    31    14    34    1
    32    14    35    1
    33    14    36    1
    34    15    16    1
    35    15    20    2
    36    16    17    2
    37    16    37    1
    38    17    18    1
    39    17    38    1
    40    18    19    2
    41    18    39    1
    42    19    20    1
    43    19    40    1
    44    20    41    1
    45    22    23    1
    46    22    27    2
    47    23    24    2
    48    23    42    1
    49    24    25    1
    50    24    43    1
    51    25    26    2
    52    25    44    1
    53    26    27    1
    54    26    45    1
    55    27    46    1
    56    47    48    1
    57    47    73    1
    58    47    74    1
    59    47    75    1
    60    48    49    1
    61    48    67    1
    62    49    50    2
    63    49    51    1
    64    51    52    1
    65    51    66    2
    66    52    53    2
    67    52    76    1
    68    53    54    1
    69    53    77    1
    70    54    55    2
    71    54    78    1
    72    55    56    1
    73    55    66    1
    74    56    57    2
    75    56    58    1
    76    58    59    1
    77    58    60    1
    78    59    79    1
    79    59    80    1
    80    59    81    1
    81    60    61    1
    82    60    65    2
    83    61    62    2
    84    61    82    1
    85    62    63    1
    86    62    83    1
    87    63    64    2
    88    63    84    1
    89    64    65    1
    90    64    85    1
    91    65    86    1
    92    67    68    1
    93    67    72    2
    94    68    69    2
    95    68    87    1
    96    69    70    1
    97    69    88    1
    98    70    71    2
    99    70    89    1
   100    71    72    1
   101    71    90    1
   102    72    91    1
   103    92    93    2
   104    92    94    1
   105    92    95    1
@<TRIPOS>SUBSTRUCTURE
     1 RES1       95 GROUP             0 ****  ****    0  
