@<TRIPOS>MOLECULE
ICIGOT_geomtry_0_nunpairedes_0_charge_1 Charge: 1 Unpaired_Electrons: 2 XTB_Unpaired_Electrons: 0 XTB_Charge: 1
   119   132     1     0     0
SMALL
NoCharges
****
Generated from Architector

@<TRIPOS>ATOM
     1 Tm1      -0.4330    0.0480   -0.1142   Tm        1 RES1   0.0000
     2 C1       -3.6714   -0.3238    2.1031   C.3       1 RES1   0.0000
     3 C2       -3.6230   -0.2677    3.6269   C.3       1 RES1   0.0000
     4 C3       -2.7259    0.8692    4.1118   C.3       1 RES1   0.0000
     5 C4       -3.2637    2.2348    3.6877   C.3       1 RES1   0.0000
     6 C5       -2.4172    3.4220    4.1493   C.3       1 RES1   0.0000
     7 C6       -1.1532    3.6651    3.3216   C.3       1 RES1   0.0000
     8 N1       -0.0750    2.7111    3.5528   N.ar      1 RES1   0.0000
     9 C7        0.7319    2.7619    4.6712   C.ar      1 RES1   0.0000
    10 C8        0.4840    3.8292    5.6640   C.ar      1 RES1   0.0000
    11 C9        0.7492    5.1597    5.3600   C.ar      1 RES1   0.0000
    12 C10       0.5417    6.1446    6.3089   C.ar      1 RES1   0.0000
    13 C11       0.0814    5.8184    7.5728   C.ar      1 RES1   0.0000
    14 C12      -0.1785    4.4922    7.8768   C.ar      1 RES1   0.0000
    15 C13       0.0226    3.4995    6.9341   C.ar      1 RES1   0.0000
    16 C14       1.7385    1.8592    4.9029   C.ar      1 RES1   0.0000
    17 C15       2.5855    1.9683    6.1182   C.ar      1 RES1   0.0000
    18 C16       2.5534    0.9801    7.0972   C.ar      1 RES1   0.0000
    19 C17       3.3723    1.0724    8.2102   C.ar      1 RES1   0.0000
    20 C18       4.2407    2.1414    8.3537   C.ar      1 RES1   0.0000
    21 C19       4.2647    3.1343    7.3875   C.ar      1 RES1   0.0000
    22 C20       3.4391    3.0561    6.2792   C.ar      1 RES1   0.0000
    23 C21       2.0237    0.8466    3.9278   C.ar      1 RES1   0.0000
    24 C22       3.0460   -0.1185    3.9839   C.ar      1 RES1   0.0000
    25 C23       3.2344   -0.9817    2.9060   C.ar      1 RES1   0.0000
    26 C24       4.2377   -2.0056    2.8314   C.ar      1 RES1   0.0000
    27 C25       4.3596   -2.8168    1.7546   C.ar      1 RES1   0.0000
    28 C26       3.4994   -2.6967    0.6097   C.ar      1 RES1   0.0000
    29 C27       3.5402   -3.5128   -0.5229   C.ar      1 RES1   0.0000
    30 C28       2.6316   -3.2889   -1.5753   C.ar      1 RES1   0.0000
    31 C29       2.4698   -4.0761   -2.7638   C.ar      1 RES1   0.0000
    32 C30       3.3054   -5.2810   -2.9787   C.ar      1 RES1   0.0000
    33 C31       2.7220   -6.5439   -3.0140   C.ar      1 RES1   0.0000
    34 C32       3.5075   -7.6714   -3.1785   C.ar      1 RES1   0.0000
    35 C33       4.8812   -7.5563   -3.3143   C.ar      1 RES1   0.0000
    36 C34       5.4625   -6.2987   -3.2998   C.ar      1 RES1   0.0000
    37 C35       4.6837   -5.1663   -3.1288   C.ar      1 RES1   0.0000
    38 C36       1.4817   -3.7554   -3.6634   C.ar      1 RES1   0.0000
    39 C37       1.3105   -4.5778   -4.8807   C.ar      1 RES1   0.0000
    40 C38       2.3062   -4.5900   -5.8500   C.ar      1 RES1   0.0000
    41 C39       2.1680   -5.3781   -6.9786   C.ar      1 RES1   0.0000
    42 C40       1.0413   -6.1622   -7.1540   C.ar      1 RES1   0.0000
    43 C41       0.0468   -6.1488   -6.1898   C.ar      1 RES1   0.0000
    44 C42       0.1764   -5.3677   -5.0553   C.ar      1 RES1   0.0000
    45 N2        0.6281   -2.6869   -3.4885   N.ar      1 RES1   0.0000
    46 C43      -0.4186   -2.3418   -4.4437   C.3       1 RES1   0.0000
    47 C44       0.0448   -1.5263   -5.6554   C.3       1 RES1   0.0000
    48 C45       0.4222   -0.0575   -5.3845   C.3       1 RES1   0.0000
    49 C46       1.9213    0.2461   -5.3733   C.3       1 RES1   0.0000
    50 C47       2.6885   -0.3431   -4.1964   C.3       1 RES1   0.0000
    51 C48       4.1452    0.0986   -4.2086   C.3       1 RES1   0.0000
    52 C49       0.7016   -1.8993   -2.3938   C.ar      1 RES1   0.0000
    53 O1       -0.0917   -0.9580   -2.1857   O.2       1 RES1   0.0000
    54 C50       1.7251   -2.2164   -1.4158   C.ar      1 RES1   0.0000
    55 N3        1.6703   -1.4377   -0.3445   N.ar      1 RES1   0.0000
    56 C51       2.5184   -1.6747    0.6427   C.ar      1 RES1   0.0000
    57 C52       2.3699   -0.8372    1.7930   C.ar      1 RES1   0.0000
    58 N4        1.3806    0.0417    1.7366   N.ar      1 RES1   0.0000
    59 C53       1.2111    0.8535    2.7699   C.ar      1 RES1   0.0000
    60 C54       0.1004    1.7699    2.5962   C.ar      1 RES1   0.0000
    61 O2       -0.6388    1.6747    1.5941   O.2       1 RES1   0.0000
    62 H1       -4.0803   -1.2748    1.7678   H         1 RES1   0.0000
    63 H2       -2.6526   -0.1933    1.7069   H         1 RES1   0.0000
    64 H3       -4.2937    0.4696    1.6974   H         1 RES1   0.0000
    65 H4       -3.2314   -1.2131    4.0065   H         1 RES1   0.0000
    66 H5       -4.6316   -0.1459    4.0238   H         1 RES1   0.0000
    67 H6       -1.7306    0.7020    3.6977   H         1 RES1   0.0000
    68 H7       -2.6409    0.8307    5.2002   H         1 RES1   0.0000
    69 H8       -4.2609    2.3495    4.1164   H         1 RES1   0.0000
    70 H9       -3.3598    2.2786    2.6023   H         1 RES1   0.0000
    71 H10      -2.1672    3.3124    5.2058   H         1 RES1   0.0000
    72 H11      -3.0093    4.3325    4.0366   H         1 RES1   0.0000
    73 H12      -0.7630    4.6615    3.5228   H         1 RES1   0.0000
    74 H13      -1.4053    3.5877    2.2599   H         1 RES1   0.0000
    75 H14       1.1418    5.4266    4.3885   H         1 RES1   0.0000
    76 H15       0.7335    7.1736    6.0535   H         1 RES1   0.0000
    77 H16      -0.0798    6.5880    8.3158   H         1 RES1   0.0000
    78 H17      -0.5481    4.2445    8.8578   H         1 RES1   0.0000
    79 H18      -0.1830    2.4656    7.1699   H         1 RES1   0.0000
    80 H19       1.8689    0.1478    6.9994   H         1 RES1   0.0000
    81 H20       3.3290    0.3059    8.9686   H         1 RES1   0.0000
    82 H21       4.8964    2.2085    9.2111   H         1 RES1   0.0000
    83 H22       4.9323    3.9727    7.5096   H         1 RES1   0.0000
    84 H23       3.4532    3.8336    5.5283   H         1 RES1   0.0000
    85 H24       3.6819   -0.1946    4.8567   H         1 RES1   0.0000
    86 H25       4.8982   -2.1090    3.6785   H         1 RES1   0.0000
    87 H26       5.1183   -3.5850    1.7256   H         1 RES1   0.0000
    88 H27       4.2506   -4.3280   -0.5761   H         1 RES1   0.0000
    89 H28       1.6519   -6.6458   -2.9035   H         1 RES1   0.0000
    90 H29       3.0422   -8.6445   -3.2044   H         1 RES1   0.0000
    91 H30       5.5001   -8.4359   -3.4309   H         1 RES1   0.0000
    92 H31       6.5301   -6.2128   -3.4269   H         1 RES1   0.0000
    93 H32       5.1289   -4.1806   -3.1343   H         1 RES1   0.0000
    94 H33       3.1859   -3.9761   -5.7208   H         1 RES1   0.0000
    95 H34       2.9426   -5.3696   -7.7274   H         1 RES1   0.0000
    96 H35       0.9280   -6.7771   -8.0357   H         1 RES1   0.0000
    97 H36      -0.8371   -6.7472   -6.3369   H         1 RES1   0.0000
    98 H37      -0.5885   -5.3854   -4.2895   H         1 RES1   0.0000
    99 H38      -1.1507   -1.7498   -3.8871   H         1 RES1   0.0000
   100 H39      -0.8841   -3.2690   -4.7756   H         1 RES1   0.0000
   101 H40      -0.8177   -1.5419   -6.3246   H         1 RES1   0.0000
   102 H41       0.8659   -2.0356   -6.1630   H         1 RES1   0.0000
   103 H42      -0.0287    0.2825   -4.4498   H         1 RES1   0.0000
   104 H43      -0.0088    0.5397   -6.1902   H         1 RES1   0.0000
   105 H44       2.0451    1.3298   -5.3453   H         1 RES1   0.0000
   106 H45       2.3647   -0.1078   -6.3067   H         1 RES1   0.0000
   107 H46       2.6618   -1.4323   -4.2459   H         1 RES1   0.0000
   108 H47       2.2246   -0.0174   -3.2615   H         1 RES1   0.0000
   109 H48       4.6238   -0.2030   -5.1381   H         1 RES1   0.0000
   110 H49       4.6914   -0.3470   -3.3789   H         1 RES1   0.0000
   111 H50       4.2123    1.1798   -4.1242   H         1 RES1   0.0000
   112 N5       -1.7819   -1.9635    0.2244   N.3       1 RES1   0.0000
   113 O3       -2.3135   -3.0231    0.3055   O.2       1 RES1   0.0000
   114 O4       -2.1836   -1.0829   -0.5408   O.co2     1 RES1   0.0000
   115 O5       -0.7797   -1.6980    0.9270   O.co2     1 RES1   0.0000
   116 N6       -0.3542    1.9480   -1.5466   N.3       1 RES1   0.0000
   117 O6       -0.2922    2.7614   -2.4104   O.2       1 RES1   0.0000
   118 O7       -1.4371    1.5656   -1.0827   O.co2     1 RES1   0.0000
   119 O8        0.6834    1.4549   -1.0576   O.co2     1 RES1   0.0000
@<TRIPOS>BOND
     1     1    53    1
     2     1    55    1
     3     1    58    1
     4     1    61    1
     5     1   114    1
     6     1   115    1
     7     1   118    1
     8     1   119    1
     9     2     3    1
    10     2    62    1
    11     2    63    1
    12     2    64    1
    13     3     4    1
    14     3    65    1
    15     3    66    1
    16     4     5    1
    17     4    67    1
    18     4    68    1
    19     5     6    1
    20     5    69    1
    21     5    70    1
    22     6     7    1
    23     6    71    1
    24     6    72    1
    25     7     8    1
    26     7    73    1
    27     7    74    1
    28     8     9    1
    29     8    60    1
    30     9    10    1
    31     9    16    2
    32    10    11    1
    33    10    15    2
    34    11    12    2
    35    11    75    1
    36    12    13    1
    37    12    76    1
    38    13    14    2
    39    13    77    1
    40    14    15    1
    41    14    78    1
    42    15    79    1
    43    16    17    1
    44    16    23    1
    45    17    18    1
    46    17    22    2
    47    18    19    2
    48    18    80    1
    49    19    20    1
    50    19    81    1
    51    20    21    2
    52    20    82    1
    53    21    22    1
    54    21    83    1
    55    22    84    1
    56    23    24    1
    57    23    59    2
    58    24    25    2
    59    24    85    1
    60    25    26    1
    61    25    57    1
    62    26    27    2
    63    26    86    1
    64    27    28    1
    65    27    87    1
    66    28    29    1
    67    28    56    2
    68    29    30    2
    69    29    88    1
    70    30    31    1
    71    30    54    1
    72    31    32    1
    73    31    38    2
    74    32    33    1
    75    32    37    2
    76    33    34    2
    77    33    89    1
    78    34    35    1
    79    34    90    1
    80    35    36    2
    81    35    91    1
    82    36    37    1
    83    36    92    1
    84    37    93    1
    85    38    39    1
    86    38    45    1
    87    39    40    1
    88    39    44    2
    89    40    41    2
    90    40    94    1
    91    41    42    1
    92    41    95    1
    93    42    43    2
    94    42    96    1
    95    43    44    1
    96    43    97    1
    97    44    98    1
    98    45    46    1
    99    45    52    1
   100    46    47    1
   101    46    99    1
   102    46   100    1
   103    47    48    1
   104    47   101    1
   105    47   102    1
   106    48    49    1
   107    48   103    1
   108    48   104    1
   109    49    50    1
   110    49   105    1
   111    49   106    1
   112    50    51    1
   113    50   107    1
   114    50   108    1
   115    51   109    1
   116    51   110    1
   117    51   111    1
   118    52    53    2
   119    52    54    1
   120    54    55    2
   121    55    56    1
   122    56    57    1
   123    57    58    2
   124    58    59    1
   125    59    60    1
   126    60    61    2
   127   112   113    2
   128   112   114    1
   129   112   115    1
   130   116   117    2
   131   116   118    1
   132   116   119    1
@<TRIPOS>SUBSTRUCTURE
     1 RES1      119 GROUP             0 ****  ****    0  
