@<TRIPOS>MOLECULE
ICIGOT_geomtry_0_nunpairedes_0_charge_1 Charge: 1 Unpaired_Electrons: 5 XTB_Unpaired_Electrons: 0 XTB_Charge: 1
   119   132     1     0     0
SMALL
NoCharges
****
Generated from Architector

@<TRIPOS>ATOM
     1 Dy1      -0.4254    0.0280   -0.0561   Dy        1 RES1   0.0000
     2 C1       -1.7912    0.1366    6.4936   C.3       1 RES1   0.0000
     3 C2       -2.2561    1.4182    5.8151   C.3       1 RES1   0.0000
     4 C3       -2.0702    1.3491    4.3019   C.3       1 RES1   0.0000
     5 C4       -2.5429    2.6060    3.5635   C.3       1 RES1   0.0000
     6 C5       -1.7413    3.8872    3.8373   C.3       1 RES1   0.0000
     7 C6       -0.4548    4.0594    3.0254   C.3       1 RES1   0.0000
     8 N1        0.5435    3.0306    3.2872   N.ar      1 RES1   0.0000
     9 C7        1.4930    3.1459    4.2775   C.ar      1 RES1   0.0000
    10 C8        1.5082    4.4090    5.0550   C.ar      1 RES1   0.0000
    11 C9        2.1880    5.5103    4.5443   C.ar      1 RES1   0.0000
    12 C10       2.2025    6.7022    5.2459   C.ar      1 RES1   0.0000
    13 C11       1.5443    6.8054    6.4599   C.ar      1 RES1   0.0000
    14 C12       0.8698    5.7088    6.9704   C.ar      1 RES1   0.0000
    15 C13       0.8531    4.5115    6.2755   C.ar      1 RES1   0.0000
    16 C14       2.4370    2.1812    4.5219   C.ar      1 RES1   0.0000
    17 C15       3.4442    2.3756    5.6014   C.ar      1 RES1   0.0000
    18 C16       3.1388    2.0704    6.9225   C.ar      1 RES1   0.0000
    19 C17       4.0843    2.2478    7.9186   C.ar      1 RES1   0.0000
    20 C18       5.3425    2.7341    7.6074   C.ar      1 RES1   0.0000
    21 C19       5.6485    3.0520    6.2942   C.ar      1 RES1   0.0000
    22 C20       4.7076    2.8726    5.2941   C.ar      1 RES1   0.0000
    23 C21       2.4900    1.0188    3.6876   C.ar      1 RES1   0.0000
    24 C22       3.4129   -0.0376    3.7746   C.ar      1 RES1   0.0000
    25 C23       3.3872   -1.0521    2.8204   C.ar      1 RES1   0.0000
    26 C24       4.2843   -2.1726    2.7784   C.ar      1 RES1   0.0000
    27 C25       4.2719   -3.0632    1.7595   C.ar      1 RES1   0.0000
    28 C26       3.3763   -2.9316    0.6466   C.ar      1 RES1   0.0000
    29 C27       3.3923   -3.7304   -0.4945   C.ar      1 RES1   0.0000
    30 C28       2.5440   -3.4143   -1.5688   C.ar      1 RES1   0.0000
    31 C29       2.5092   -4.0782   -2.8344   C.ar      1 RES1   0.0000
    32 C30       3.3578   -5.2752   -3.0726   C.ar      1 RES1   0.0000
    33 C31       4.6893   -5.1373   -3.4442   C.ar      1 RES1   0.0000
    34 C32       5.4785   -6.2582   -3.6379   C.ar      1 RES1   0.0000
    35 C33       4.9480   -7.5245   -3.4573   C.ar      1 RES1   0.0000
    36 C34       3.6175   -7.6665   -3.0970   C.ar      1 RES1   0.0000
    37 C35       2.8232   -6.5485   -2.9076   C.ar      1 RES1   0.0000
    38 C36       1.6819   -3.6083   -3.8197   C.ar      1 RES1   0.0000
    39 C37       1.7033   -4.2711   -5.1472   C.ar      1 RES1   0.0000
    40 C38       2.6585   -3.8828   -6.0790   C.ar      1 RES1   0.0000
    41 C39       2.7117   -4.4949   -7.3180   C.ar      1 RES1   0.0000
    42 C40       1.8246   -5.5102   -7.6311   C.ar      1 RES1   0.0000
    43 C41       0.8787   -5.9072   -6.7001   C.ar      1 RES1   0.0000
    44 C42       0.8132   -5.2930   -5.4610   C.ar      1 RES1   0.0000
    45 N2        0.8558   -2.5185   -3.6486   N.ar      1 RES1   0.0000
    46 C43      -0.0479   -2.0788   -4.7067   C.3       1 RES1   0.0000
    47 C44       0.5953   -1.0728   -5.6696   C.3       1 RES1   0.0000
    48 C45       0.5633    0.3806   -5.1907   C.3       1 RES1   0.0000
    49 C46      -0.8244    1.0120   -5.2928   C.3       1 RES1   0.0000
    50 C47      -0.7963    2.5287   -5.1075   C.3       1 RES1   0.0000
    51 C48      -0.4410    2.9262   -3.6862   C.3       1 RES1   0.0000
    52 C49       0.8007   -1.8356   -2.4767   C.ar      1 RES1   0.0000
    53 O1        0.0843   -0.8327   -2.3050   O.2       1 RES1   0.0000
    54 C50       1.6628   -2.3203   -1.4069   C.ar      1 RES1   0.0000
    55 N3        1.5796   -1.6024   -0.2920   N.ar      1 RES1   0.0000
    56 C51       2.4310   -1.8764    0.6901   C.ar      1 RES1   0.0000
    57 C52       2.4215   -0.9554    1.7871   C.ar      1 RES1   0.0000
    58 N4        1.5112    0.0079    1.7171   N.ar      1 RES1   0.0000
    59 C53       1.5326    0.9521    2.6474   C.ar      1 RES1   0.0000
    60 C54       0.4917    1.9499    2.4744   C.ar      1 RES1   0.0000
    61 O2       -0.3616    1.8122    1.5779   O.2       1 RES1   0.0000
    62 H1       -1.9388    0.1962    7.5690   H         1 RES1   0.0000
    63 H2       -0.7344   -0.0406    6.3006   H         1 RES1   0.0000
    64 H3       -2.3499   -0.7162    6.1183   H         1 RES1   0.0000
    65 H4       -1.6942    2.2578    6.2282   H         1 RES1   0.0000
    66 H5       -3.3091    1.5838    6.0439   H         1 RES1   0.0000
    67 H6       -2.6400    0.4989    3.9234   H         1 RES1   0.0000
    68 H7       -1.0228    1.1310    4.0874   H         1 RES1   0.0000
    69 H8       -3.5741    2.7962    3.8664   H         1 RES1   0.0000
    70 H9       -2.5531    2.4103    2.4891   H         1 RES1   0.0000
    71 H10      -1.5138    3.9645    4.9004   H         1 RES1   0.0000
    72 H11      -2.3573    4.7475    3.5705   H         1 RES1   0.0000
    73 H12       0.0002    5.0276    3.2389   H         1 RES1   0.0000
    74 H13      -0.6931    4.0021    1.9590   H         1 RES1   0.0000
    75 H14       2.6987    5.4365    3.5945   H         1 RES1   0.0000
    76 H15       2.7183    7.5539    4.8319   H         1 RES1   0.0000
    77 H16       1.5468    7.7380    7.0058   H         1 RES1   0.0000
    78 H17       0.3457    5.8000    7.9085   H         1 RES1   0.0000
    79 H18       0.3318    3.6512    6.6688   H         1 RES1   0.0000
    80 H19       2.1591    1.6917    7.1760   H         1 RES1   0.0000
    81 H20       3.8308    2.0097    8.9403   H         1 RES1   0.0000
    82 H21       6.0851    2.8701    8.3802   H         1 RES1   0.0000
    83 H22       6.6250    3.4475    6.0586   H         1 RES1   0.0000
    84 H23       4.9414    3.1292    4.2697   H         1 RES1   0.0000
    85 H24       4.1441   -0.0569    4.5704   H         1 RES1   0.0000
    86 H25       4.9850   -2.2784    3.5924   H         1 RES1   0.0000
    87 H26       4.9617   -3.8926    1.7398   H         1 RES1   0.0000
    88 H27       4.0805   -4.5591   -0.5755   H         1 RES1   0.0000
    89 H28       5.1049   -4.1500   -3.5884   H         1 RES1   0.0000
    90 H29       6.5097   -6.1381   -3.9330   H         1 RES1   0.0000
    91 H30       5.5641   -8.4014   -3.5968   H         1 RES1   0.0000
    92 H31       3.2073   -8.6567   -2.9684   H         1 RES1   0.0000
    93 H32       1.7843   -6.6506   -2.6281   H         1 RES1   0.0000
    94 H33       3.3612   -3.0999   -5.8323   H         1 RES1   0.0000
    95 H34       3.4440   -4.1673   -8.0387   H         1 RES1   0.0000
    96 H35       1.8604   -5.9883   -8.5992   H         1 RES1   0.0000
    97 H36       0.1854   -6.6933   -6.9547   H         1 RES1   0.0000
    98 H37       0.0743   -5.5982   -4.7333   H         1 RES1   0.0000
    99 H38      -0.9040   -1.6234   -4.2042   H         1 RES1   0.0000
   100 H39      -0.3712   -2.9683   -5.2473   H         1 RES1   0.0000
   101 H40       0.0675   -1.1433   -6.6221   H         1 RES1   0.0000
   102 H41       1.6288   -1.3730   -5.8489   H         1 RES1   0.0000
   103 H42       1.2490    0.9554   -5.8156   H         1 RES1   0.0000
   104 H43       0.9224    0.4409   -4.1635   H         1 RES1   0.0000
   105 H44      -1.4850    0.5758   -4.5417   H         1 RES1   0.0000
   106 H45      -1.2457    0.7936   -6.2757   H         1 RES1   0.0000
   107 H46      -1.7862    2.9276   -5.3335   H         1 RES1   0.0000
   108 H47      -0.0880    2.9756   -5.8059   H         1 RES1   0.0000
   109 H48      -1.1452    2.4450   -3.0149   H         1 RES1   0.0000
   110 H49      -0.5136    4.0008   -3.5457   H         1 RES1   0.0000
   111 H50       0.5657    2.6164   -3.4183   H         1 RES1   0.0000
   112 N5       -2.1611   -1.3694    0.7662   N.3       1 RES1   0.0000
   113 O3       -3.2775   -1.6057    1.0793   O.2       1 RES1   0.0000
   114 O4       -1.7262   -1.6082   -0.3732   O.co2     1 RES1   0.0000
   115 O5       -1.3379   -0.8993    1.5742   O.co2     1 RES1   0.0000
   116 N6       -1.3566    2.1312   -0.6462   N.3       1 RES1   0.0000
   117 O6       -1.7200    3.2548   -0.5533   O.2       1 RES1   0.0000
   118 O7       -2.1108    1.1684   -0.4381   O.co2     1 RES1   0.0000
   119 O8       -0.1898    1.8515   -0.9794   O.co2     1 RES1   0.0000
@<TRIPOS>BOND
     1     1    53    1
     2     1    55    1
     3     1    58    1
     4     1    61    1
     5     1   114    1
     6     1   115    1
     7     1   118    1
     8     1   119    1
     9     2     3    1
    10     2    62    1
    11     2    63    1
    12     2    64    1
    13     3     4    1
    14     3    65    1
    15     3    66    1
    16     4     5    1
    17     4    67    1
    18     4    68    1
    19     5     6    1
    20     5    69    1
    21     5    70    1
    22     6     7    1
    23     6    71    1
    24     6    72    1
    25     7     8    1
    26     7    73    1
    27     7    74    1
    28     8     9    1
    29     8    60    1
    30     9    10    1
    31     9    16    2
    32    10    11    1
    33    10    15    2
    34    11    12    2
    35    11    75    1
    36    12    13    1
    37    12    76    1
    38    13    14    2
    39    13    77    1
    40    14    15    1
    41    14    78    1
    42    15    79    1
    43    16    17    1
    44    16    23    1
    45    17    18    1
    46    17    22    2
    47    18    19    2
    48    18    80    1
    49    19    20    1
    50    19    81    1
    51    20    21    2
    52    20    82    1
    53    21    22    1
    54    21    83    1
    55    22    84    1
    56    23    24    1
    57    23    59    2
    58    24    25    2
    59    24    85    1
    60    25    26    1
    61    25    57    1
    62    26    27    2
    63    26    86    1
    64    27    28    1
    65    27    87    1
    66    28    29    1
    67    28    56    2
    68    29    30    2
    69    29    88    1
    70    30    31    1
    71    30    54    1
    72    31    32    1
    73    31    38    2
    74    32    33    1
    75    32    37    2
    76    33    34    2
    77    33    89    1
    78    34    35    1
    79    34    90    1
    80    35    36    2
    81    35    91    1
    82    36    37    1
    83    36    92    1
    84    37    93    1
    85    38    39    1
    86    38    45    1
    87    39    40    1
    88    39    44    2
    89    40    41    2
    90    40    94    1
    91    41    42    1
    92    41    95    1
    93    42    43    2
    94    42    96    1
    95    43    44    1
    96    43    97    1
    97    44    98    1
    98    45    46    1
    99    45    52    1
   100    46    47    1
   101    46    99    1
   102    46   100    1
   103    47    48    1
   104    47   101    1
   105    47   102    1
   106    48    49    1
   107    48   103    1
   108    48   104    1
   109    49    50    1
   110    49   105    1
   111    49   106    1
   112    50    51    1
   113    50   107    1
   114    50   108    1
   115    51   109    1
   116    51   110    1
   117    51   111    1
   118    52    53    2
   119    52    54    1
   120    54    55    2
   121    55    56    1
   122    56    57    1
   123    57    58    2
   124    58    59    1
   125    59    60    1
   126    60    61    2
   127   112   113    2
   128   112   114    1
   129   112   115    1
   130   116   117    2
   131   116   118    1
   132   116   119    1
@<TRIPOS>SUBSTRUCTURE
     1 RES1      119 GROUP             0 ****  ****    0  
