@<TRIPOS>MOLECULE
am_c3_9H2O_c0_0_nunpairedes_0_charge_3 Charge: 3 Unpaired_Electrons: 5 XTB_Unpaired_Electrons: 0 XTB_Charge: 3
   358   363     1     0     0
SMALL
NoCharges
****
Generated from Architector

@<TRIPOS>ATOM
     1 Sm1      -0.4890    0.4332    0.0780   Sm        1 RES1   0.0000
     2 C1       -9.6216   -0.1534    3.3203   C.3       1 RES1   0.0000
     3 C2      -10.3528   -0.8701    2.1914   C.3       1 RES1   0.0000
     4 C3      -10.2862   -0.1107    0.8672   C.3       1 RES1   0.0000
     5 C4       -8.9032   -0.1478    0.2115   C.3       1 RES1   0.0000
     6 C5       -8.7019   -1.4002   -0.6429   C.3       1 RES1   0.0000
     7 C6       -7.2323   -1.7079   -0.9453   C.3       1 RES1   0.0000
     8 C7       -6.4781   -0.5478   -1.5968   C.3       1 RES1   0.0000
     9 C8       -4.9930   -0.8926   -1.7361   C.3       1 RES1   0.0000
    10 N1       -4.1989    0.2680   -2.1270   N.am      1 RES1   0.0000
    11 C9       -4.3052    0.7433   -3.4992   C.3       1 RES1   0.0000
    12 C10      -4.1428   -0.3496   -4.5723   C.3       1 RES1   0.0000
    13 C11      -2.9486   -1.3031   -4.4600   C.3       1 RES1   0.0000
    14 C12      -1.5872   -0.6929   -4.1224   C.3       1 RES1   0.0000
    15 C13      -0.4894   -1.7644   -4.3041   C.3       1 RES1   0.0000
    16 C14       0.4146   -1.5622   -5.5252   C.3       1 RES1   0.0000
    17 C15       1.6284   -0.7056   -5.1729   C.3       1 RES1   0.0000
    18 C16       2.4223   -0.2545   -6.3934   C.3       1 RES1   0.0000
    19 C17      -3.3417    0.7740   -1.2397   C.2       1 RES1   0.0000
    20 O1       -2.7173    0.0345   -0.4340   O.2       1 RES1   0.0000
    21 C18      -3.2252    2.2858   -0.9686   C.3       1 RES1   0.0000
    22 C19      -3.5106    3.2998   -2.0671   C.3       1 RES1   0.0000
    23 O2       -1.9300    2.4670   -0.3971   O.3       1 RES1   0.0000
    24 C20      -1.7033    3.5612    0.5001   C.3       1 RES1   0.0000
    25 C21      -0.3260    4.1092    0.1408   C.3       1 RES1   0.0000
    26 C22      -1.5350    2.9873    1.9100   C.2       1 RES1   0.0000
    27 O3       -1.2041    1.7773    1.9722   O.2       1 RES1   0.0000
    28 N2       -1.6662    3.7841    2.9552   N.am      1 RES1   0.0000
    29 C23      -1.8860    5.2272    2.8353   C.3       1 RES1   0.0000
    30 C24      -3.3403    5.6440    2.5662   C.3       1 RES1   0.0000
    31 C25      -4.0578    6.1830    3.8108   C.3       1 RES1   0.0000
    32 C26      -3.8643    7.6860    4.0301   C.3       1 RES1   0.0000
    33 C27      -2.4361    8.1104    4.3665   C.3       1 RES1   0.0000
    34 C28      -2.3464    9.5572    4.8632   C.3       1 RES1   0.0000
    35 C29      -2.7878   10.6268    3.8645   C.3       1 RES1   0.0000
    36 C30      -1.9603   10.6352    2.5860   C.3       1 RES1   0.0000
    37 C31      -1.4637    3.2260    4.2956   C.3       1 RES1   0.0000
    38 C32      -0.3979    3.9671    5.1065   C.3       1 RES1   0.0000
    39 C33       0.8944    4.1597    4.3208   C.3       1 RES1   0.0000
    40 C34       2.0334    4.7659    5.1465   C.3       1 RES1   0.0000
    41 C35       2.6275    3.7994    6.1820   C.3       1 RES1   0.0000
    42 C36       2.1026    3.9268    7.6200   C.3       1 RES1   0.0000
    43 C37       2.0289    2.5627    8.3188   C.3       1 RES1   0.0000
    44 C38       0.7510    1.7766    8.0413   C.3       1 RES1   0.0000
    45 H1       -9.7089   -0.7189    4.2436   H         1 RES1   0.0000
    46 H2      -10.0469    0.8345    3.4849   H         1 RES1   0.0000
    47 H3       -8.5617   -0.0409    3.0988   H         1 RES1   0.0000
    48 H4      -11.3979   -0.9736    2.4803   H         1 RES1   0.0000
    49 H5       -9.9457   -1.8759    2.0702   H         1 RES1   0.0000
    50 H6      -10.5655    0.9266    1.0589   H         1 RES1   0.0000
    51 H7      -11.0173   -0.5299    0.1745   H         1 RES1   0.0000
    52 H8       -8.1411   -0.1130    0.9932   H         1 RES1   0.0000
    53 H9       -8.7861    0.7428   -0.4093   H         1 RES1   0.0000
    54 H10      -9.2565   -1.2949   -1.5780   H         1 RES1   0.0000
    55 H11      -9.1088   -2.2619   -0.1095   H         1 RES1   0.0000
    56 H12      -7.1842   -2.5806   -1.5964   H         1 RES1   0.0000
    57 H13      -6.7256   -1.9794   -0.0170   H         1 RES1   0.0000
    58 H14      -6.5796    0.3376   -0.9730   H         1 RES1   0.0000
    59 H15      -6.9210   -0.3308   -2.5640   H         1 RES1   0.0000
    60 H16      -4.8641   -1.7155   -2.4343   H         1 RES1   0.0000
    61 H17      -4.6412   -1.2005   -0.7542   H         1 RES1   0.0000
    62 H18      -3.5027    1.4589   -3.6442   H         1 RES1   0.0000
    63 H19      -5.2664    1.2353   -3.6706   H         1 RES1   0.0000
    64 H20      -4.0544    0.2019   -5.5119   H         1 RES1   0.0000
    65 H21      -5.0499   -0.9525   -4.6495   H         1 RES1   0.0000
    66 H22      -2.8536   -1.7762   -5.4389   H         1 RES1   0.0000
    67 H23      -3.1574   -2.0999   -3.7429   H         1 RES1   0.0000
    68 H24      -1.5755   -0.3192   -3.0846   H         1 RES1   0.0000
    69 H25      -1.3890    0.1583   -4.7771   H         1 RES1   0.0000
    70 H26      -0.9704   -2.7398   -4.3993   H         1 RES1   0.0000
    71 H27       0.1505   -1.7866   -3.4180   H         1 RES1   0.0000
    72 H28      -0.1446   -1.1055   -6.3415   H         1 RES1   0.0000
    73 H29       0.7688   -2.5301   -5.8800   H         1 RES1   0.0000
    74 H30       2.2884   -1.2958   -4.5312   H         1 RES1   0.0000
    75 H31       1.2799    0.1610   -4.6001   H         1 RES1   0.0000
    76 H32       2.7682   -1.1201   -6.9501   H         1 RES1   0.0000
    77 H33       3.2948    0.3270   -6.0993   H         1 RES1   0.0000
    78 H34       1.8232    0.3561   -7.0627   H         1 RES1   0.0000
    79 H35      -3.9844    2.4248   -0.1778   H         1 RES1   0.0000
    80 H36      -2.8014    3.2097   -2.8880   H         1 RES1   0.0000
    81 H37      -3.4143    4.2968   -1.6394   H         1 RES1   0.0000
    82 H38      -4.5313    3.2020   -2.4261   H         1 RES1   0.0000
    83 H39      -2.4894    4.3129    0.4183   H         1 RES1   0.0000
    84 H40       0.3266    3.2427   -0.0096   H         1 RES1   0.0000
    85 H41       0.1005    4.7063    0.9411   H         1 RES1   0.0000
    86 H42      -0.3693    4.7056   -0.7626   H         1 RES1   0.0000
    87 H43      -1.2275    5.6264    2.0634   H         1 RES1   0.0000
    88 H44      -1.5738    5.6642    3.7784   H         1 RES1   0.0000
    89 H45      -3.8796    4.7778    2.1880   H         1 RES1   0.0000
    90 H46      -3.3590    6.4112    1.7891   H         1 RES1   0.0000
    91 H47      -3.7291    5.6284    4.6932   H         1 RES1   0.0000
    92 H48      -5.1270    6.0011    3.6868   H         1 RES1   0.0000
    93 H49      -4.5103    7.9896    4.8535   H         1 RES1   0.0000
    94 H50      -4.2030    8.2160    3.1383   H         1 RES1   0.0000
    95 H51      -1.7947    7.9881    3.4923   H         1 RES1   0.0000
    96 H52      -2.0505    7.4679    5.1643   H         1 RES1   0.0000
    97 H53      -1.3084    9.7557    5.1363   H         1 RES1   0.0000
    98 H54      -2.9455    9.6549    5.7708   H         1 RES1   0.0000
    99 H55      -2.6908   11.5970    4.3543   H         1 RES1   0.0000
   100 H56      -3.8404   10.4994    3.6175   H         1 RES1   0.0000
   101 H57      -0.9027   10.7081    2.8240   H         1 RES1   0.0000
   102 H58      -2.2283   11.4880    1.9693   H         1 RES1   0.0000
   103 H59      -2.1220    9.7336    1.9988   H         1 RES1   0.0000
   104 H60      -1.1746    2.1812    4.1490   H         1 RES1   0.0000
   105 H61      -2.4121    3.2542    4.8413   H         1 RES1   0.0000
   106 H62      -0.2034    3.3874    6.0074   H         1 RES1   0.0000
   107 H63      -0.7660    4.9406    5.4309   H         1 RES1   0.0000
   108 H64       0.7027    4.8132    3.4670   H         1 RES1   0.0000
   109 H65       1.1995    3.1967    3.9071   H         1 RES1   0.0000
   110 H66       1.6814    5.6698    5.6431   H         1 RES1   0.0000
   111 H67       2.8152    5.0729    4.4450   H         1 RES1   0.0000
   112 H68       3.7088    3.9406    6.1937   H         1 RES1   0.0000
   113 H69       2.4450    2.7828    5.8420   H         1 RES1   0.0000
   114 H70       1.1260    4.4101    7.6336   H         1 RES1   0.0000
   115 H71       2.7819    4.5661    8.1840   H         1 RES1   0.0000
   116 H72       2.1097    2.7056    9.3953   H         1 RES1   0.0000
   117 H73       2.8952    1.9730    8.0077   H         1 RES1   0.0000
   118 H74      -0.1139    2.2552    8.4961   H         1 RES1   0.0000
   119 H75       0.8359    0.7775    8.4592   H         1 RES1   0.0000
   120 H76       0.5695    1.6685    6.9744   H         1 RES1   0.0000
   121 C39       1.8006    7.6938    2.0510   C.3       1 RES1   0.0000
   122 C40       1.6180    8.0882    0.5917   C.3       1 RES1   0.0000
   123 C41       2.7601    7.5975   -0.2989   C.3       1 RES1   0.0000
   124 C42       2.6965    6.0932   -0.5987   C.3       1 RES1   0.0000
   125 C43       2.2281    5.7556   -2.0161   C.3       1 RES1   0.0000
   126 C44       0.8610    6.3177   -2.3973   C.3       1 RES1   0.0000
   127 C45       0.2499    5.6584   -3.6335   C.3       1 RES1   0.0000
   128 C46      -0.1988    4.1845   -3.5370   C.3       1 RES1   0.0000
   129 N3        0.8753    3.1821   -3.5309   N.am      1 RES1   0.0000
   130 C47       1.8004    3.3010   -4.6576   C.3       1 RES1   0.0000
   131 C48       1.0968    3.3983   -6.0338   C.3       1 RES1   0.0000
   132 C49      -0.0748    2.4320   -6.2400   C.3       1 RES1   0.0000
   133 C50      -0.4833    2.2012   -7.7022   C.3       1 RES1   0.0000
   134 C51      -1.9354    1.6980   -7.7339   C.3       1 RES1   0.0000
   135 C52      -2.3585    0.8836   -8.9604   C.3       1 RES1   0.0000
   136 C53      -1.9763   -0.6030   -8.8966   C.3       1 RES1   0.0000
   137 C54      -0.6985   -0.9443   -9.6513   C.3       1 RES1   0.0000
   138 C55       0.8622    2.1899   -2.6236   C.2       1 RES1   0.0000
   139 O4       -0.2070    1.7693   -2.1239   O.2       1 RES1   0.0000
   140 C56       2.1655    1.6957   -1.9100   C.3       1 RES1   0.0000
   141 C57       3.1537    0.7900   -2.6373   C.3       1 RES1   0.0000
   142 O5        1.6476    1.0199   -0.7237   O.3       1 RES1   0.0000
   143 C58       2.5703    0.5134    0.2559   C.3       1 RES1   0.0000
   144 C59       1.8064   -0.5179    1.1117   C.3       1 RES1   0.0000
   145 C60       2.8450    1.5337    1.3751   C.2       1 RES1   0.0000
   146 O6        1.8813    2.2555    1.6528   O.2       1 RES1   0.0000
   147 N4        3.9440    1.3648    2.1053   N.am      1 RES1   0.0000
   148 C61       5.1532    0.6408    1.7149   C.3       1 RES1   0.0000
   149 C62       6.2846    1.5902    1.2765   C.3       1 RES1   0.0000
   150 C63       7.6135    1.2563    1.9704   C.3       1 RES1   0.0000
   151 C64       8.3442    0.0662    1.3469   C.3       1 RES1   0.0000
   152 C65       9.6050   -0.2837    2.1512   C.3       1 RES1   0.0000
   153 C66      10.7686   -0.7534    1.2778   C.3       1 RES1   0.0000
   154 C67      10.5353   -2.1273    0.6480   C.3       1 RES1   0.0000
   155 C68      10.3788   -3.2506    1.6730   C.3       1 RES1   0.0000
   156 C69       3.9554    1.7890    3.5008   C.3       1 RES1   0.0000
   157 C70       3.7185    0.5871    4.4257   C.3       1 RES1   0.0000
   158 C71       2.2723    0.1862    4.7209   C.3       1 RES1   0.0000
   159 C72       2.2652   -0.8124    5.8805   C.3       1 RES1   0.0000
   160 C73       0.8928   -1.4134    6.1827   C.3       1 RES1   0.0000
   161 C74       0.9651   -2.1686    7.5127   C.3       1 RES1   0.0000
   162 C75      -0.3763   -2.6690    8.0520   C.3       1 RES1   0.0000
   163 C76      -1.3470   -1.5630    8.4631   C.3       1 RES1   0.0000
   164 H77       0.9406    7.9986    2.6403   H         1 RES1   0.0000
   165 H78       2.6774    8.1794    2.4668   H         1 RES1   0.0000
   166 H79       1.9306    6.6205    2.1647   H         1 RES1   0.0000
   167 H80       1.5787    9.1738    0.5337   H         1 RES1   0.0000
   168 H81       0.6646    7.7052    0.2241   H         1 RES1   0.0000
   169 H82       3.6995    7.8314    0.2021   H         1 RES1   0.0000
   170 H83       2.7604    8.1536   -1.2370   H         1 RES1   0.0000
   171 H84       2.0424    5.5985    0.1220   H         1 RES1   0.0000
   172 H85       3.6889    5.6526   -0.4729   H         1 RES1   0.0000
   173 H86       2.2058    4.6689   -2.1090   H         1 RES1   0.0000
   174 H87       2.9663    6.1356   -2.7225   H         1 RES1   0.0000
   175 H88       0.9659    7.3823   -2.6094   H         1 RES1   0.0000
   176 H89       0.1640    6.2408   -1.5647   H         1 RES1   0.0000
   177 H90       0.9287    5.8007   -4.4708   H         1 RES1   0.0000
   178 H91      -0.6605    6.2110   -3.8807   H         1 RES1   0.0000
   179 H92      -0.8585    4.0236   -4.3895   H         1 RES1   0.0000
   180 H93      -0.7777    4.0290   -2.6313   H         1 RES1   0.0000
   181 H94       2.4442    2.4276   -4.6713   H         1 RES1   0.0000
   182 H95       2.4223    4.1878   -4.5168   H         1 RES1   0.0000
   183 H96       1.8673    3.1867   -6.7769   H         1 RES1   0.0000
   184 H97       0.7507    4.4158   -6.2184   H         1 RES1   0.0000
   185 H98      -0.9707    2.8164   -5.7443   H         1 RES1   0.0000
   186 H99       0.1674    1.4689   -5.7935   H         1 RES1   0.0000
   187 H100      0.1872    1.4856   -8.1751   H         1 RES1   0.0000
   188 H101     -0.4061    3.1286   -8.2708   H         1 RES1   0.0000
   189 H102     -2.5913    2.5690   -7.6537   H         1 RES1   0.0000
   190 H103     -2.1115    1.0887   -6.8414   H         1 RES1   0.0000
   191 H104     -1.9494    1.3347   -9.8660   H         1 RES1   0.0000
   192 H105     -3.4475    0.9554   -9.0275   H         1 RES1   0.0000
   193 H106     -2.7858   -1.1856   -9.3373   H         1 RES1   0.0000
   194 H107     -1.8889   -0.9168   -7.8512   H         1 RES1   0.0000
   195 H108     -0.8023   -0.6721  -10.6974   H         1 RES1   0.0000
   196 H109     -0.5061   -2.0126   -9.5995   H         1 RES1   0.0000
   197 H110      0.1645   -0.4232   -9.2465   H         1 RES1   0.0000
   198 H111      2.6743    2.6149   -1.5755   H         1 RES1   0.0000
   199 H112      2.8049   -0.2368   -2.5634   H         1 RES1   0.0000
   200 H113      4.1304    0.8630   -2.1667   H         1 RES1   0.0000
   201 H114      3.2764    1.0376   -3.6837   H         1 RES1   0.0000
   202 H115      3.4319    0.0623   -0.2351   H         1 RES1   0.0000
   203 H116      1.1150   -0.0017    1.8085   H         1 RES1   0.0000
   204 H117      2.5051   -1.0922    1.7150   H         1 RES1   0.0000
   205 H118      1.2757   -1.2120    0.4532   H         1 RES1   0.0000
   206 H119      4.9527   -0.1008    0.9432   H         1 RES1   0.0000
   207 H120      5.5016    0.1031    2.6009   H         1 RES1   0.0000
   208 H121      6.0037    2.6105    1.5399   H         1 RES1   0.0000
   209 H122      6.4186    1.5767    0.1904   H         1 RES1   0.0000
   210 H123      7.4369    1.0667    3.0355   H         1 RES1   0.0000
   211 H124      8.2659    2.1299    1.9047   H         1 RES1   0.0000
   212 H125      8.6254    0.3306    0.3239   H         1 RES1   0.0000
   213 H126      7.6749   -0.7992    1.2993   H         1 RES1   0.0000
   214 H127      9.3635   -1.0578    2.8798   H         1 RES1   0.0000
   215 H128      9.9252    0.5985    2.7107   H         1 RES1   0.0000
   216 H129     11.6692   -0.7949    1.8934   H         1 RES1   0.0000
   217 H130     10.9408   -0.0176    0.4855   H         1 RES1   0.0000
   218 H131     11.3799   -2.3510   -0.0047   H         1 RES1   0.0000
   219 H132      9.6452   -2.0852    0.0165   H         1 RES1   0.0000
   220 H133     11.1351   -3.1705    2.4508   H         1 RES1   0.0000
   221 H134     10.4931   -4.2149    1.1829   H         1 RES1   0.0000
   222 H135      9.3980   -3.2234    2.1473   H         1 RES1   0.0000
   223 H136      3.2114    2.5667    3.6504   H         1 RES1   0.0000
   224 H137      4.9310    2.2089    3.7296   H         1 RES1   0.0000
   225 H138      4.2127    0.8017    5.3727   H         1 RES1   0.0000
   226 H139      4.2043   -0.2954    4.0014   H         1 RES1   0.0000
   227 H140      1.8078   -0.2664    3.8421   H         1 RES1   0.0000
   228 H141      1.6616    1.0513    4.9880   H         1 RES1   0.0000
   229 H142      2.6203   -0.2926    6.7740   H         1 RES1   0.0000
   230 H143      2.9751   -1.6163    5.6670   H         1 RES1   0.0000
   231 H144      0.5900   -2.0974    5.3815   H         1 RES1   0.0000
   232 H145      0.1500   -0.6145    6.2473   H         1 RES1   0.0000
   233 H146      1.4249   -1.5206    8.2618   H         1 RES1   0.0000
   234 H147      1.6270   -3.0308    7.3907   H         1 RES1   0.0000
   235 H148     -0.1684   -3.2901    8.9269   H         1 RES1   0.0000
   236 H149     -0.8470   -3.3049    7.3011   H         1 RES1   0.0000
   237 H150     -0.8645   -0.8381    9.1151   H         1 RES1   0.0000
   238 H151     -2.1799   -1.9948    9.0115   H         1 RES1   0.0000
   239 H152     -1.7458   -1.0367    7.5968   H         1 RES1   0.0000
   240 C77      -6.9157    3.7118    0.5927   C.3       1 RES1   0.0000
   241 C78      -6.5930    2.4449    1.3766   C.3       1 RES1   0.0000
   242 C79      -5.4794    2.6790    2.3929   C.3       1 RES1   0.0000
   243 C80      -5.3527    1.5904    3.4580   C.3       1 RES1   0.0000
   244 C81      -4.4139    0.4338    3.1014   C.3       1 RES1   0.0000
   245 C82      -4.9459   -0.6179    2.1021   C.3       1 RES1   0.0000
   246 C83      -5.1035   -2.0324    2.6909   C.3       1 RES1   0.0000
   247 C84      -4.0436   -3.0563    2.2324   C.3       1 RES1   0.0000
   248 N5       -2.6795   -2.5964    2.4351   N.am      1 RES1   0.0000
   249 C85      -2.3425   -2.1358    3.7858   C.3       1 RES1   0.0000
   250 C86      -2.8929   -2.9859    4.9377   C.3       1 RES1   0.0000
   251 C87      -2.1393   -4.2746    5.2664   C.3       1 RES1   0.0000
   252 C88      -2.4436   -5.5104    4.4085   C.3       1 RES1   0.0000
   253 C89      -1.3590   -5.7791    3.3649   C.3       1 RES1   0.0000
   254 C90      -1.4484   -7.1376    2.6551   C.3       1 RES1   0.0000
   255 C91      -2.3343   -7.2049    1.4075   C.3       1 RES1   0.0000
   256 C92      -3.8314   -7.1481    1.6828   C.3       1 RES1   0.0000
   257 C93      -1.8302   -2.2597    1.4579   C.2       1 RES1   0.0000
   258 O7       -1.0286   -1.3006    1.5911   O.2       1 RES1   0.0000
   259 C94      -1.5682   -3.2328    0.2787   C.3       1 RES1   0.0000
   260 C95      -2.6327   -3.3458   -0.8090   C.3       1 RES1   0.0000
   261 O8       -0.3255   -2.8056   -0.2945   O.3       1 RES1   0.0000
   262 C96       0.5968   -3.8778   -0.6086   C.3       1 RES1   0.0000
   263 C97       0.2153   -4.6324   -1.8808   C.3       1 RES1   0.0000
   264 C98       1.9715   -3.1904   -0.7349   C.2       1 RES1   0.0000
   265 O9        1.9946   -2.0292   -1.1472   O.2       1 RES1   0.0000
   266 N6        3.0430   -3.8394   -0.2387   N.am      1 RES1   0.0000
   267 C99       4.1222   -3.1019    0.4138   C.3       1 RES1   0.0000
   268 C100      3.9942   -3.1974    1.9591   C.3       1 RES1   0.0000
   269 C101      5.0504   -4.0692    2.6631   C.3       1 RES1   0.0000
   270 C102      6.3202   -3.3607    3.1785   C.3       1 RES1   0.0000
   271 C103      6.4326   -3.2582    4.7168   C.3       1 RES1   0.0000
   272 C104      6.3139   -1.8368    5.3054   C.3       1 RES1   0.0000
   273 C105      7.6107   -1.3442    5.9523   C.3       1 RES1   0.0000
   274 C106      7.5328    0.0717    6.5199   C.3       1 RES1   0.0000
   275 C107      3.2589   -5.2708   -0.3942   C.3       1 RES1   0.0000
   276 C108      4.2448   -5.5835   -1.5370   C.3       1 RES1   0.0000
   277 C109      3.7532   -5.1393   -2.9168   C.3       1 RES1   0.0000
   278 C110      4.8307   -5.2900   -3.9992   C.3       1 RES1   0.0000
   279 C111      5.8417   -4.1443   -4.0238   C.3       1 RES1   0.0000
   280 C112      5.2579   -2.8104   -4.5190   C.3       1 RES1   0.0000
   281 C113      5.8111   -2.3628   -5.8767   C.3       1 RES1   0.0000
   282 C114      5.2588   -3.1872   -7.0338   C.3       1 RES1   0.0000
   283 H153     -7.7068    3.5252   -0.1292   H         1 RES1   0.0000
   284 H154     -6.0362    4.0745    0.0610   H         1 RES1   0.0000
   285 H155     -7.2507    4.4971    1.2652   H         1 RES1   0.0000
   286 H156     -6.3033    1.6518    0.6833   H         1 RES1   0.0000
   287 H157     -7.4898    2.1172    1.9048   H         1 RES1   0.0000
   288 H158     -5.6924    3.6255    2.8920   H         1 RES1   0.0000
   289 H159     -4.5142    2.7756    1.8797   H         1 RES1   0.0000
   290 H160     -6.3408    1.1997    3.7089   H         1 RES1   0.0000
   291 H161     -4.9500    2.0563    4.3621   H         1 RES1   0.0000
   292 H162     -4.2165   -0.0566    4.0533   H         1 RES1   0.0000
   293 H163     -3.4671    0.8437    2.7301   H         1 RES1   0.0000
   294 H164     -4.2646   -0.6598    1.2482   H         1 RES1   0.0000
   295 H165     -5.9193   -0.2946    1.7367   H         1 RES1   0.0000
   296 H166     -6.0656   -2.4591    2.3957   H         1 RES1   0.0000
   297 H167     -5.1199   -1.9562    3.7767   H         1 RES1   0.0000
   298 H168     -4.2069   -3.2610    1.1788   H         1 RES1   0.0000
   299 H169     -4.1975   -3.9904    2.7739   H         1 RES1   0.0000
   300 H170     -2.6741   -1.1063    3.9151   H         1 RES1   0.0000
   301 H171     -1.2514   -2.1302    3.8473   H         1 RES1   0.0000
   302 H172     -3.9449   -3.2306    4.8214   H         1 RES1   0.0000
   303 H173     -2.8288   -2.3406    5.8162   H         1 RES1   0.0000
   304 H174     -2.3951   -4.5158    6.2972   H         1 RES1   0.0000
   305 H175     -1.0674   -4.0820    5.2307   H         1 RES1   0.0000
   306 H176     -3.4212   -5.4150    3.9399   H         1 RES1   0.0000
   307 H177     -2.4940   -6.3801    5.0646   H         1 RES1   0.0000
   308 H178     -0.3995   -5.7575    3.8876   H         1 RES1   0.0000
   309 H179     -1.3468   -4.9716    2.6280   H         1 RES1   0.0000
   310 H180     -1.7822   -7.8896    3.3719   H         1 RES1   0.0000
   311 H181     -0.4373   -7.4181    2.3443   H         1 RES1   0.0000
   312 H182     -2.1177   -8.1473    0.8986   H         1 RES1   0.0000
   313 H183     -2.0611   -6.3998    0.7146   H         1 RES1   0.0000
   314 H184     -4.1081   -7.8935    2.4243   H         1 RES1   0.0000
   315 H185     -4.3829   -7.3546    0.7679   H         1 RES1   0.0000
   316 H186     -4.1318   -6.1669    2.0425   H         1 RES1   0.0000
   317 H187     -1.4239   -4.2208    0.7437   H         1 RES1   0.0000
   318 H188     -2.2309   -3.9141   -1.6413   H         1 RES1   0.0000
   319 H189     -2.8740   -2.3476   -1.1585   H         1 RES1   0.0000
   320 H190     -3.5190   -3.8751   -0.4715   H         1 RES1   0.0000
   321 H191      0.6333   -4.5636    0.2504   H         1 RES1   0.0000
   322 H192      1.0954   -5.0795   -2.3325   H         1 RES1   0.0000
   323 H193     -0.2026   -3.9333   -2.5987   H         1 RES1   0.0000
   324 H194     -0.4961   -5.4237   -1.6597   H         1 RES1   0.0000
   325 H195      4.0381   -2.0736    0.0702   H         1 RES1   0.0000
   326 H196      5.0873   -3.4834    0.0908   H         1 RES1   0.0000
   327 H197      3.0116   -3.6256    2.1800   H         1 RES1   0.0000
   328 H198      4.0118   -2.2034    2.4116   H         1 RES1   0.0000
   329 H199      5.3426   -4.8707    1.9878   H         1 RES1   0.0000
   330 H200      4.5859   -4.5551    3.5191   H         1 RES1   0.0000
   331 H201      6.3790   -2.3674    2.7363   H         1 RES1   0.0000
   332 H202      7.1792   -3.9249    2.8150   H         1 RES1   0.0000
   333 H203      7.3967   -3.6666    5.0250   H         1 RES1   0.0000
   334 H204      5.6724   -3.9017    5.1629   H         1 RES1   0.0000
   335 H205      5.5115   -1.8195    6.0410   H         1 RES1   0.0000
   336 H206      6.0461   -1.1253    4.5248   H         1 RES1   0.0000
   337 H207      8.4022   -1.3818    5.2019   H         1 RES1   0.0000
   338 H208      7.8965   -2.0170    6.7598   H         1 RES1   0.0000
   339 H209      7.0037    0.7495    5.8559   H         1 RES1   0.0000
   340 H210      8.5359    0.4632    6.6645   H         1 RES1   0.0000
   341 H211      7.0367    0.0902    7.4848   H         1 RES1   0.0000
   342 H212      2.3211   -5.7727   -0.6205   H         1 RES1   0.0000
   343 H213      3.6445   -5.6731    0.5444   H         1 RES1   0.0000
   344 H214      4.3956   -6.6653   -1.5470   H         1 RES1   0.0000
   345 H215      5.2124   -5.1215   -1.3392   H         1 RES1   0.0000
   346 H216      3.4226   -4.0968   -2.8679   H         1 RES1   0.0000
   347 H217      2.8934   -5.7500   -3.2047   H         1 RES1   0.0000
   348 H218      4.3442   -5.3449   -4.9735   H         1 RES1   0.0000
   349 H219      5.3592   -6.2356   -3.8588   H         1 RES1   0.0000
   350 H220      6.6561   -4.4393   -4.6818   H         1 RES1   0.0000
   351 H221      6.2715   -4.0123   -3.0293   H         1 RES1   0.0000
   352 H222      5.4776   -2.0271   -3.7905   H         1 RES1   0.0000
   353 H223      4.1712   -2.8858   -4.6059   H         1 RES1   0.0000
   354 H224      6.9015   -2.4297   -5.8695   H         1 RES1   0.0000
   355 H225      5.5539   -1.3107   -6.0368   H         1 RES1   0.0000
   356 H226      5.4861   -4.2418   -6.9015   H         1 RES1   0.0000
   357 H227      5.6941   -2.8632   -7.9765   H         1 RES1   0.0000
   358 H228      4.1766   -3.0763   -7.1026   H         1 RES1   0.0000
@<TRIPOS>BOND
     1     1    20    1
     2     1    23    1
     3     1    27    1
     4     1   139    1
     5     1   142    1
     6     1   146    1
     7     1   258    1
     8     1   261    1
     9     1   265    1
    10     2     3    1
    11     2    45    1
    12     2    46    1
    13     2    47    1
    14     3     4    1
    15     3    48    1
    16     3    49    1
    17     4     5    1
    18     4    50    1
    19     4    51    1
    20     5     6    1
    21     5    52    1
    22     5    53    1
    23     6     7    1
    24     6    54    1
    25     6    55    1
    26     7     8    1
    27     7    56    1
    28     7    57    1
    29     8     9    1
    30     8    58    1
    31     8    59    1
    32     9    10    1
    33     9    60    1
    34     9    61    1
    35    10    11    1
    36    10    19    1
    37    11    12    1
    38    11    62    1
    39    11    63    1
    40    12    13    1
    41    12    64    1
    42    12    65    1
    43    13    14    1
    44    13    66    1
    45    13    67    1
    46    14    15    1
    47    14    68    1
    48    14    69    1
    49    15    16    1
    50    15    70    1
    51    15    71    1
    52    16    17    1
    53    16    72    1
    54    16    73    1
    55    17    18    1
    56    17    74    1
    57    17    75    1
    58    18    76    1
    59    18    77    1
    60    18    78    1
    61    19    20    2
    62    19    21    1
    63    21    22    1
    64    21    23    1
    65    21    79    1
    66    22    80    1
    67    22    81    1
    68    22    82    1
    69    23    24    1
    70    24    25    1
    71    24    26    1
    72    24    83    1
    73    25    84    1
    74    25    85    1
    75    25    86    1
    76    26    27    2
    77    26    28    1
    78    28    29    1
    79    28    37    1
    80    29    30    1
    81    29    87    1
    82    29    88    1
    83    30    31    1
    84    30    89    1
    85    30    90    1
    86    31    32    1
    87    31    91    1
    88    31    92    1
    89    32    33    1
    90    32    93    1
    91    32    94    1
    92    33    34    1
    93    33    95    1
    94    33    96    1
    95    34    35    1
    96    34    97    1
    97    34    98    1
    98    35    36    1
    99    35    99    1
   100    35   100    1
   101    36   101    1
   102    36   102    1
   103    36   103    1
   104    37    38    1
   105    37   104    1
   106    37   105    1
   107    38    39    1
   108    38   106    1
   109    38   107    1
   110    39    40    1
   111    39   108    1
   112    39   109    1
   113    40    41    1
   114    40   110    1
   115    40   111    1
   116    41    42    1
   117    41   112    1
   118    41   113    1
   119    42    43    1
   120    42   114    1
   121    42   115    1
   122    43    44    1
   123    43   116    1
   124    43   117    1
   125    44   118    1
   126    44   119    1
   127    44   120    1
   128   121   122    1
   129   121   164    1
   130   121   165    1
   131   121   166    1
   132   122   123    1
   133   122   167    1
   134   122   168    1
   135   123   124    1
   136   123   169    1
   137   123   170    1
   138   124   125    1
   139   124   171    1
   140   124   172    1
   141   125   126    1
   142   125   173    1
   143   125   174    1
   144   126   127    1
   145   126   175    1
   146   126   176    1
   147   127   128    1
   148   127   177    1
   149   127   178    1
   150   128   129    1
   151   128   179    1
   152   128   180    1
   153   129   130    1
   154   129   138    1
   155   130   131    1
   156   130   181    1
   157   130   182    1
   158   131   132    1
   159   131   183    1
   160   131   184    1
   161   132   133    1
   162   132   185    1
   163   132   186    1
   164   133   134    1
   165   133   187    1
   166   133   188    1
   167   134   135    1
   168   134   189    1
   169   134   190    1
   170   135   136    1
   171   135   191    1
   172   135   192    1
   173   136   137    1
   174   136   193    1
   175   136   194    1
   176   137   195    1
   177   137   196    1
   178   137   197    1
   179   138   139    2
   180   138   140    1
   181   140   141    1
   182   140   142    1
   183   140   198    1
   184   141   199    1
   185   141   200    1
   186   141   201    1
   187   142   143    1
   188   143   144    1
   189   143   145    1
   190   143   202    1
   191   144   203    1
   192   144   204    1
   193   144   205    1
   194   145   146    2
   195   145   147    1
   196   147   148    1
   197   147   156    1
   198   148   149    1
   199   148   206    1
   200   148   207    1
   201   149   150    1
   202   149   208    1
   203   149   209    1
   204   150   151    1
   205   150   210    1
   206   150   211    1
   207   151   152    1
   208   151   212    1
   209   151   213    1
   210   152   153    1
   211   152   214    1
   212   152   215    1
   213   153   154    1
   214   153   216    1
   215   153   217    1
   216   154   155    1
   217   154   218    1
   218   154   219    1
   219   155   220    1
   220   155   221    1
   221   155   222    1
   222   156   157    1
   223   156   223    1
   224   156   224    1
   225   157   158    1
   226   157   225    1
   227   157   226    1
   228   158   159    1
   229   158   227    1
   230   158   228    1
   231   159   160    1
   232   159   229    1
   233   159   230    1
   234   160   161    1
   235   160   231    1
   236   160   232    1
   237   161   162    1
   238   161   233    1
   239   161   234    1
   240   162   163    1
   241   162   235    1
   242   162   236    1
   243   163   237    1
   244   163   238    1
   245   163   239    1
   246   240   241    1
   247   240   283    1
   248   240   284    1
   249   240   285    1
   250   241   242    1
   251   241   286    1
   252   241   287    1
   253   242   243    1
   254   242   288    1
   255   242   289    1
   256   243   244    1
   257   243   290    1
   258   243   291    1
   259   244   245    1
   260   244   292    1
   261   244   293    1
   262   245   246    1
   263   245   294    1
   264   245   295    1
   265   246   247    1
   266   246   296    1
   267   246   297    1
   268   247   248    1
   269   247   298    1
   270   247   299    1
   271   248   249    1
   272   248   257    1
   273   249   250    1
   274   249   300    1
   275   249   301    1
   276   250   251    1
   277   250   302    1
   278   250   303    1
   279   251   252    1
   280   251   304    1
   281   251   305    1
   282   252   253    1
   283   252   306    1
   284   252   307    1
   285   253   254    1
   286   253   308    1
   287   253   309    1
   288   254   255    1
   289   254   310    1
   290   254   311    1
   291   255   256    1
   292   255   312    1
   293   255   313    1
   294   256   314    1
   295   256   315    1
   296   256   316    1
   297   257   258    2
   298   257   259    1
   299   259   260    1
   300   259   261    1
   301   259   317    1
   302   260   318    1
   303   260   319    1
   304   260   320    1
   305   261   262    1
   306   262   263    1
   307   262   264    1
   308   262   321    1
   309   263   322    1
   310   263   323    1
   311   263   324    1
   312   264   265    2
   313   264   266    1
   314   266   267    1
   315   266   275    1
   316   267   268    1
   317   267   325    1
   318   267   326    1
   319   268   269    1
   320   268   327    1
   321   268   328    1
   322   269   270    1
   323   269   329    1
   324   269   330    1
   325   270   271    1
   326   270   331    1
   327   270   332    1
   328   271   272    1
   329   271   333    1
   330   271   334    1
   331   272   273    1
   332   272   335    1
   333   272   336    1
   334   273   274    1
   335   273   337    1
   336   273   338    1
   337   274   339    1
   338   274   340    1
   339   274   341    1
   340   275   276    1
   341   275   342    1
   342   275   343    1
   343   276   277    1
   344   276   344    1
   345   276   345    1
   346   277   278    1
   347   277   346    1
   348   277   347    1
   349   278   279    1
   350   278   348    1
   351   278   349    1
   352   279   280    1
   353   279   350    1
   354   279   351    1
   355   280   281    1
   356   280   352    1
   357   280   353    1
   358   281   282    1
   359   281   354    1
   360   281   355    1
   361   282   356    1
   362   282   357    1
   363   282   358    1
@<TRIPOS>SUBSTRUCTURE
     1 RES1      358 GROUP             0 ****  ****    0  
