@<TRIPOS>MOLECULE
am_c3_9H2O_c0_0_nunpairedes_0_charge_3 Charge: 3 Unpaired_Electrons: 5 XTB_Unpaired_Electrons: 0 XTB_Charge: 3
   358   363     1     0     0
SMALL
NoCharges
****
Generated from Architector

@<TRIPOS>ATOM
     1 Sm1      -0.1107   -0.0044   -0.1020   Sm        1 RES1   0.0000
     2 C1        8.2020    5.7596   -2.8549   C.3       1 RES1   0.0000
     3 C2        7.0180    6.5710   -3.3702   C.3       1 RES1   0.0000
     4 C3        5.6888    5.8297   -3.2197   C.3       1 RES1   0.0000
     5 C4        4.4982    6.6692   -3.6927   C.3       1 RES1   0.0000
     6 C5        3.1559    5.9137   -3.6784   C.3       1 RES1   0.0000
     7 C6        2.4702    5.9161   -2.3042   C.3       1 RES1   0.0000
     8 C7        1.4632    4.7623   -2.1229   C.3       1 RES1   0.0000
     9 C8       -0.0616    5.0024   -2.1413   C.3       1 RES1   0.0000
    10 N1       -0.7394    4.8976   -0.8309   N.am      1 RES1   0.0000
    11 C9       -1.5751    6.0695   -0.5212   C.3       1 RES1   0.0000
    12 C10      -1.0089    7.3122    0.2007   C.3       1 RES1   0.0000
    13 C11       0.3742    7.8894   -0.1243   C.3       1 RES1   0.0000
    14 C12       1.5120    7.2826    0.7013   C.3       1 RES1   0.0000
    15 C13       2.8123    8.0917    0.6241   C.3       1 RES1   0.0000
    16 C14       3.8186    7.7010    1.7093   C.3       1 RES1   0.0000
    17 C15       4.5835    6.4132    1.4095   C.3       1 RES1   0.0000
    18 C16       5.3346    5.9169    2.6393   C.3       1 RES1   0.0000
    19 C17      -0.9305    3.6795   -0.2964   C.2       1 RES1   0.0000
    20 O1       -0.5746    2.6238   -0.8530   O.2       1 RES1   0.0000
    21 C18      -1.5119    3.5142    1.1258   C.3       1 RES1   0.0000
    22 C19      -0.9864    4.6205    2.0527   C.3       1 RES1   0.0000
    23 O2       -1.0636    2.1998    1.5378   O.3       1 RES1   0.0000
    24 C20      -1.7932    1.4830    2.5554   C.3       1 RES1   0.0000
    25 C21      -2.1136    2.2957    3.7898   C.3       1 RES1   0.0000
    26 C22      -2.7520    0.4542    1.9118   C.2       1 RES1   0.0000
    27 O3       -2.2944   -0.0388    0.8475   O.2       1 RES1   0.0000
    28 N2       -3.8064   -0.0753    2.5316   N.am      1 RES1   0.0000
    29 C23      -4.3260   -1.3773    2.0750   C.3       1 RES1   0.0000
    30 C24      -4.6035   -2.3781    3.2174   C.3       1 RES1   0.0000
    31 C25      -4.6883   -3.8518    2.7664   C.3       1 RES1   0.0000
    32 C26      -6.0918   -4.3819    2.4401   C.3       1 RES1   0.0000
    33 C27      -6.5665   -4.0275    1.0327   C.3       1 RES1   0.0000
    34 C28      -7.7365   -4.8853    0.5461   C.3       1 RES1   0.0000
    35 C29      -9.0097   -4.7565    1.3795   C.3       1 RES1   0.0000
    36 C30      -9.6153   -3.3581    1.3445   C.3       1 RES1   0.0000
    37 C31      -4.6693    0.5698    3.5124   C.3       1 RES1   0.0000
    38 C32      -5.8786    1.2845    2.8977   C.3       1 RES1   0.0000
    39 C33      -5.5188    2.5292    2.0779   C.3       1 RES1   0.0000
    40 C34      -5.2548    2.2305    0.5979   C.3       1 RES1   0.0000
    41 C35      -5.6714    3.3742   -0.3318   C.3       1 RES1   0.0000
    42 C36      -4.6123    4.4574   -0.4971   C.3       1 RES1   0.0000
    43 C37      -5.0958    5.6219   -1.3661   C.3       1 RES1   0.0000
    44 C38      -6.1836    6.4555   -0.7015   C.3       1 RES1   0.0000
    45 H1        9.1202    6.3281   -2.9717   H         1 RES1   0.0000
    46 H2        8.3067    4.8315   -3.4131   H         1 RES1   0.0000
    47 H3        8.0868    5.5211   -1.7986   H         1 RES1   0.0000
    48 H4        7.1802    6.8071   -4.4231   H         1 RES1   0.0000
    49 H5        6.9712    7.5166   -2.8281   H         1 RES1   0.0000
    50 H6        5.5577    5.5473   -2.1713   H         1 RES1   0.0000
    51 H7        5.7268    4.9124   -3.8122   H         1 RES1   0.0000
    52 H8        4.6943    6.9933   -4.7171   H         1 RES1   0.0000
    53 H9        4.4180    7.5678   -3.0767   H         1 RES1   0.0000
    54 H10       3.3316    4.8830   -4.0083   H         1 RES1   0.0000
    55 H11       2.4819    6.3732   -4.4025   H         1 RES1   0.0000
    56 H12       2.0173    6.8912   -2.1446   H         1 RES1   0.0000
    57 H13       3.2518    5.7862   -1.5555   H         1 RES1   0.0000
    58 H14       1.6831    4.2794   -1.1751   H         1 RES1   0.0000
    59 H15       1.6836    4.0744   -2.9364   H         1 RES1   0.0000
    60 H16      -0.5238    4.2579   -2.7991   H         1 RES1   0.0000
    61 H17      -0.2965    5.9882   -2.5337   H         1 RES1   0.0000
    62 H18      -2.4304    5.7368    0.0667   H         1 RES1   0.0000
    63 H19      -1.9458    6.4098   -1.4949   H         1 RES1   0.0000
    64 H20      -1.0643    7.1697    1.2777   H         1 RES1   0.0000
    65 H21      -1.7463    8.0766   -0.0440   H         1 RES1   0.0000
    66 H22       0.3279    8.9540    0.1080   H         1 RES1   0.0000
    67 H23       0.5823    7.8289   -1.1897   H         1 RES1   0.0000
    68 H24       1.7006    6.2558    0.3823   H         1 RES1   0.0000
    69 H25       1.1943    7.2592    1.7477   H         1 RES1   0.0000
    70 H26       2.5729    9.1479    0.7424   H         1 RES1   0.0000
    71 H27       3.2754    7.9719   -0.3551   H         1 RES1   0.0000
    72 H28       3.2922    7.5922    2.6595   H         1 RES1   0.0000
    73 H29       4.5471    8.5008    1.8356   H         1 RES1   0.0000
    74 H30       5.2915    6.5981    0.5987   H         1 RES1   0.0000
    75 H31       3.8886    5.6435    1.0669   H         1 RES1   0.0000
    76 H32       6.0793    6.6476    2.9364   H         1 RES1   0.0000
    77 H33       5.8394    4.9756    2.4416   H         1 RES1   0.0000
    78 H34       4.6539    5.7781    3.4776   H         1 RES1   0.0000
    79 H35      -2.6077    3.4954    1.0629   H         1 RES1   0.0000
    80 H36      -0.2218    5.2125    1.5576   H         1 RES1   0.0000
    81 H37      -0.5302    4.1895    2.9376   H         1 RES1   0.0000
    82 H38      -1.7758    5.2919    2.3807   H         1 RES1   0.0000
    83 H39      -1.0159    0.7827    2.8974   H         1 RES1   0.0000
    84 H40      -2.4275    1.6375    4.5905   H         1 RES1   0.0000
    85 H41      -2.8421    3.0803    3.6350   H         1 RES1   0.0000
    86 H42      -1.1799    2.7348    4.1237   H         1 RES1   0.0000
    87 H43      -3.5574   -1.7813    1.4159   H         1 RES1   0.0000
    88 H44      -5.2409   -1.2287    1.4945   H         1 RES1   0.0000
    89 H45      -5.5496   -2.1532    3.7135   H         1 RES1   0.0000
    90 H46      -3.8009   -2.2904    3.9565   H         1 RES1   0.0000
    91 H47      -4.3019   -4.4579    3.5861   H         1 RES1   0.0000
    92 H48      -4.0486   -4.0272    1.9010   H         1 RES1   0.0000
    93 H49      -6.8037   -4.0211    3.1827   H         1 RES1   0.0000
    94 H50      -6.0726   -5.4714    2.5195   H         1 RES1   0.0000
    95 H51      -5.7365   -4.2050    0.3430   H         1 RES1   0.0000
    96 H52      -6.8365   -2.9723    0.9896   H         1 RES1   0.0000
    97 H53      -7.4172   -5.9303    0.5453   H         1 RES1   0.0000
    98 H54      -7.9590   -4.6117   -0.4892   H         1 RES1   0.0000
    99 H55      -8.7992   -5.0453    2.4104   H         1 RES1   0.0000
   100 H56      -9.7388   -5.4650    0.9837   H         1 RES1   0.0000
   101 H57      -8.9617   -2.6255    1.8135   H         1 RES1   0.0000
   102 H58     -10.5613   -3.3533    1.8776   H         1 RES1   0.0000
   103 H59      -9.8020   -3.0514    0.3173   H         1 RES1   0.0000
   104 H60      -4.1270    1.2924    4.1032   H         1 RES1   0.0000
   105 H61      -5.0026   -0.2178    4.1876   H         1 RES1   0.0000
   106 H62      -6.5200    1.5690    3.7332   H         1 RES1   0.0000
   107 H63      -6.4746    0.5985    2.2940   H         1 RES1   0.0000
   108 H64      -4.6650    3.0331    2.5358   H         1 RES1   0.0000
   109 H65      -6.3644    3.2136    2.1415   H         1 RES1   0.0000
   110 H66      -5.8435    1.3556    0.3313   H         1 RES1   0.0000
   111 H67      -4.2070    1.9650    0.4153   H         1 RES1   0.0000
   112 H68      -6.5891    3.8246    0.0431   H         1 RES1   0.0000
   113 H69      -5.8993    2.9753   -1.3201   H         1 RES1   0.0000
   114 H70      -3.7342    4.0052   -0.9738   H         1 RES1   0.0000
   115 H71      -4.3217    4.8421    0.4865   H         1 RES1   0.0000
   116 H72      -5.4666    5.2265   -2.3130   H         1 RES1   0.0000
   117 H73      -4.2509    6.2731   -1.6028   H         1 RES1   0.0000
   118 H74      -7.1035    5.8895   -0.5854   H         1 RES1   0.0000
   119 H75      -6.4037    7.3290   -1.3088   H         1 RES1   0.0000
   120 H76      -5.8603    6.7878    0.2821   H         1 RES1   0.0000
   121 C39      -4.7167    0.2471    9.1093   C.3       1 RES1   0.0000
   122 C40      -3.2439    0.5064    9.3944   C.3       1 RES1   0.0000
   123 C41      -2.3750    0.0653    8.2193   C.3       1 RES1   0.0000
   124 C42      -0.8988    0.4086    8.4141   C.3       1 RES1   0.0000
   125 C43       0.0149   -0.2142    7.3534   C.3       1 RES1   0.0000
   126 C44      -0.3617    0.1914    5.9264   C.3       1 RES1   0.0000
   127 C45       0.5270   -0.4707    4.8727   C.3       1 RES1   0.0000
   128 C46       1.9050    0.1660    4.6678   C.3       1 RES1   0.0000
   129 N3        2.1093    1.2428    3.6675   N.am      1 RES1   0.0000
   130 C47       2.8740    2.3953    4.1480   C.3       1 RES1   0.0000
   131 C48       1.9443    3.6029    4.3868   C.3       1 RES1   0.0000
   132 C49       1.3129    3.6574    5.7864   C.3       1 RES1   0.0000
   133 C50       0.0620    4.5403    5.8489   C.3       1 RES1   0.0000
   134 C51      -0.6980    4.3870    7.1654   C.3       1 RES1   0.0000
   135 C52      -2.0195    5.1601    7.1716   C.3       1 RES1   0.0000
   136 C53      -3.1566    4.4925    6.3776   C.3       1 RES1   0.0000
   137 C54      -3.4879    5.2000    5.0636   C.3       1 RES1   0.0000
   138 C55       1.7617    1.0585    2.3850   C.2       1 RES1   0.0000
   139 O4        0.8532    0.2580    2.0808   O.2       1 RES1   0.0000
   140 C56       2.5382    1.7087    1.1964   C.3       1 RES1   0.0000
   141 C57       2.4569    3.2228    1.0458   C.3       1 RES1   0.0000
   142 O5        1.9651    1.0907    0.0292   O.3       1 RES1   0.0000
   143 C58       2.5709    1.3006   -1.2563   C.3       1 RES1   0.0000
   144 C59       1.4707    1.6119   -2.2845   C.3       1 RES1   0.0000
   145 C60       2.9971   -0.0477   -1.8540   C.2       1 RES1   0.0000
   146 O6        2.4077   -1.0500   -1.4468   O.2       1 RES1   0.0000
   147 N4        3.7521   -0.0398   -2.9531   N.am      1 RES1   0.0000
   148 C61       3.6737   -1.2418   -3.7828   C.3       1 RES1   0.0000
   149 C62       2.3006   -1.3366   -4.4647   C.3       1 RES1   0.0000
   150 C63       2.1356   -2.5854   -5.3345   C.3       1 RES1   0.0000
   151 C64       2.9790   -2.5729   -6.6157   C.3       1 RES1   0.0000
   152 C65       4.2912   -3.3462   -6.4898   C.3       1 RES1   0.0000
   153 C66       5.1848   -3.1994   -7.7217   C.3       1 RES1   0.0000
   154 C67       5.5852   -1.7687   -8.0902   C.3       1 RES1   0.0000
   155 C68       6.2647   -1.0054   -6.9587   C.3       1 RES1   0.0000
   156 C69       4.3294    1.1254   -3.6138   C.3       1 RES1   0.0000
   157 C70       5.8630    1.1691   -3.6166   C.3       1 RES1   0.0000
   158 C71       6.4646    1.7743   -2.3446   C.3       1 RES1   0.0000
   159 C72       6.6840    0.7336   -1.2490   C.3       1 RES1   0.0000
   160 C73       7.4124    1.2931   -0.0248   C.3       1 RES1   0.0000
   161 C74       6.5264    2.1290    0.8960   C.3       1 RES1   0.0000
   162 C75       7.1823    2.3946    2.2521   C.3       1 RES1   0.0000
   163 C76       8.3714    3.3411    2.1603   C.3       1 RES1   0.0000
   164 H77      -5.3275    0.5497    9.9520   H         1 RES1   0.0000
   165 H78      -4.8880   -0.8103    8.9264   H         1 RES1   0.0000
   166 H79      -5.0437    0.8064    8.2350   H         1 RES1   0.0000
   167 H80      -2.9411   -0.0375   10.2894   H         1 RES1   0.0000
   168 H81      -3.0904    1.5697    9.5862   H         1 RES1   0.0000
   169 H82      -2.7509    0.5517    7.3143   H         1 RES1   0.0000
   170 H83      -2.4792   -1.0149    8.0904   H         1 RES1   0.0000
   171 H84      -0.5754    0.0431    9.3893   H         1 RES1   0.0000
   172 H85      -0.7754    1.4943    8.4185   H         1 RES1   0.0000
   173 H86      -0.0535   -1.3028    7.4258   H         1 RES1   0.0000
   174 H87       1.0488    0.0706    7.5702   H         1 RES1   0.0000
   175 H88      -0.3413    1.2759    5.8329   H         1 RES1   0.0000
   176 H89      -1.3855   -0.1350    5.7435   H         1 RES1   0.0000
   177 H90       0.0191   -0.5289    3.9143   H         1 RES1   0.0000
   178 H91       0.7066   -1.4966    5.2012   H         1 RES1   0.0000
   179 H92       2.5968   -0.6286    4.3735   H         1 RES1   0.0000
   180 H93       2.2459    0.5536    5.6270   H         1 RES1   0.0000
   181 H94       3.6649    2.6375    3.4372   H         1 RES1   0.0000
   182 H95       3.3725    2.1330    5.0812   H         1 RES1   0.0000
   183 H96       1.1624    3.5325    3.6287   H         1 RES1   0.0000
   184 H97       2.4934    4.5336    4.2273   H         1 RES1   0.0000
   185 H98       2.0426    4.0514    6.4931   H         1 RES1   0.0000
   186 H99       1.0566    2.6532    6.1225   H         1 RES1   0.0000
   187 H100     -0.6180    4.2913    5.0344   H         1 RES1   0.0000
   188 H101      0.3443    5.5870    5.7286   H         1 RES1   0.0000
   189 H102     -0.0716    4.7452    7.9823   H         1 RES1   0.0000
   190 H103     -0.9050    3.3327    7.3591   H         1 RES1   0.0000
   191 H104     -1.8437    6.1578    6.7715   H         1 RES1   0.0000
   192 H105     -2.3385    5.2806    8.2057   H         1 RES1   0.0000
   193 H106     -4.0640    4.4845    6.9815   H         1 RES1   0.0000
   194 H107     -2.9017    3.4474    6.1866   H         1 RES1   0.0000
   195 H108     -3.8856    6.1932    5.2579   H         1 RES1   0.0000
   196 H109     -4.2436    4.6415    4.5080   H         1 RES1   0.0000
   197 H110     -2.6005    5.3145    4.4444   H         1 RES1   0.0000
   198 H111      3.5902    1.3937    1.3010   H         1 RES1   0.0000
   199 H112      1.4271    3.4915    0.8138   H         1 RES1   0.0000
   200 H113      3.1170    3.5414    0.2388   H         1 RES1   0.0000
   201 H114      2.7686    3.7480    1.9389   H         1 RES1   0.0000
   202 H115      3.3577    2.0553   -1.2046   H         1 RES1   0.0000
   203 H116      0.7805    0.7494   -2.3201   H         1 RES1   0.0000
   204 H117      1.8972    1.7140   -3.2774   H         1 RES1   0.0000
   205 H118      0.9085    2.4995   -2.0379   H         1 RES1   0.0000
   206 H119      3.8141   -2.1041   -3.1328   H         1 RES1   0.0000
   207 H120      4.4815   -1.2073   -4.5122   H         1 RES1   0.0000
   208 H121      2.1332   -0.4516   -5.0853   H         1 RES1   0.0000
   209 H122      1.5240   -1.3469   -3.6904   H         1 RES1   0.0000
   210 H123      1.0807   -2.6476   -5.6069   H         1 RES1   0.0000
   211 H124      2.3767   -3.4696   -4.7429   H         1 RES1   0.0000
   212 H125      3.1778   -1.5369   -6.8917   H         1 RES1   0.0000
   213 H126      2.4031   -3.0187   -7.4293   H         1 RES1   0.0000
   214 H127      4.0556   -4.4061   -6.3611   H         1 RES1   0.0000
   215 H128      4.8395   -3.0303   -5.6017   H         1 RES1   0.0000
   216 H129      4.6749   -3.6391   -8.5796   H         1 RES1   0.0000
   217 H130      6.0966   -3.7721   -7.5450   H         1 RES1   0.0000
   218 H131      4.7203   -1.2034   -8.4439   H         1 RES1   0.0000
   219 H132      6.2795   -1.8365   -8.9283   H         1 RES1   0.0000
   220 H133      5.5466   -0.7027   -6.1990   H         1 RES1   0.0000
   221 H134      6.7363   -0.1072   -7.3495   H         1 RES1   0.0000
   222 H135      7.0281   -1.6208   -6.4890   H         1 RES1   0.0000
   223 H136      3.9581    2.0453   -3.1624   H         1 RES1   0.0000
   224 H137      3.9767    1.0900   -4.6501   H         1 RES1   0.0000
   225 H138      6.1687    1.7625   -4.4796   H         1 RES1   0.0000
   226 H139      6.2596    0.1660   -3.7756   H         1 RES1   0.0000
   227 H140      5.8244    2.5882   -1.9932   H         1 RES1   0.0000
   228 H141      7.4309    2.2137   -2.5931   H         1 RES1   0.0000
   229 H142      7.2966   -0.0665   -1.6722   H         1 RES1   0.0000
   230 H143      5.7250    0.2900   -0.9575   H         1 RES1   0.0000
   231 H144      8.2622    1.8846   -0.3656   H         1 RES1   0.0000
   232 H145      7.8055    0.4538    0.5498   H         1 RES1   0.0000
   233 H146      5.5954    1.5743    1.0604   H         1 RES1   0.0000
   234 H147      6.2706    3.0791    0.4207   H         1 RES1   0.0000
   235 H148      7.5042    1.4450    2.6840   H         1 RES1   0.0000
   236 H149      6.4352    2.8161    2.9318   H         1 RES1   0.0000
   237 H150      9.1757    2.9039    1.5778   H         1 RES1   0.0000
   238 H151      8.7538    3.5580    3.1528   H         1 RES1   0.0000
   239 H152      8.0810    4.2783    1.6924   H         1 RES1   0.0000
   240 C77      -8.5969    5.1980   -3.7069   C.3       1 RES1   0.0000
   241 C78      -8.3936    3.7198   -4.0219   C.3       1 RES1   0.0000
   242 C79      -6.9166    3.3848   -4.2391   C.3       1 RES1   0.0000
   243 C80      -6.6826    1.8839   -4.3709   C.3       1 RES1   0.0000
   244 C81      -5.2221    1.4623   -4.5889   C.3       1 RES1   0.0000
   245 C82      -4.3193    1.6775   -3.3694   C.3       1 RES1   0.0000
   246 C83      -2.9642    0.9579   -3.3847   C.3       1 RES1   0.0000
   247 C84      -2.9465   -0.5443   -3.7134   C.3       1 RES1   0.0000
   248 N5       -3.1583   -1.5184   -2.6271   N.am      1 RES1   0.0000
   249 C85      -4.4456   -2.2122   -2.6178   C.3       1 RES1   0.0000
   250 C86      -5.3523   -1.8111   -1.4403   C.3       1 RES1   0.0000
   251 C87      -6.3815   -0.7047   -1.7105   C.3       1 RES1   0.0000
   252 C88      -7.5198   -0.7086   -0.6818   C.3       1 RES1   0.0000
   253 C89      -8.3944    0.5559   -0.7058   C.3       1 RES1   0.0000
   254 C90      -9.2574    0.6859    0.5568   C.3       1 RES1   0.0000
   255 C91     -10.1179    1.9574    0.6437   C.3       1 RES1   0.0000
   256 C92      -9.3818    3.1422    1.2626   C.3       1 RES1   0.0000
   257 C93      -2.1127   -1.7433   -1.8361   C.2       1 RES1   0.0000
   258 O7       -1.1504   -0.9280   -1.8578   O.2       1 RES1   0.0000
   259 C94      -1.8182   -3.0150   -0.9886   C.3       1 RES1   0.0000
   260 C95      -2.8866   -4.0437   -0.6374   C.3       1 RES1   0.0000
   261 O8       -1.2155   -2.4781    0.2047   O.3       1 RES1   0.0000
   262 C96      -0.4891   -3.3332    1.1050   C.3       1 RES1   0.0000
   263 C97      -1.0999   -3.0894    2.4850   C.3       1 RES1   0.0000
   264 C98       0.9775   -2.8359    1.0720   C.2       1 RES1   0.0000
   265 O9        1.1301   -1.7216    0.5436   O.2       1 RES1   0.0000
   266 N6        2.0237   -3.5246    1.5301   N.am      1 RES1   0.0000
   267 C99       3.3511   -3.0149    1.1640   C.3       1 RES1   0.0000
   268 C100      4.0329   -2.1390    2.2121   C.3       1 RES1   0.0000
   269 C101      5.3235   -1.5082    1.6803   C.3       1 RES1   0.0000
   270 C102      6.4824   -2.4927    1.4672   C.3       1 RES1   0.0000
   271 C103      6.5915   -3.0504    0.0462   C.3       1 RES1   0.0000
   272 C104      7.9390   -3.7288   -0.2217   C.3       1 RES1   0.0000
   273 C105      8.2836   -4.8818    0.7244   C.3       1 RES1   0.0000
   274 C106      7.2241   -5.9775    0.7738   C.3       1 RES1   0.0000
   275 C107      2.0084   -4.6187    2.5000   C.3       1 RES1   0.0000
   276 C108      2.7630   -5.8991    2.1084   C.3       1 RES1   0.0000
   277 C109      2.1636   -6.6072    0.8945   C.3       1 RES1   0.0000
   278 C110      2.6821   -6.0599   -0.4354   C.3       1 RES1   0.0000
   279 C111      1.8487   -6.5462   -1.6209   C.3       1 RES1   0.0000
   280 C112      0.5933   -5.6935   -1.7885   C.3       1 RES1   0.0000
   281 C113     -0.3606   -6.2217   -2.8587   C.3       1 RES1   0.0000
   282 C114     -1.1819   -7.4070   -2.3694   C.3       1 RES1   0.0000
   283 H153     -9.6553    5.4330   -3.6309   H         1 RES1   0.0000
   284 H154     -8.1657    5.8185   -4.4891   H         1 RES1   0.0000
   285 H155     -8.1225    5.4598   -2.7635   H         1 RES1   0.0000
   286 H156     -8.9536    3.4632   -4.9223   H         1 RES1   0.0000
   287 H157     -8.7935    3.1183   -3.2008   H         1 RES1   0.0000
   288 H158     -6.3420    3.7703   -3.3960   H         1 RES1   0.0000
   289 H159     -6.5707    3.8957   -5.1382   H         1 RES1   0.0000
   290 H160     -7.2714    1.5195   -5.2137   H         1 RES1   0.0000
   291 H161     -7.0745    1.3969   -3.4767   H         1 RES1   0.0000
   292 H162     -4.8032    2.0076   -5.4359   H         1 RES1   0.0000
   293 H163     -5.2430    0.4048   -4.8551   H         1 RES1   0.0000
   294 H164     -4.8470    1.3911   -2.4658   H         1 RES1   0.0000
   295 H165     -4.1065    2.7441   -3.2824   H         1 RES1   0.0000
   296 H166     -2.4717    1.1131   -2.4147   H         1 RES1   0.0000
   297 H167     -2.3495    1.4244   -4.1558   H         1 RES1   0.0000
   298 H168     -1.9518   -0.7672   -4.1136   H         1 RES1   0.0000
   299 H169     -3.6847   -0.7695   -4.4837   H         1 RES1   0.0000
   300 H170     -4.2747   -3.2893   -2.6141   H         1 RES1   0.0000
   301 H171     -4.9673   -1.9750   -3.5440   H         1 RES1   0.0000
   302 H172     -4.6995   -1.4895   -0.6293   H         1 RES1   0.0000
   303 H173     -5.9059   -2.6947   -1.1294   H         1 RES1   0.0000
   304 H174     -6.8009   -0.8166   -2.7105   H         1 RES1   0.0000
   305 H175     -5.8778    0.2576   -1.6669   H         1 RES1   0.0000
   306 H176     -7.0907   -0.8312    0.3174   H         1 RES1   0.0000
   307 H177     -8.1534   -1.5742   -0.8707   H         1 RES1   0.0000
   308 H178     -9.0499    0.5086   -1.5766   H         1 RES1   0.0000
   309 H179     -7.7771    1.4498   -0.8138   H         1 RES1   0.0000
   310 H180     -8.6241    0.6578    1.4481   H         1 RES1   0.0000
   311 H181     -9.9195   -0.1781    0.6074   H         1 RES1   0.0000
   312 H182    -10.9831    1.7403    1.2739   H         1 RES1   0.0000
   313 H183    -10.4935    2.2324   -0.3431   H         1 RES1   0.0000
   314 H184    -10.0505    3.9938    1.3774   H         1 RES1   0.0000
   315 H185     -8.5458    3.4473    0.6377   H         1 RES1   0.0000
   316 H186     -9.0053    2.8718    2.2488   H         1 RES1   0.0000
   317 H187     -1.0397   -3.5179   -1.5904   H         1 RES1   0.0000
   318 H188     -3.7791   -3.5761   -0.2388   H         1 RES1   0.0000
   319 H189     -2.4822   -4.7176    0.1189   H         1 RES1   0.0000
   320 H190     -3.1488   -4.6648   -1.4884   H         1 RES1   0.0000
   321 H191     -0.5559   -4.3854    0.8161   H         1 RES1   0.0000
   322 H192     -1.2738   -2.0148    2.5709   H         1 RES1   0.0000
   323 H193     -0.4429   -3.4096    3.2866   H         1 RES1   0.0000
   324 H194     -2.0470   -3.6126    2.5729   H         1 RES1   0.0000
   325 H195      3.2177   -2.4383    0.2467   H         1 RES1   0.0000
   326 H196      3.9871   -3.8712    0.9533   H         1 RES1   0.0000
   327 H197      4.2719   -2.7267    3.0994   H         1 RES1   0.0000
   328 H198      3.3388   -1.3448    2.4975   H         1 RES1   0.0000
   329 H199      5.6459   -0.7529    2.3998   H         1 RES1   0.0000
   330 H200      5.1037   -1.0008    0.7399   H         1 RES1   0.0000
   331 H201      6.3867   -3.3139    2.1779   H         1 RES1   0.0000
   332 H202      7.4224   -1.9831    1.6912   H         1 RES1   0.0000
   333 H203      6.4832   -2.2290   -0.6669   H         1 RES1   0.0000
   334 H204      5.7899   -3.7618   -0.1562   H         1 RES1   0.0000
   335 H205      8.7326   -2.9803   -0.1532   H         1 RES1   0.0000
   336 H206      7.9319   -4.1073   -1.2475   H         1 RES1   0.0000
   337 H207      8.4613   -4.4986    1.7316   H         1 RES1   0.0000
   338 H208      9.2208   -5.3212    0.3779   H         1 RES1   0.0000
   339 H209      6.3179   -5.6362    1.2712   H         1 RES1   0.0000
   340 H210      7.6063   -6.8311    1.3266   H         1 RES1   0.0000
   341 H211      6.9671   -6.3075   -0.2303   H         1 RES1   0.0000
   342 H212      0.9712   -4.8870    2.7004   H         1 RES1   0.0000
   343 H213      2.4543   -4.2325    3.4287   H         1 RES1   0.0000
   344 H214      2.7004   -6.5562    2.9787   H         1 RES1   0.0000
   345 H215      3.8248   -5.7096    1.9416   H         1 RES1   0.0000
   346 H216      1.0756   -6.5293    0.9451   H         1 RES1   0.0000
   347 H217      2.4154   -7.6661    0.9520   H         1 RES1   0.0000
   348 H218      3.7201   -6.3757   -0.5519   H         1 RES1   0.0000
   349 H219      2.6637   -4.9691   -0.4372   H         1 RES1   0.0000
   350 H220      1.5835   -7.5923   -1.4718   H         1 RES1   0.0000
   351 H221      2.4402   -6.4784   -2.5342   H         1 RES1   0.0000
   352 H222      0.9149   -4.6759   -2.0371   H         1 RES1   0.0000
   353 H223      0.0606   -5.6518   -0.8343   H         1 RES1   0.0000
   354 H224      0.2126   -6.5116   -3.7390   H         1 RES1   0.0000
   355 H225     -1.0394   -5.4203   -3.1641   H         1 RES1   0.0000
   356 H226     -0.5428   -8.2461   -2.1154   H         1 RES1   0.0000
   357 H227     -1.8716   -7.7320   -3.1417   H         1 RES1   0.0000
   358 H228     -1.7584   -7.1397   -1.4856   H         1 RES1   0.0000
@<TRIPOS>BOND
     1     1    20    1
     2     1    23    1
     3     1    27    1
     4     1   139    1
     5     1   142    1
     6     1   146    1
     7     1   258    1
     8     1   261    1
     9     1   265    1
    10     2     3    1
    11     2    45    1
    12     2    46    1
    13     2    47    1
    14     3     4    1
    15     3    48    1
    16     3    49    1
    17     4     5    1
    18     4    50    1
    19     4    51    1
    20     5     6    1
    21     5    52    1
    22     5    53    1
    23     6     7    1
    24     6    54    1
    25     6    55    1
    26     7     8    1
    27     7    56    1
    28     7    57    1
    29     8     9    1
    30     8    58    1
    31     8    59    1
    32     9    10    1
    33     9    60    1
    34     9    61    1
    35    10    11    1
    36    10    19    1
    37    11    12    1
    38    11    62    1
    39    11    63    1
    40    12    13    1
    41    12    64    1
    42    12    65    1
    43    13    14    1
    44    13    66    1
    45    13    67    1
    46    14    15    1
    47    14    68    1
    48    14    69    1
    49    15    16    1
    50    15    70    1
    51    15    71    1
    52    16    17    1
    53    16    72    1
    54    16    73    1
    55    17    18    1
    56    17    74    1
    57    17    75    1
    58    18    76    1
    59    18    77    1
    60    18    78    1
    61    19    20    2
    62    19    21    1
    63    21    22    1
    64    21    23    1
    65    21    79    1
    66    22    80    1
    67    22    81    1
    68    22    82    1
    69    23    24    1
    70    24    25    1
    71    24    26    1
    72    24    83    1
    73    25    84    1
    74    25    85    1
    75    25    86    1
    76    26    27    2
    77    26    28    1
    78    28    29    1
    79    28    37    1
    80    29    30    1
    81    29    87    1
    82    29    88    1
    83    30    31    1
    84    30    89    1
    85    30    90    1
    86    31    32    1
    87    31    91    1
    88    31    92    1
    89    32    33    1
    90    32    93    1
    91    32    94    1
    92    33    34    1
    93    33    95    1
    94    33    96    1
    95    34    35    1
    96    34    97    1
    97    34    98    1
    98    35    36    1
    99    35    99    1
   100    35   100    1
   101    36   101    1
   102    36   102    1
   103    36   103    1
   104    37    38    1
   105    37   104    1
   106    37   105    1
   107    38    39    1
   108    38   106    1
   109    38   107    1
   110    39    40    1
   111    39   108    1
   112    39   109    1
   113    40    41    1
   114    40   110    1
   115    40   111    1
   116    41    42    1
   117    41   112    1
   118    41   113    1
   119    42    43    1
   120    42   114    1
   121    42   115    1
   122    43    44    1
   123    43   116    1
   124    43   117    1
   125    44   118    1
   126    44   119    1
   127    44   120    1
   128   121   122    1
   129   121   164    1
   130   121   165    1
   131   121   166    1
   132   122   123    1
   133   122   167    1
   134   122   168    1
   135   123   124    1
   136   123   169    1
   137   123   170    1
   138   124   125    1
   139   124   171    1
   140   124   172    1
   141   125   126    1
   142   125   173    1
   143   125   174    1
   144   126   127    1
   145   126   175    1
   146   126   176    1
   147   127   128    1
   148   127   177    1
   149   127   178    1
   150   128   129    1
   151   128   179    1
   152   128   180    1
   153   129   130    1
   154   129   138    1
   155   130   131    1
   156   130   181    1
   157   130   182    1
   158   131   132    1
   159   131   183    1
   160   131   184    1
   161   132   133    1
   162   132   185    1
   163   132   186    1
   164   133   134    1
   165   133   187    1
   166   133   188    1
   167   134   135    1
   168   134   189    1
   169   134   190    1
   170   135   136    1
   171   135   191    1
   172   135   192    1
   173   136   137    1
   174   136   193    1
   175   136   194    1
   176   137   195    1
   177   137   196    1
   178   137   197    1
   179   138   139    2
   180   138   140    1
   181   140   141    1
   182   140   142    1
   183   140   198    1
   184   141   199    1
   185   141   200    1
   186   141   201    1
   187   142   143    1
   188   143   144    1
   189   143   145    1
   190   143   202    1
   191   144   203    1
   192   144   204    1
   193   144   205    1
   194   145   146    2
   195   145   147    1
   196   147   148    1
   197   147   156    1
   198   148   149    1
   199   148   206    1
   200   148   207    1
   201   149   150    1
   202   149   208    1
   203   149   209    1
   204   150   151    1
   205   150   210    1
   206   150   211    1
   207   151   152    1
   208   151   212    1
   209   151   213    1
   210   152   153    1
   211   152   214    1
   212   152   215    1
   213   153   154    1
   214   153   216    1
   215   153   217    1
   216   154   155    1
   217   154   218    1
   218   154   219    1
   219   155   220    1
   220   155   221    1
   221   155   222    1
   222   156   157    1
   223   156   223    1
   224   156   224    1
   225   157   158    1
   226   157   225    1
   227   157   226    1
   228   158   159    1
   229   158   227    1
   230   158   228    1
   231   159   160    1
   232   159   229    1
   233   159   230    1
   234   160   161    1
   235   160   231    1
   236   160   232    1
   237   161   162    1
   238   161   233    1
   239   161   234    1
   240   162   163    1
   241   162   235    1
   242   162   236    1
   243   163   237    1
   244   163   238    1
   245   163   239    1
   246   240   241    1
   247   240   283    1
   248   240   284    1
   249   240   285    1
   250   241   242    1
   251   241   286    1
   252   241   287    1
   253   242   243    1
   254   242   288    1
   255   242   289    1
   256   243   244    1
   257   243   290    1
   258   243   291    1
   259   244   245    1
   260   244   292    1
   261   244   293    1
   262   245   246    1
   263   245   294    1
   264   245   295    1
   265   246   247    1
   266   246   296    1
   267   246   297    1
   268   247   248    1
   269   247   298    1
   270   247   299    1
   271   248   249    1
   272   248   257    1
   273   249   250    1
   274   249   300    1
   275   249   301    1
   276   250   251    1
   277   250   302    1
   278   250   303    1
   279   251   252    1
   280   251   304    1
   281   251   305    1
   282   252   253    1
   283   252   306    1
   284   252   307    1
   285   253   254    1
   286   253   308    1
   287   253   309    1
   288   254   255    1
   289   254   310    1
   290   254   311    1
   291   255   256    1
   292   255   312    1
   293   255   313    1
   294   256   314    1
   295   256   315    1
   296   256   316    1
   297   257   258    2
   298   257   259    1
   299   259   260    1
   300   259   261    1
   301   259   317    1
   302   260   318    1
   303   260   319    1
   304   260   320    1
   305   261   262    1
   306   262   263    1
   307   262   264    1
   308   262   321    1
   309   263   322    1
   310   263   323    1
   311   263   324    1
   312   264   265    2
   313   264   266    1
   314   266   267    1
   315   266   275    1
   316   267   268    1
   317   267   325    1
   318   267   326    1
   319   268   269    1
   320   268   327    1
   321   268   328    1
   322   269   270    1
   323   269   329    1
   324   269   330    1
   325   270   271    1
   326   270   331    1
   327   270   332    1
   328   271   272    1
   329   271   333    1
   330   271   334    1
   331   272   273    1
   332   272   335    1
   333   272   336    1
   334   273   274    1
   335   273   337    1
   336   273   338    1
   337   274   339    1
   338   274   340    1
   339   274   341    1
   340   275   276    1
   341   275   342    1
   342   275   343    1
   343   276   277    1
   344   276   344    1
   345   276   345    1
   346   277   278    1
   347   277   346    1
   348   277   347    1
   349   278   279    1
   350   278   348    1
   351   278   349    1
   352   279   280    1
   353   279   350    1
   354   279   351    1
   355   280   281    1
   356   280   352    1
   357   280   353    1
   358   281   282    1
   359   281   354    1
   360   281   355    1
   361   282   356    1
   362   282   357    1
   363   282   358    1
@<TRIPOS>SUBSTRUCTURE
     1 RES1      358 GROUP             0 ****  ****    0  
