@<TRIPOS>MOLECULE
ICIGOT_geomtry_0_nunpairedes_0_charge_3 Charge: 3 Unpaired_Electrons: 4 XTB_Unpaired_Electrons: 0 XTB_Charge: 3
   281   288     1     0     0
SMALL
NoCharges
****
Generated from Architector

@<TRIPOS>ATOM
     1 Ho1      -0.0003   -0.0588    0.0089   Ho        1 RES1   0.0000
     2 C1       -8.0927   -7.1701    0.4576   C.3       1 RES1   0.0000
     3 C2       -6.6211   -7.1876    0.0675   C.3       1 RES1   0.0000
     4 C3       -6.1743   -5.8623   -0.5480   C.3       1 RES1   0.0000
     5 C4       -6.8240   -5.5903   -1.9031   C.3       1 RES1   0.0000
     6 C5       -6.2008   -4.4316   -2.6831   C.3       1 RES1   0.0000
     7 C6       -6.4895   -3.0492   -2.0891   C.3       1 RES1   0.0000
     8 C7       -5.5644   -2.6201   -0.9440   C.3       1 RES1   0.0000
     9 C8       -4.1617   -2.2934   -1.4371   C.3       1 RES1   0.0000
    10 P1       -2.9048   -1.8613   -0.1799   P.3       1 RES1   0.0000
    11 O1       -1.8507   -1.0600   -0.8754   O.2       1 RES1   0.0000
    12 C9       -3.7916   -0.8947    1.1310   C.3       1 RES1   0.0000
    13 C10      -2.7580   -0.7135    2.2117   C.2       1 RES1   0.0000
    14 O2       -1.5761   -0.6995    1.8138   O.2       1 RES1   0.0000
    15 N1       -3.0812   -0.6298    3.4995   N.am      1 RES1   0.0000
    16 C11      -2.0153   -0.4810    4.4833   C.3       1 RES1   0.0000
    17 C12      -1.8170    0.9447    5.0242   C.3       1 RES1   0.0000
    18 C13      -3.0957    1.5573    5.5870   C.3       1 RES1   0.0000
    19 C14      -1.2038    1.8389    3.9507   C.3       1 RES1   0.0000
    20 C15      -4.4090   -0.9705    3.9822   C.3       1 RES1   0.0000
    21 C16      -4.7104   -2.4782    3.8844   C.3       1 RES1   0.0000
    22 C17      -3.8236   -3.2947    4.8179   C.3       1 RES1   0.0000
    23 C18      -6.1921   -2.7030    4.1702   C.3       1 RES1   0.0000
    24 C19      -2.2015   -3.3832    0.5281   C.ar      1 RES1   0.0000
    25 C20      -2.9969   -4.4187    1.0121   C.ar      1 RES1   0.0000
    26 C21      -2.4245   -5.6271    1.3677   C.ar      1 RES1   0.0000
    27 C22      -1.0573   -5.8111    1.2410   C.ar      1 RES1   0.0000
    28 C23      -0.2584   -4.7781    0.7675   C.ar      1 RES1   0.0000
    29 C24      -0.8262   -3.5644    0.4131   C.ar      1 RES1   0.0000
    30 H1       -8.3565   -8.0840    0.9791   H         1 RES1   0.0000
    31 H2       -8.7271   -7.0889   -0.4192   H         1 RES1   0.0000
    32 H3       -8.3041   -6.3297    1.1153   H         1 RES1   0.0000
    33 H4       -6.4367   -7.9982   -0.6381   H         1 RES1   0.0000
    34 H5       -6.0162   -7.3819    0.9576   H         1 RES1   0.0000
    35 H6       -5.0864   -5.8704   -0.6750   H         1 RES1   0.0000
    36 H7       -6.4365   -5.0721    0.1585   H         1 RES1   0.0000
    37 H8       -7.8871   -5.3922   -1.7697   H         1 RES1   0.0000
    38 H9       -6.7313   -6.4943   -2.5066   H         1 RES1   0.0000
    39 H10      -6.6160   -4.4546   -3.6920   H         1 RES1   0.0000
    40 H11      -5.1247   -4.5934   -2.7732   H         1 RES1   0.0000
    41 H12      -7.5186   -3.0450   -1.7245   H         1 RES1   0.0000
    42 H13      -6.4223   -2.2951   -2.8769   H         1 RES1   0.0000
    43 H14      -5.5285   -3.4104   -0.2013   H         1 RES1   0.0000
    44 H15      -5.9992   -1.7366   -0.4738   H         1 RES1   0.0000
    45 H16      -4.1990   -1.4317   -2.1086   H         1 RES1   0.0000
    46 H17      -3.7419   -3.1347   -1.9915   H         1 RES1   0.0000
    47 H18      -4.7175   -1.3608    1.4404   H         1 RES1   0.0000
    48 H19      -4.0144    0.0716    0.6698   H         1 RES1   0.0000
    49 H20      -1.0882   -0.7746    3.9888   H         1 RES1   0.0000
    50 H21      -2.2141   -1.1592    5.3132   H         1 RES1   0.0000
    51 H22      -1.1006    0.8600    5.8501   H         1 RES1   0.0000
    52 H23      -3.8384    1.7085    4.8081   H         1 RES1   0.0000
    53 H24      -2.8728    2.5234    6.0316   H         1 RES1   0.0000
    54 H25      -3.5150    0.9260    6.3665   H         1 RES1   0.0000
    55 H26      -1.8241    1.8451    3.0571   H         1 RES1   0.0000
    56 H27      -0.2162    1.4791    3.6607   H         1 RES1   0.0000
    57 H28      -1.1283    2.8578    4.3220   H         1 RES1   0.0000
    58 H29      -5.1536   -0.4079    3.4182   H         1 RES1   0.0000
    59 H30      -4.4832   -0.6736    5.0279   H         1 RES1   0.0000
    60 H31      -4.4931   -2.8232    2.8706   H         1 RES1   0.0000
    61 H32      -3.9444   -2.9812    5.8510   H         1 RES1   0.0000
    62 H33      -2.7767   -3.1932    4.5393   H         1 RES1   0.0000
    63 H34      -4.0890   -4.3464    4.7506   H         1 RES1   0.0000
    64 H35      -6.4471   -2.3517    5.1655   H         1 RES1   0.0000
    65 H36      -6.4430   -3.7580    4.1075   H         1 RES1   0.0000
    66 H37      -6.8100   -2.1663    3.4537   H         1 RES1   0.0000
    67 H38      -4.0647   -4.3001    1.0947   H         1 RES1   0.0000
    68 H39      -3.0462   -6.4324    1.7266   H         1 RES1   0.0000
    69 H40      -0.6104   -6.7542    1.5087   H         1 RES1   0.0000
    70 H41       0.8054   -4.9322    0.6698   H         1 RES1   0.0000
    71 H42      -0.2047   -2.7467    0.0293   H         1 RES1   0.0000
    72 C25      -0.2369    2.8063  -10.6205   C.3       1 RES1   0.0000
    73 C26       0.4673    3.4391   -9.4277   C.3       1 RES1   0.0000
    74 C27      -0.3015    3.2390   -8.1210   C.3       1 RES1   0.0000
    75 C28      -1.6220    4.0067   -8.0861   C.3       1 RES1   0.0000
    76 C29      -2.2546    4.1232   -6.6979   C.3       1 RES1   0.0000
    77 C30      -2.8635    2.8227   -6.1666   C.3       1 RES1   0.0000
    78 C31      -1.8906    1.8448   -5.4972   C.3       1 RES1   0.0000
    79 C32      -1.4585    2.2698   -4.0943   C.3       1 RES1   0.0000
    80 P2       -0.1736    1.1978   -3.3287   P.3       1 RES1   0.0000
    81 O3       -0.1181    1.3921   -1.8398   O.2       1 RES1   0.0000
    82 C33      -0.8516   -0.4959   -3.6983   C.3       1 RES1   0.0000
    83 C34      -0.0026   -1.6272   -3.1923   C.2       1 RES1   0.0000
    84 O4        0.4853   -1.5262   -2.0499   O.2       1 RES1   0.0000
    85 N2        0.1409   -2.7286   -3.9367   N.am      1 RES1   0.0000
    86 C35       0.8006   -3.8877   -3.3463   C.3       1 RES1   0.0000
    87 C36       0.0353   -5.2294   -3.3504   C.3       1 RES1   0.0000
    88 C37       0.0463   -5.9653   -4.6898   C.3       1 RES1   0.0000
    89 C38      -1.3922   -5.1063   -2.8219   C.3       1 RES1   0.0000
    90 C39      -0.1346   -2.7581   -5.3657   C.3       1 RES1   0.0000
    91 C40       0.6624   -1.7389   -6.2012   C.3       1 RES1   0.0000
    92 C41       2.1611   -1.9104   -5.9874   C.3       1 RES1   0.0000
    93 C42       0.2594   -1.8928   -7.6651   C.3       1 RES1   0.0000
    94 C43       1.4382    1.6974   -4.0096   C.ar      1 RES1   0.0000
    95 C44       1.7826    1.7003   -5.3545   C.ar      1 RES1   0.0000
    96 C45       2.9846    2.2566   -5.7563   C.ar      1 RES1   0.0000
    97 C46       3.8360    2.8289   -4.8225   C.ar      1 RES1   0.0000
    98 C47       3.4866    2.8456   -3.4806   C.ar      1 RES1   0.0000
    99 C48       2.2935    2.2785   -3.0740   C.ar      1 RES1   0.0000
   100 H43       0.3803    2.8876  -11.5094   H         1 RES1   0.0000
   101 H44      -1.1823    3.2998  -10.8221   H         1 RES1   0.0000
   102 H45      -0.4296    1.7514  -10.4371   H         1 RES1   0.0000
   103 H46       0.6054    4.5060   -9.6071   H         1 RES1   0.0000
   104 H47       1.4604    2.9939   -9.3213   H         1 RES1   0.0000
   105 H48       0.3220    3.5751   -7.2863   H         1 RES1   0.0000
   106 H49      -0.4855    2.1684   -8.0053   H         1 RES1   0.0000
   107 H50      -2.3389    3.5427   -8.7630   H         1 RES1   0.0000
   108 H51      -1.4314    5.0160   -8.4529   H         1 RES1   0.0000
   109 H52      -3.0594    4.8567   -6.7661   H         1 RES1   0.0000
   110 H53      -1.5183    4.5173   -5.9957   H         1 RES1   0.0000
   111 H54      -3.3386    2.3058   -7.0041   H         1 RES1   0.0000
   112 H55      -3.6463    3.0579   -5.4422   H         1 RES1   0.0000
   113 H56      -1.0161    1.7217   -6.1293   H         1 RES1   0.0000
   114 H57      -2.4026    0.8837   -5.4365   H         1 RES1   0.0000
   115 H58      -2.3158    2.2578   -3.4159   H         1 RES1   0.0000
   116 H59      -1.0508    3.2829   -4.1149   H         1 RES1   0.0000
   117 H60      -1.1804   -0.5943   -4.7220   H         1 RES1   0.0000
   118 H61      -1.7369   -0.4968   -3.0496   H         1 RES1   0.0000
   119 H62       0.9614   -3.6218   -2.3008   H         1 RES1   0.0000
   120 H63       1.7686   -4.0379   -3.8370   H         1 RES1   0.0000
   121 H64       0.5968   -5.8511   -2.6406   H         1 RES1   0.0000
   122 H65      -0.7014   -5.5813   -5.3788   H         1 RES1   0.0000
   123 H66      -0.1804   -7.0135   -4.5191   H         1 RES1   0.0000
   124 H67       1.0278   -5.9119   -5.1541   H         1 RES1   0.0000
   125 H68      -2.0048   -4.4887   -3.4755   H         1 RES1   0.0000
   126 H69      -1.4078   -4.6757   -1.8231   H         1 RES1   0.0000
   127 H70      -1.8409   -6.0961   -2.7673   H         1 RES1   0.0000
   128 H71      -1.2071   -2.6283   -5.5407   H         1 RES1   0.0000
   129 H72       0.1571   -3.7452   -5.7152   H         1 RES1   0.0000
   130 H73       0.4243   -0.7208   -5.8938   H         1 RES1   0.0000
   131 H74       2.4877   -2.9067   -6.2694   H         1 RES1   0.0000
   132 H75       2.4109   -1.7396   -4.9427   H         1 RES1   0.0000
   133 H76       2.7150   -1.1885   -6.5817   H         1 RES1   0.0000
   134 H77       0.5093   -2.8839   -8.0301   H         1 RES1   0.0000
   135 H78       0.7677   -1.1598   -8.2859   H         1 RES1   0.0000
   136 H79      -0.8130   -1.7530   -7.7822   H         1 RES1   0.0000
   137 H80       1.1275    1.2814   -6.1019   H         1 RES1   0.0000
   138 H81       3.2537    2.2517   -6.8001   H         1 RES1   0.0000
   139 H82       4.7714    3.2593   -5.1375   H         1 RES1   0.0000
   140 H83       4.1475    3.2920   -2.7534   H         1 RES1   0.0000
   141 H84       2.0174    2.2573   -2.0259   H         1 RES1   0.0000
   142 C49      -4.4141    9.7015    2.2230   C.3       1 RES1   0.0000
   143 C50      -4.9810    8.2893    2.2772   C.3       1 RES1   0.0000
   144 C51      -4.3649    7.3731    1.2203   C.3       1 RES1   0.0000
   145 C52      -4.7528    7.7667   -0.2032   C.3       1 RES1   0.0000
   146 C53      -4.4398    6.7050   -1.2593   C.3       1 RES1   0.0000
   147 C54      -2.9519    6.5709   -1.5993   C.3       1 RES1   0.0000
   148 C55      -2.1418    5.6719   -0.6551   C.3       1 RES1   0.0000
   149 C56      -2.3582    4.1750   -0.9080   C.3       1 RES1   0.0000
   150 P3       -1.7299    3.1500    0.4855   P.3       1 RES1   0.0000
   151 O5       -1.7359    1.6693    0.2825   O.2       1 RES1   0.0000
   152 C57       0.0173    3.8143    0.5617   C.3       1 RES1   0.0000
   153 C58       1.0757    2.9709    1.2246   C.2       1 RES1   0.0000
   154 O6        1.1540    1.7597    0.9239   O.2       1 RES1   0.0000
   155 N3        1.9553    3.5480    2.0490   N.am      1 RES1   0.0000
   156 C59       3.0060    2.7559    2.6666   C.3       1 RES1   0.0000
   157 C60       4.4332    2.9511    2.1042   C.3       1 RES1   0.0000
   158 C61       5.1465    4.2066    2.6103   C.3       1 RES1   0.0000
   159 C62       4.4561    2.8995    0.5787   C.3       1 RES1   0.0000
   160 C63       1.8947    4.9362    2.4659   C.3       1 RES1   0.0000
   161 C64       0.7537    5.2480    3.4464   C.3       1 RES1   0.0000
   162 C65       1.0110    4.6617    4.8311   C.3       1 RES1   0.0000
   163 C66       0.5822    6.7633    3.5173   C.3       1 RES1   0.0000
   164 C67      -2.9234    3.5730    1.8066   C.ar      1 RES1   0.0000
   165 C68      -2.8574    4.5655    2.7687   C.ar      1 RES1   0.0000
   166 C69      -3.9233    4.7627    3.6334   C.ar      1 RES1   0.0000
   167 C70      -5.0743    4.0015    3.5145   C.ar      1 RES1   0.0000
   168 C71      -5.1674    3.0381    2.5222   C.ar      1 RES1   0.0000
   169 C72      -4.0933    2.8257    1.6771   C.ar      1 RES1   0.0000
   170 H85      -4.8027   10.2966    3.0430   H         1 RES1   0.0000
   171 H86      -4.6836   10.1939    1.2942   H         1 RES1   0.0000
   172 H87      -3.3294    9.6820    2.3017   H         1 RES1   0.0000
   173 H88      -6.0625    8.3229    2.1412   H         1 RES1   0.0000
   174 H89      -4.7885    7.8618    3.2651   H         1 RES1   0.0000
   175 H90      -4.6963    6.3460    1.4016   H         1 RES1   0.0000
   176 H91      -3.2804    7.4067    1.3430   H         1 RES1   0.0000
   177 H92      -4.2599    8.6977   -0.4797   H         1 RES1   0.0000
   178 H93      -5.8281    7.9485   -0.2165   H         1 RES1   0.0000
   179 H94      -4.9675    6.9829   -2.1724   H         1 RES1   0.0000
   180 H95      -4.8438    5.7456   -0.9320   H         1 RES1   0.0000
   181 H96      -2.5108    7.5705   -1.5881   H         1 RES1   0.0000
   182 H97      -2.8424    6.1794   -2.6132   H         1 RES1   0.0000
   183 H98      -2.4126    5.9123    0.3712   H         1 RES1   0.0000
   184 H99      -1.0869    5.9184   -0.7920   H         1 RES1   0.0000
   185 H100     -1.8538    3.8658   -1.8229   H         1 RES1   0.0000
   186 H101     -3.4255    3.9734   -1.0177   H         1 RES1   0.0000
   187 H102     -0.0166    4.8428    0.8891   H         1 RES1   0.0000
   188 H103      0.2636    3.7914   -0.5090   H         1 RES1   0.0000
   189 H104      2.7120    1.7142    2.5284   H         1 RES1   0.0000
   190 H105      3.0186    2.9926    3.7339   H         1 RES1   0.0000
   191 H106      5.0056    2.0972    2.4881   H         1 RES1   0.0000
   192 H107      4.7754    5.1141    2.1423   H         1 RES1   0.0000
   193 H108      6.2035    4.1337    2.3703   H         1 RES1   0.0000
   194 H109      5.0638    4.2968    3.6911   H         1 RES1   0.0000
   195 H110      3.9344    3.7555    0.1572   H         1 RES1   0.0000
   196 H111      3.9830    1.9937    0.2005   H         1 RES1   0.0000
   197 H112      5.4862    2.9296    0.2324   H         1 RES1   0.0000
   198 H113      1.8237    5.5784    1.5861   H         1 RES1   0.0000
   199 H114      2.8324    5.1618    2.9671   H         1 RES1   0.0000
   200 H115     -0.1616    4.7880    3.0712   H         1 RES1   0.0000
   201 H116      1.9119    5.0832    5.2668   H         1 RES1   0.0000
   202 H117      1.1148    3.5799    4.7876   H         1 RES1   0.0000
   203 H118      0.1767    4.8906    5.4907   H         1 RES1   0.0000
   204 H119      1.4829    7.2178    3.9211   H         1 RES1   0.0000
   205 H120     -0.2532    7.0360    4.1565   H         1 RES1   0.0000
   206 H121      0.4066    7.1850    2.5292   H         1 RES1   0.0000
   207 H122     -1.9963    5.2055    2.8608   H         1 RES1   0.0000
   208 H123     -3.8574    5.5232    4.3934   H         1 RES1   0.0000
   209 H124     -5.9064    4.1702    4.1776   H         1 RES1   0.0000
   210 H125     -6.0787    2.4727    2.3953   H         1 RES1   0.0000
   211 H126     -4.1530    2.0898    0.8880   H         1 RES1   0.0000
   212 C73       6.6451   -4.5214    7.3889   C.3       1 RES1   0.0000
   213 C74       5.1232   -4.4695    7.3681   C.3       1 RES1   0.0000
   214 C75       4.5914   -3.1884    6.7243   C.3       1 RES1   0.0000
   215 C76       4.8879   -1.9419    7.5571   C.3       1 RES1   0.0000
   216 C77       4.0598   -0.7091    7.1891   C.3       1 RES1   0.0000
   217 C78       4.5135    0.0131    5.9195   C.3       1 RES1   0.0000
   218 C79       4.0733   -0.6097    4.5932   C.3       1 RES1   0.0000
   219 C80       2.5707   -0.5552    4.3279   C.3       1 RES1   0.0000
   220 P4        2.1193   -1.4026    2.7618   P.3       1 RES1   0.0000
   221 O7        0.9279   -0.7971    2.0954   O.2       1 RES1   0.0000
   222 C81       3.5877   -1.0587    1.6614   C.3       1 RES1   0.0000
   223 C82       3.2721   -1.3794    0.2246   C.2       1 RES1   0.0000
   224 O8        2.2746   -0.8331   -0.2845   O.2       1 RES1   0.0000
   225 N4        4.0784   -2.2042   -0.4462   N.am      1 RES1   0.0000
   226 C83       3.7843   -2.5669   -1.8208   C.3       1 RES1   0.0000
   227 C84       4.5319   -1.7455   -2.8865   C.3       1 RES1   0.0000
   228 C85       6.0516   -1.7475   -2.7561   C.3       1 RES1   0.0000
   229 C86       4.0073   -0.3154   -2.8981   C.3       1 RES1   0.0000
   230 C87       5.2261   -2.8552    0.1552   C.3       1 RES1   0.0000
   231 C88       4.8590   -3.9447    1.1715   C.3       1 RES1   0.0000
   232 C89       4.1018   -5.0926    0.5142   C.3       1 RES1   0.0000
   233 C90       6.1433   -4.4090    1.8507   C.3       1 RES1   0.0000
   234 C91       1.7189   -3.1024    3.2973   C.ar      1 RES1   0.0000
   235 C92       2.6073   -3.9854    3.9020   C.ar      1 RES1   0.0000
   236 C93       2.1349   -5.1386    4.5054   C.ar      1 RES1   0.0000
   237 C94       0.7759   -5.4077    4.5360   C.ar      1 RES1   0.0000
   238 C95      -0.1155   -4.5170    3.9592   C.ar      1 RES1   0.0000
   239 C96       0.3540   -3.3707    3.3430   C.ar      1 RES1   0.0000
   240 H127      6.9853   -5.4779    7.7725   H         1 RES1   0.0000
   241 H128      7.0532   -3.7413    8.0235   H         1 RES1   0.0000
   242 H129      7.0473   -4.3967    6.3857   H         1 RES1   0.0000
   243 H130      4.7394   -4.5494    8.3857   H         1 RES1   0.0000
   244 H131      4.7443   -5.3284    6.8072   H         1 RES1   0.0000
   245 H132      3.5086   -3.2774    6.5923   H         1 RES1   0.0000
   246 H133      5.0486   -3.1018    5.7366   H         1 RES1   0.0000
   247 H134      5.9459   -1.6909    7.4880   H         1 RES1   0.0000
   248 H135      4.6762   -2.1836    8.5989   H         1 RES1   0.0000
   249 H136      4.1480    0.0036    8.0097   H         1 RES1   0.0000
   250 H137      3.0074   -0.9861    7.1157   H         1 RES1   0.0000
   251 H138      5.6060    0.0493    5.9196   H         1 RES1   0.0000
   252 H139      4.1524    1.0443    5.9413   H         1 RES1   0.0000
   253 H140      4.3995   -1.6469    4.5607   H         1 RES1   0.0000
   254 H141      4.5941   -0.0647    3.8044   H         1 RES1   0.0000
   255 H142      2.2117    0.4724    4.2742   H         1 RES1   0.0000
   256 H143      2.0226   -1.0563    5.1262   H         1 RES1   0.0000
   257 H144      4.5102   -1.4669    2.0455   H         1 RES1   0.0000
   258 H145      3.6343    0.0341    1.7152   H         1 RES1   0.0000
   259 H146      2.7167   -2.4015   -1.9681   H         1 RES1   0.0000
   260 H147      4.0198   -3.6269   -1.9388   H         1 RES1   0.0000
   261 H148      4.2853   -2.2101   -3.8476   H         1 RES1   0.0000
   262 H149      6.3718   -1.2571   -1.8408   H         1 RES1   0.0000
   263 H150      6.4762   -1.2003   -3.5943   H         1 RES1   0.0000
   264 H151      6.4534   -2.7568   -2.7848   H         1 RES1   0.0000
   265 H152      4.2801    0.2041   -1.9821   H         1 RES1   0.0000
   266 H153      2.9211   -0.3054   -2.9739   H         1 RES1   0.0000
   267 H154      4.4220    0.2309   -3.7412   H         1 RES1   0.0000
   268 H155      5.8710   -2.1083    0.6234   H         1 RES1   0.0000
   269 H156      5.7954   -3.3220   -0.6460   H         1 RES1   0.0000
   270 H157      4.1894   -3.5263    1.9228   H         1 RES1   0.0000
   271 H158      4.7031   -5.5717   -0.2528   H         1 RES1   0.0000
   272 H159      3.1805   -4.7297    0.0604   H         1 RES1   0.0000
   273 H160      3.8390   -5.8385    1.2602   H         1 RES1   0.0000
   274 H161      6.8201   -4.8440    1.1209   H         1 RES1   0.0000
   275 H162      5.9384   -5.1519    2.6164   H         1 RES1   0.0000
   276 H163      6.6531   -3.5670    2.3155   H         1 RES1   0.0000
   277 H164      3.6648   -3.7860    3.9318   H         1 RES1   0.0000
   278 H165      2.8268   -5.8179    4.9765   H         1 RES1   0.0000
   279 H166      0.4081   -6.2976    5.0208   H         1 RES1   0.0000
   280 H167     -1.1750   -4.7194    3.9981   H         1 RES1   0.0000
   281 H168     -0.3327   -2.6667    2.8928   H         1 RES1   0.0000
@<TRIPOS>BOND
     1     1    11    1
     2     1    14    1
     3     1    81    1
     4     1    84    1
     5     1   151    1
     6     1   154    1
     7     1   221    1
     8     1   224    1
     9     2     3    1
    10     2    30    1
    11     2    31    1
    12     2    32    1
    13     3     4    1
    14     3    33    1
    15     3    34    1
    16     4     5    1
    17     4    35    1
    18     4    36    1
    19     5     6    1
    20     5    37    1
    21     5    38    1
    22     6     7    1
    23     6    39    1
    24     6    40    1
    25     7     8    1
    26     7    41    1
    27     7    42    1
    28     8     9    1
    29     8    43    1
    30     8    44    1
    31     9    10    1
    32     9    45    1
    33     9    46    1
    34    10    11    2
    35    10    12    1
    36    10    24    1
    37    12    13    1
    38    12    47    1
    39    12    48    1
    40    13    14    2
    41    13    15    1
    42    15    16    1
    43    15    20    1
    44    16    17    1
    45    16    49    1
    46    16    50    1
    47    17    18    1
    48    17    19    1
    49    17    51    1
    50    18    52    1
    51    18    53    1
    52    18    54    1
    53    19    55    1
    54    19    56    1
    55    19    57    1
    56    20    21    1
    57    20    58    1
    58    20    59    1
    59    21    22    1
    60    21    23    1
    61    21    60    1
    62    22    61    1
    63    22    62    1
    64    22    63    1
    65    23    64    1
    66    23    65    1
    67    23    66    1
    68    24    25    1
    69    24    29    2
    70    25    26    2
    71    25    67    1
    72    26    27    1
    73    26    68    1
    74    27    28    2
    75    27    69    1
    76    28    29    1
    77    28    70    1
    78    29    71    1
    79    72    73    1
    80    72   100    1
    81    72   101    1
    82    72   102    1
    83    73    74    1
    84    73   103    1
    85    73   104    1
    86    74    75    1
    87    74   105    1
    88    74   106    1
    89    75    76    1
    90    75   107    1
    91    75   108    1
    92    76    77    1
    93    76   109    1
    94    76   110    1
    95    77    78    1
    96    77   111    1
    97    77   112    1
    98    78    79    1
    99    78   113    1
   100    78   114    1
   101    79    80    1
   102    79   115    1
   103    79   116    1
   104    80    81    2
   105    80    82    1
   106    80    94    1
   107    82    83    1
   108    82   117    1
   109    82   118    1
   110    83    84    2
   111    83    85    1
   112    85    86    1
   113    85    90    1
   114    86    87    1
   115    86   119    1
   116    86   120    1
   117    87    88    1
   118    87    89    1
   119    87   121    1
   120    88   122    1
   121    88   123    1
   122    88   124    1
   123    89   125    1
   124    89   126    1
   125    89   127    1
   126    90    91    1
   127    90   128    1
   128    90   129    1
   129    91    92    1
   130    91    93    1
   131    91   130    1
   132    92   131    1
   133    92   132    1
   134    92   133    1
   135    93   134    1
   136    93   135    1
   137    93   136    1
   138    94    95    1
   139    94    99    2
   140    95    96    2
   141    95   137    1
   142    96    97    1
   143    96   138    1
   144    97    98    2
   145    97   139    1
   146    98    99    1
   147    98   140    1
   148    99   141    1
   149   142   143    1
   150   142   170    1
   151   142   171    1
   152   142   172    1
   153   143   144    1
   154   143   173    1
   155   143   174    1
   156   144   145    1
   157   144   175    1
   158   144   176    1
   159   145   146    1
   160   145   177    1
   161   145   178    1
   162   146   147    1
   163   146   179    1
   164   146   180    1
   165   147   148    1
   166   147   181    1
   167   147   182    1
   168   148   149    1
   169   148   183    1
   170   148   184    1
   171   149   150    1
   172   149   185    1
   173   149   186    1
   174   150   151    2
   175   150   152    1
   176   150   164    1
   177   152   153    1
   178   152   187    1
   179   152   188    1
   180   153   154    2
   181   153   155    1
   182   155   156    1
   183   155   160    1
   184   156   157    1
   185   156   189    1
   186   156   190    1
   187   157   158    1
   188   157   159    1
   189   157   191    1
   190   158   192    1
   191   158   193    1
   192   158   194    1
   193   159   195    1
   194   159   196    1
   195   159   197    1
   196   160   161    1
   197   160   198    1
   198   160   199    1
   199   161   162    1
   200   161   163    1
   201   161   200    1
   202   162   201    1
   203   162   202    1
   204   162   203    1
   205   163   204    1
   206   163   205    1
   207   163   206    1
   208   164   165    1
   209   164   169    2
   210   165   166    2
   211   165   207    1
   212   166   167    1
   213   166   208    1
   214   167   168    2
   215   167   209    1
   216   168   169    1
   217   168   210    1
   218   169   211    1
   219   212   213    1
   220   212   240    1
   221   212   241    1
   222   212   242    1
   223   213   214    1
   224   213   243    1
   225   213   244    1
   226   214   215    1
   227   214   245    1
   228   214   246    1
   229   215   216    1
   230   215   247    1
   231   215   248    1
   232   216   217    1
   233   216   249    1
   234   216   250    1
   235   217   218    1
   236   217   251    1
   237   217   252    1
   238   218   219    1
   239   218   253    1
   240   218   254    1
   241   219   220    1
   242   219   255    1
   243   219   256    1
   244   220   221    2
   245   220   222    1
   246   220   234    1
   247   222   223    1
   248   222   257    1
   249   222   258    1
   250   223   224    2
   251   223   225    1
   252   225   226    1
   253   225   230    1
   254   226   227    1
   255   226   259    1
   256   226   260    1
   257   227   228    1
   258   227   229    1
   259   227   261    1
   260   228   262    1
   261   228   263    1
   262   228   264    1
   263   229   265    1
   264   229   266    1
   265   229   267    1
   266   230   231    1
   267   230   268    1
   268   230   269    1
   269   231   232    1
   270   231   233    1
   271   231   270    1
   272   232   271    1
   273   232   272    1
   274   232   273    1
   275   233   274    1
   276   233   275    1
   277   233   276    1
   278   234   235    1
   279   234   239    2
   280   235   236    2
   281   235   277    1
   282   236   237    1
   283   236   278    1
   284   237   238    2
   285   237   279    1
   286   238   239    1
   287   238   280    1
   288   239   281    1
@<TRIPOS>SUBSTRUCTURE
     1 RES1      281 GROUP             0 ****  ****    0  
