@<TRIPOS>MOLECULE
ICIGOT_geomtry_0_nunpairedes_0_charge_3 Charge: 3 Unpaired_Electrons: 3 XTB_Unpaired_Electrons: 0 XTB_Charge: 3
   281   288     1     0     0
SMALL
NoCharges
****
Generated from Architector

@<TRIPOS>ATOM
     1 Er1      -0.2097   -0.0990    0.1484   Er        1 RES1   0.0000
     2 C1        7.0409    4.0162   -2.0933   C.3       1 RES1   0.0000
     3 C2        5.5908    3.5643   -2.1175   C.3       1 RES1   0.0000
     4 C3        5.3188    2.6452   -3.3050   C.3       1 RES1   0.0000
     5 C4        3.9149    2.0358   -3.2699   C.3       1 RES1   0.0000
     6 C5        2.8082    3.0351   -3.6260   C.3       1 RES1   0.0000
     7 C6        1.4095    2.4908   -3.2957   C.3       1 RES1   0.0000
     8 C7        1.1352    1.2418   -4.1155   C.3       1 RES1   0.0000
     9 C8       -0.3078    0.8058   -4.3125   C.3       1 RES1   0.0000
    10 P1       -1.4807    0.8417   -2.9110   P.3       1 RES1   0.0000
    11 O1       -0.8400    1.1440   -1.5960   O.2       1 RES1   0.0000
    12 C9       -2.6641   -0.6272   -2.9636   C.3       1 RES1   0.0000
    13 C10      -2.6945   -1.5099   -1.7319   C.2       1 RES1   0.0000
    14 O2       -1.9808   -1.2231   -0.7425   O.2       1 RES1   0.0000
    15 N1       -3.5284   -2.5572   -1.6862   N.am      1 RES1   0.0000
    16 C11      -4.3819   -3.0148   -2.7822   C.3       1 RES1   0.0000
    17 C12      -5.8563   -3.3997   -2.4755   C.3       1 RES1   0.0000
    18 C13      -6.0703   -4.8603   -2.0775   C.3       1 RES1   0.0000
    19 C14      -6.6054   -2.4984   -1.4970   C.3       1 RES1   0.0000
    20 C15      -3.6176   -3.2624   -0.4122   C.3       1 RES1   0.0000
    21 C16      -2.6621   -4.4413   -0.1675   C.3       1 RES1   0.0000
    22 C17      -1.2117   -4.0351   -0.3933   C.3       1 RES1   0.0000
    23 C18      -3.0031   -5.7047   -0.9550   C.3       1 RES1   0.0000
    24 C19      -2.5653    2.2124   -3.4488   C.ar      1 RES1   0.0000
    25 C20      -2.7860    2.5015   -4.7929   C.ar      1 RES1   0.0000
    26 C21      -3.4556    3.6518   -5.1679   C.ar      1 RES1   0.0000
    27 C22      -3.9429    4.5238   -4.2087   C.ar      1 RES1   0.0000
    28 C23      -3.7959    4.2048   -2.8704   C.ar      1 RES1   0.0000
    29 C24      -3.1187    3.0530   -2.4982   C.ar      1 RES1   0.0000
    30 H1        7.2335    4.6462   -1.2300   H         1 RES1   0.0000
    31 H2        7.2745    4.5804   -2.9910   H         1 RES1   0.0000
    32 H3        7.7019    3.1544   -2.0480   H         1 RES1   0.0000
    33 H4        4.9415    4.4401   -2.1647   H         1 RES1   0.0000
    34 H5        5.3642    3.0265   -1.1948   H         1 RES1   0.0000
    35 H6        6.0513    1.8331   -3.2927   H         1 RES1   0.0000
    36 H7        5.4548    3.1965   -4.2378   H         1 RES1   0.0000
    37 H8        3.7205    1.6469   -2.2627   H         1 RES1   0.0000
    38 H9        3.8841    1.1951   -3.9719   H         1 RES1   0.0000
    39 H10       2.8724    3.2680   -4.6939   H         1 RES1   0.0000
    40 H11       2.9721    3.9664   -3.0779   H         1 RES1   0.0000
    41 H12       0.6620    3.2551   -3.5173   H         1 RES1   0.0000
    42 H13       1.3716    2.2491   -2.2304   H         1 RES1   0.0000
    43 H14       1.7069    0.4203   -3.6923   H         1 RES1   0.0000
    44 H15       1.5142    1.4557   -5.1112   H         1 RES1   0.0000
    45 H16      -0.3253   -0.1912   -4.7363   H         1 RES1   0.0000
    46 H17      -0.7400    1.4724   -5.0480   H         1 RES1   0.0000
    47 H18      -2.4300   -1.2048   -3.8576   H         1 RES1   0.0000
    48 H19      -3.6583   -0.1832   -3.0977   H         1 RES1   0.0000
    49 H20      -3.9188   -3.8900   -3.2516   H         1 RES1   0.0000
    50 H21      -4.4030   -2.2307   -3.5357   H         1 RES1   0.0000
    51 H22      -6.3451   -3.2755   -3.4474   H         1 RES1   0.0000
    52 H23      -5.9003   -5.0354   -1.0191   H         1 RES1   0.0000
    53 H24      -5.4382   -5.5310   -2.6497   H         1 RES1   0.0000
    54 H25      -7.1023   -5.1303   -2.2806   H         1 RES1   0.0000
    55 H26      -6.2330   -2.5434   -0.4779   H         1 RES1   0.0000
    56 H27      -7.6411   -2.8230   -1.4676   H         1 RES1   0.0000
    57 H28      -6.5917   -1.4671   -1.8170   H         1 RES1   0.0000
    58 H29      -4.6309   -3.6304   -0.3057   H         1 RES1   0.0000
    59 H30      -3.4130   -2.5064    0.3527   H         1 RES1   0.0000
    60 H31      -2.7923   -4.6925    0.8900   H         1 RES1   0.0000
    61 H32      -1.0586   -3.7960   -1.4408   H         1 RES1   0.0000
    62 H33      -0.5482   -4.8587   -0.1322   H         1 RES1   0.0000
    63 H34      -0.9557   -3.1481    0.1983   H         1 RES1   0.0000
    64 H35      -2.9759   -5.5390   -2.0283   H         1 RES1   0.0000
    65 H36      -3.9875   -6.0703   -0.6772   H         1 RES1   0.0000
    66 H37      -2.2815   -6.4848   -0.7178   H         1 RES1   0.0000
    67 H38      -2.4817    1.8158   -5.5668   H         1 RES1   0.0000
    68 H39      -3.6040    3.8572   -6.2129   H         1 RES1   0.0000
    69 H40      -4.4450    5.4305   -4.5098   H         1 RES1   0.0000
    70 H41      -4.2025    4.8596   -2.1151   H         1 RES1   0.0000
    71 H42      -3.0214    2.7657   -1.4630   H         1 RES1   0.0000
    72 C25      -6.7737    1.9623   -5.4771   C.3       1 RES1   0.0000
    73 C26      -5.7879    1.3144   -4.5180   C.3       1 RES1   0.0000
    74 C27      -6.4471    0.4689   -3.4322   C.3       1 RES1   0.0000
    75 C28      -7.1720    1.2646   -2.3427   C.3       1 RES1   0.0000
    76 C29      -6.2757    2.0724   -1.3938   C.3       1 RES1   0.0000
    77 C30      -5.3545    1.2088   -0.5189   C.3       1 RES1   0.0000
    78 C31      -5.0861    1.7869    0.8752   C.3       1 RES1   0.0000
    79 C32      -4.2941    3.0957    0.8835   C.3       1 RES1   0.0000
    80 P2       -2.4717    2.8071    0.8008   P.3       1 RES1   0.0000
    81 O3       -2.2133    1.3553    0.5560   O.2       1 RES1   0.0000
    82 C33      -1.6822    3.2415    2.4278   C.3       1 RES1   0.0000
    83 C34      -0.1987    3.0453    2.1417   C.2       1 RES1   0.0000
    84 O4        0.1503    2.1918    1.3001   O.2       1 RES1   0.0000
    85 N2        0.6964    3.8201    2.7591   N.am      1 RES1   0.0000
    86 C35       0.3757    4.5918    3.9562   C.3       1 RES1   0.0000
    87 C36       0.3577    6.1312    3.8338   C.3       1 RES1   0.0000
    88 C37      -0.2809    6.6082    2.5349   C.3       1 RES1   0.0000
    89 C38       1.7476    6.7320    4.0126   C.3       1 RES1   0.0000
    90 C39       2.1126    3.6394    2.4320   C.3       1 RES1   0.0000
    91 C40       2.7051    4.5065    1.2982   C.3       1 RES1   0.0000
    92 C41       2.7266    3.7319   -0.0128   C.3       1 RES1   0.0000
    93 C42       4.1345    4.9354    1.6437   C.3       1 RES1   0.0000
    94 C43      -1.7572    4.2099   -0.1589   C.ar      1 RES1   0.0000
    95 C44      -0.6176    4.1324   -0.9422   C.ar      1 RES1   0.0000
    96 C45      -0.0754    5.2769   -1.5017   C.ar      1 RES1   0.0000
    97 C46      -0.6798    6.5074   -1.3047   C.ar      1 RES1   0.0000
    98 C47      -1.8546    6.5824   -0.5746   C.ar      1 RES1   0.0000
    99 C48      -2.3803    5.4425    0.0080   C.ar      1 RES1   0.0000
   100 H43      -6.2315    2.4819   -6.2625   H         1 RES1   0.0000
   101 H44      -7.4033    2.6820   -4.9632   H         1 RES1   0.0000
   102 H45      -7.4085    1.2116   -5.9393   H         1 RES1   0.0000
   103 H46      -5.1897    2.0883   -4.0448   H         1 RES1   0.0000
   104 H47      -5.1132    0.6729   -5.0939   H         1 RES1   0.0000
   105 H48      -5.6729   -0.1479   -2.9672   H         1 RES1   0.0000
   106 H49      -7.1703   -0.2023   -3.9012   H         1 RES1   0.0000
   107 H50      -7.7638    0.5682   -1.7425   H         1 RES1   0.0000
   108 H51      -7.8717    1.9485   -2.8251   H         1 RES1   0.0000
   109 H52      -6.9395    2.6499   -0.7473   H         1 RES1   0.0000
   110 H53      -5.6938    2.7843   -1.9781   H         1 RES1   0.0000
   111 H54      -4.3997    1.0336   -1.0210   H         1 RES1   0.0000
   112 H55      -5.8332    0.2384   -0.3720   H         1 RES1   0.0000
   113 H56      -4.5412    1.0316    1.4455   H         1 RES1   0.0000
   114 H57      -6.0421    1.9597    1.3725   H         1 RES1   0.0000
   115 H58      -4.5111    3.6629    1.7891   H         1 RES1   0.0000
   116 H59      -4.5822    3.7046    0.0276   H         1 RES1   0.0000
   117 H60      -2.0425    2.5517    3.1928   H         1 RES1   0.0000
   118 H61      -1.9141    4.2639    2.7096   H         1 RES1   0.0000
   119 H62       1.1233    4.3246    4.7105   H         1 RES1   0.0000
   120 H63      -0.5925    4.2535    4.3269   H         1 RES1   0.0000
   121 H64      -0.2615    6.4812    4.6652   H         1 RES1   0.0000
   122 H65       0.2437    6.2135    1.6691   H         1 RES1   0.0000
   123 H66      -0.2394    7.6913    2.4845   H         1 RES1   0.0000
   124 H67      -1.3254    6.3151    2.4684   H         1 RES1   0.0000
   125 H68       2.3661    6.5551    3.1410   H         1 RES1   0.0000
   126 H69       2.2375    6.3216    4.8927   H         1 RES1   0.0000
   127 H70       1.6715    7.8052    4.1519   H         1 RES1   0.0000
   128 H71       2.2366    2.5893    2.1499   H         1 RES1   0.0000
   129 H72       2.6720    3.8476    3.3421   H         1 RES1   0.0000
   130 H73       2.0964    5.4031    1.1560   H         1 RES1   0.0000
   131 H74       3.4229    2.8986    0.0534   H         1 RES1   0.0000
   132 H75       3.0574    4.3789   -0.8194   H         1 RES1   0.0000
   133 H76       1.7415    3.3430   -0.2463   H         1 RES1   0.0000
   134 H77       4.7981    4.0736    1.6687   H         1 RES1   0.0000
   135 H78       4.1860    5.4434    2.6032   H         1 RES1   0.0000
   136 H79       4.5186    5.6182    0.8904   H         1 RES1   0.0000
   137 H80      -0.1768    3.1661   -1.1180   H         1 RES1   0.0000
   138 H81       0.8241    5.2120   -2.0934   H         1 RES1   0.0000
   139 H82      -0.2459    7.4003   -1.7254   H         1 RES1   0.0000
   140 H83      -2.3585    7.5261   -0.4469   H         1 RES1   0.0000
   141 H84      -3.2811    5.5144    0.5965   H         1 RES1   0.0000
   142 C49       8.7179   -0.0619    0.3927   C.3       1 RES1   0.0000
   143 C50       7.2206   -0.1242    0.6596   C.3       1 RES1   0.0000
   144 C51       6.6231    1.2375    1.0271   C.3       1 RES1   0.0000
   145 C52       6.8457    1.6479    2.4874   C.3       1 RES1   0.0000
   146 C53       5.8761    1.0284    3.5033   C.3       1 RES1   0.0000
   147 C54       4.4151    1.4203    3.2553   C.3       1 RES1   0.0000
   148 C55       3.4970    1.1851    4.4607   C.3       1 RES1   0.0000
   149 C56       2.7919   -0.1676    4.4916   C.3       1 RES1   0.0000
   150 P3        1.3604   -0.5341    3.3715   P.3       1 RES1   0.0000
   151 O5        1.4483   -0.1046    1.9366   O.2       1 RES1   0.0000
   152 C57      -0.1355    0.2176    4.1918   C.3       1 RES1   0.0000
   153 C58      -1.3353   -0.3481    3.4508   C.2       1 RES1   0.0000
   154 O6       -1.1580   -0.7637    2.2831   O.2       1 RES1   0.0000
   155 N3       -2.5148   -0.4482    4.0670   N.am      1 RES1   0.0000
   156 C59      -2.8465    0.2829    5.2881   C.3       1 RES1   0.0000
   157 C60      -3.0580   -0.5119    6.6018   C.3       1 RES1   0.0000
   158 C61      -2.1189   -1.7057    6.7412   C.3       1 RES1   0.0000
   159 C62      -4.5208   -0.8979    6.8154   C.3       1 RES1   0.0000
   160 C63      -3.6067   -1.1095    3.3548   C.3       1 RES1   0.0000
   161 C64      -3.8096   -2.5936    3.7092   C.3       1 RES1   0.0000
   162 C65      -2.5878   -3.4311    3.3482   C.3       1 RES1   0.0000
   163 C66      -5.0807   -3.0837    3.0178   C.3       1 RES1   0.0000
   164 C67       1.0816   -2.3086    3.6472   C.ar      1 RES1   0.0000
   165 C68       0.6959   -3.1353    2.6022   C.ar      1 RES1   0.0000
   166 C69       0.4332   -4.4751    2.8438   C.ar      1 RES1   0.0000
   167 C70       0.5327   -4.9872    4.1281   C.ar      1 RES1   0.0000
   168 C71       0.9390   -4.1673    5.1692   C.ar      1 RES1   0.0000
   169 C72       1.2134   -2.8342    4.9287   C.ar      1 RES1   0.0000
   170 H85       9.0872   -1.0363    0.0830   H         1 RES1   0.0000
   171 H86       9.2616    0.2357    1.2839   H         1 RES1   0.0000
   172 H87       8.9349    0.6526   -0.3968   H         1 RES1   0.0000
   173 H88       7.0359   -0.8361    1.4645   H         1 RES1   0.0000
   174 H89       6.7216   -0.4905   -0.2440   H         1 RES1   0.0000
   175 H90       5.5509    1.2325    0.8118   H         1 RES1   0.0000
   176 H91       7.0819    1.9935    0.3867   H         1 RES1   0.0000
   177 H92       6.7669    2.7365    2.5620   H         1 RES1   0.0000
   178 H93       7.8630    1.3803    2.7793   H         1 RES1   0.0000
   179 H94       6.1707    1.3920    4.4903   H         1 RES1   0.0000
   180 H95       5.9998   -0.0544    3.5189   H         1 RES1   0.0000
   181 H96       4.0159    0.8973    2.3852   H         1 RES1   0.0000
   182 H97       4.4217    2.4858    3.0345   H         1 RES1   0.0000
   183 H98       2.7458    1.9738    4.5193   H         1 RES1   0.0000
   184 H99       4.1032    1.2531    5.3684   H         1 RES1   0.0000
   185 H100      2.4019   -0.3109    5.5002   H         1 RES1   0.0000
   186 H101      3.5119   -0.9653    4.3152   H         1 RES1   0.0000
   187 H102     -0.0828    1.3048    4.1051   H         1 RES1   0.0000
   188 H103     -0.1394   -0.0569    5.2446   H         1 RES1   0.0000
   189 H104     -3.7746    0.8252    5.0787   H         1 RES1   0.0000
   190 H105     -2.0630    1.0227    5.4548   H         1 RES1   0.0000
   191 H106     -2.8058    0.1876    7.4047   H         1 RES1   0.0000
   192 H107     -2.2837   -2.4461    5.9672   H         1 RES1   0.0000
   193 H108     -2.2859   -2.1857    7.7004   H         1 RES1   0.0000
   194 H109     -1.0772   -1.3943    6.7078   H         1 RES1   0.0000
   195 H110     -4.9025   -1.5442    6.0332   H         1 RES1   0.0000
   196 H111     -5.1460   -0.0094    6.8636   H         1 RES1   0.0000
   197 H112     -4.6263   -1.4243    7.7586   H         1 RES1   0.0000
   198 H113     -3.3765   -1.0339    2.2859   H         1 RES1   0.0000
   199 H114     -4.5329   -0.5691    3.5649   H         1 RES1   0.0000
   200 H115     -3.9698   -2.6978    4.7824   H         1 RES1   0.0000
   201 H116     -2.2704   -3.2322    2.3300   H         1 RES1   0.0000
   202 H117     -2.8036   -4.4925    3.4501   H         1 RES1   0.0000
   203 H118     -1.7512   -3.2024    4.0050   H         1 RES1   0.0000
   204 H119     -5.0285   -2.9280    1.9441   H         1 RES1   0.0000
   205 H120     -5.9460   -2.5514    3.4067   H         1 RES1   0.0000
   206 H121     -5.2313   -4.1428    3.2079   H         1 RES1   0.0000
   207 H122      0.6008   -2.7007    1.6119   H         1 RES1   0.0000
   208 H123      0.1370   -5.1278    2.0387   H         1 RES1   0.0000
   209 H124      0.2927   -6.0207    4.3191   H         1 RES1   0.0000
   210 H125      1.0444   -4.5582    6.1675   H         1 RES1   0.0000
   211 H126      1.5313   -2.2056    5.7438   H         1 RES1   0.0000
   212 C73      -0.4075    5.0575   -6.5864   C.3       1 RES1   0.0000
   213 C74       0.4586    3.8069   -6.4883   C.3       1 RES1   0.0000
   214 C75       0.7536    3.1287   -7.8289   C.3       1 RES1   0.0000
   215 C76       1.9306    2.1226   -7.7851   C.3       1 RES1   0.0000
   216 C77       1.5965    0.6799   -8.2101   C.3       1 RES1   0.0000
   217 C78       1.0774   -0.2529   -7.0991   C.3       1 RES1   0.0000
   218 C79       2.1376   -0.8476   -6.1475   C.3       1 RES1   0.0000
   219 C80       1.5549   -1.8716   -5.1420   C.3       1 RES1   0.0000
   220 P4        1.2423   -1.9136   -3.2706   P.3       1 RES1   0.0000
   221 O7        0.2607   -1.0848   -2.4900   O.2       1 RES1   0.0000
   222 C81       2.9051   -1.8414   -2.4308   C.3       1 RES1   0.0000
   223 C82       2.7819   -2.3236   -0.9957   C.2       1 RES1   0.0000
   224 O8        1.8253   -1.8876   -0.3204   O.2       1 RES1   0.0000
   225 N4        3.6589   -3.2311   -0.5275   N.am      1 RES1   0.0000
   226 C83       4.9692   -3.5381   -1.1080   C.3       1 RES1   0.0000
   227 C84       5.3138   -5.0003   -1.5016   C.3       1 RES1   0.0000
   228 C85       5.9330   -5.8466   -0.3897   C.3       1 RES1   0.0000
   229 C86       4.1665   -5.7766   -2.1319   C.3       1 RES1   0.0000
   230 C87       3.4113   -3.8562    0.7677   C.3       1 RES1   0.0000
   231 C88       4.1702   -3.2658    1.9755   C.3       1 RES1   0.0000
   232 C89       4.3107   -1.7615    1.8165   C.3       1 RES1   0.0000
   233 C90       5.5341   -3.8860    2.2834   C.3       1 RES1   0.0000
   234 C91       0.6212   -3.6255   -3.2472   C.ar      1 RES1   0.0000
   235 C92      -0.5190   -3.9230   -3.9881   C.ar      1 RES1   0.0000
   236 C93      -1.0286   -5.2073   -3.9945   C.ar      1 RES1   0.0000
   237 C94      -0.4184   -6.2025   -3.2464   C.ar      1 RES1   0.0000
   238 C95       0.6838   -5.8983   -2.4694   C.ar      1 RES1   0.0000
   239 C96       1.1976   -4.6123   -2.4688   C.ar      1 RES1   0.0000
   240 H127     -0.6685    5.3991   -5.5849   H         1 RES1   0.0000
   241 H128     -1.3277    4.8651   -7.1308   H         1 RES1   0.0000
   242 H129      0.1286    5.8577   -7.0875   H         1 RES1   0.0000
   243 H130     -0.0471    3.0992   -5.8334   H         1 RES1   0.0000
   244 H131      1.4001    4.0910   -6.0185   H         1 RES1   0.0000
   245 H132      0.9852    3.9083   -8.5549   H         1 RES1   0.0000
   246 H133     -0.1477    2.6255   -8.1823   H         1 RES1   0.0000
   247 H134      2.3745    2.1057   -6.7894   H         1 RES1   0.0000
   248 H135      2.7097    2.4878   -8.4551   H         1 RES1   0.0000
   249 H136      2.4747    0.2288   -8.6768   H         1 RES1   0.0000
   250 H137      0.8174    0.7339   -8.9757   H         1 RES1   0.0000
   251 H138      0.5790   -1.0916   -7.5921   H         1 RES1   0.0000
   252 H139      0.3163    0.3008   -6.5611   H         1 RES1   0.0000
   253 H140      2.7262   -0.0707   -5.6679   H         1 RES1   0.0000
   254 H141      2.8332   -1.4104   -6.7734   H         1 RES1   0.0000
   255 H142      2.1968   -2.7577   -5.1762   H         1 RES1   0.0000
   256 H143      0.5917   -2.2005   -5.5376   H         1 RES1   0.0000
   257 H144      3.1807   -0.7821   -2.3991   H         1 RES1   0.0000
   258 H145      3.6268   -2.3897   -3.0254   H         1 RES1   0.0000
   259 H146      5.7149   -3.2210   -0.3765   H         1 RES1   0.0000
   260 H147      5.1244   -2.9109   -1.9826   H         1 RES1   0.0000
   261 H148      6.0919   -4.8810   -2.2620   H         1 RES1   0.0000
   262 H149      5.2210   -6.1195    0.3837   H         1 RES1   0.0000
   263 H150      6.7782   -5.3446    0.0692   H         1 RES1   0.0000
   264 H151      6.2978   -6.7739   -0.8222   H         1 RES1   0.0000
   265 H152      3.4050   -6.0155   -1.3943   H         1 RES1   0.0000
   266 H153      4.5448   -6.7181   -2.5191   H         1 RES1   0.0000
   267 H154      3.7164   -5.2337   -2.9579   H         1 RES1   0.0000
   268 H155      3.6583   -4.9101    0.6720   H         1 RES1   0.0000
   269 H156      2.3428   -3.7679    0.9597   H         1 RES1   0.0000
   270 H157      3.5328   -3.4718    2.8442   H         1 RES1   0.0000
   271 H158      4.8836   -1.5092    0.9292   H         1 RES1   0.0000
   272 H159      4.8437   -1.3614    2.6711   H         1 RES1   0.0000
   273 H160      3.3342   -1.2962    1.7315   H         1 RES1   0.0000
   274 H161      6.2864   -3.6323    1.5417   H         1 RES1   0.0000
   275 H162      5.4717   -4.9659    2.3683   H         1 RES1   0.0000
   276 H163      5.8910   -3.5139    3.2419   H         1 RES1   0.0000
   277 H164     -1.0146   -3.1430   -4.5488   H         1 RES1   0.0000
   278 H165     -1.8982   -5.4379   -4.5880   H         1 RES1   0.0000
   279 H166     -0.8144   -7.2038   -3.2598   H         1 RES1   0.0000
   280 H167      1.1455   -6.6604   -1.8626   H         1 RES1   0.0000
   281 H168      2.0317   -4.3570   -1.8437   H         1 RES1   0.0000
@<TRIPOS>BOND
     1     1    11    1
     2     1    14    1
     3     1    81    1
     4     1    84    1
     5     1   151    1
     6     1   154    1
     7     1   221    1
     8     1   224    1
     9     2     3    1
    10     2    30    1
    11     2    31    1
    12     2    32    1
    13     3     4    1
    14     3    33    1
    15     3    34    1
    16     4     5    1
    17     4    35    1
    18     4    36    1
    19     5     6    1
    20     5    37    1
    21     5    38    1
    22     6     7    1
    23     6    39    1
    24     6    40    1
    25     7     8    1
    26     7    41    1
    27     7    42    1
    28     8     9    1
    29     8    43    1
    30     8    44    1
    31     9    10    1
    32     9    45    1
    33     9    46    1
    34    10    11    2
    35    10    12    1
    36    10    24    1
    37    12    13    1
    38    12    47    1
    39    12    48    1
    40    13    14    2
    41    13    15    1
    42    15    16    1
    43    15    20    1
    44    16    17    1
    45    16    49    1
    46    16    50    1
    47    17    18    1
    48    17    19    1
    49    17    51    1
    50    18    52    1
    51    18    53    1
    52    18    54    1
    53    19    55    1
    54    19    56    1
    55    19    57    1
    56    20    21    1
    57    20    58    1
    58    20    59    1
    59    21    22    1
    60    21    23    1
    61    21    60    1
    62    22    61    1
    63    22    62    1
    64    22    63    1
    65    23    64    1
    66    23    65    1
    67    23    66    1
    68    24    25    1
    69    24    29    2
    70    25    26    2
    71    25    67    1
    72    26    27    1
    73    26    68    1
    74    27    28    2
    75    27    69    1
    76    28    29    1
    77    28    70    1
    78    29    71    1
    79    72    73    1
    80    72   100    1
    81    72   101    1
    82    72   102    1
    83    73    74    1
    84    73   103    1
    85    73   104    1
    86    74    75    1
    87    74   105    1
    88    74   106    1
    89    75    76    1
    90    75   107    1
    91    75   108    1
    92    76    77    1
    93    76   109    1
    94    76   110    1
    95    77    78    1
    96    77   111    1
    97    77   112    1
    98    78    79    1
    99    78   113    1
   100    78   114    1
   101    79    80    1
   102    79   115    1
   103    79   116    1
   104    80    81    2
   105    80    82    1
   106    80    94    1
   107    82    83    1
   108    82   117    1
   109    82   118    1
   110    83    84    2
   111    83    85    1
   112    85    86    1
   113    85    90    1
   114    86    87    1
   115    86   119    1
   116    86   120    1
   117    87    88    1
   118    87    89    1
   119    87   121    1
   120    88   122    1
   121    88   123    1
   122    88   124    1
   123    89   125    1
   124    89   126    1
   125    89   127    1
   126    90    91    1
   127    90   128    1
   128    90   129    1
   129    91    92    1
   130    91    93    1
   131    91   130    1
   132    92   131    1
   133    92   132    1
   134    92   133    1
   135    93   134    1
   136    93   135    1
   137    93   136    1
   138    94    95    1
   139    94    99    2
   140    95    96    2
   141    95   137    1
   142    96    97    1
   143    96   138    1
   144    97    98    2
   145    97   139    1
   146    98    99    1
   147    98   140    1
   148    99   141    1
   149   142   143    1
   150   142   170    1
   151   142   171    1
   152   142   172    1
   153   143   144    1
   154   143   173    1
   155   143   174    1
   156   144   145    1
   157   144   175    1
   158   144   176    1
   159   145   146    1
   160   145   177    1
   161   145   178    1
   162   146   147    1
   163   146   179    1
   164   146   180    1
   165   147   148    1
   166   147   181    1
   167   147   182    1
   168   148   149    1
   169   148   183    1
   170   148   184    1
   171   149   150    1
   172   149   185    1
   173   149   186    1
   174   150   151    2
   175   150   152    1
   176   150   164    1
   177   152   153    1
   178   152   187    1
   179   152   188    1
   180   153   154    2
   181   153   155    1
   182   155   156    1
   183   155   160    1
   184   156   157    1
   185   156   189    1
   186   156   190    1
   187   157   158    1
   188   157   159    1
   189   157   191    1
   190   158   192    1
   191   158   193    1
   192   158   194    1
   193   159   195    1
   194   159   196    1
   195   159   197    1
   196   160   161    1
   197   160   198    1
   198   160   199    1
   199   161   162    1
   200   161   163    1
   201   161   200    1
   202   162   201    1
   203   162   202    1
   204   162   203    1
   205   163   204    1
   206   163   205    1
   207   163   206    1
   208   164   165    1
   209   164   169    2
   210   165   166    2
   211   165   207    1
   212   166   167    1
   213   166   208    1
   214   167   168    2
   215   167   209    1
   216   168   169    1
   217   168   210    1
   218   169   211    1
   219   212   213    1
   220   212   240    1
   221   212   241    1
   222   212   242    1
   223   213   214    1
   224   213   243    1
   225   213   244    1
   226   214   215    1
   227   214   245    1
   228   214   246    1
   229   215   216    1
   230   215   247    1
   231   215   248    1
   232   216   217    1
   233   216   249    1
   234   216   250    1
   235   217   218    1
   236   217   251    1
   237   217   252    1
   238   218   219    1
   239   218   253    1
   240   218   254    1
   241   219   220    1
   242   219   255    1
   243   219   256    1
   244   220   221    2
   245   220   222    1
   246   220   234    1
   247   222   223    1
   248   222   257    1
   249   222   258    1
   250   223   224    2
   251   223   225    1
   252   225   226    1
   253   225   230    1
   254   226   227    1
   255   226   259    1
   256   226   260    1
   257   227   228    1
   258   227   229    1
   259   227   261    1
   260   228   262    1
   261   228   263    1
   262   228   264    1
   263   229   265    1
   264   229   266    1
   265   229   267    1
   266   230   231    1
   267   230   268    1
   268   230   269    1
   269   231   232    1
   270   231   233    1
   271   231   270    1
   272   232   271    1
   273   232   272    1
   274   232   273    1
   275   233   274    1
   276   233   275    1
   277   233   276    1
   278   234   235    1
   279   234   239    2
   280   235   236    2
   281   235   277    1
   282   236   237    1
   283   236   278    1
   284   237   238    2
   285   237   279    1
   286   238   239    1
   287   238   280    1
   288   239   281    1
@<TRIPOS>SUBSTRUCTURE
     1 RES1      281 GROUP             0 ****  ****    0  
