@<TRIPOS>MOLECULE
YEMSEP_geometry_0_nunpairedes_0_charge_3 Charge: 3 Unpaired_Electrons: 3 XTB_Unpaired_Electrons: 0 XTB_Charge: 3
   341   344     1     0     0
SMALL
NoCharges
****
Generated from Architector

@<TRIPOS>ATOM
     1 Er1       0.1851    0.0033    0.1626   Er        1 RES1   0.0000
     2 C1        3.1334   -7.7746   -2.5810   C.3       1 RES1   0.0000
     3 C2        3.0455   -6.4187   -1.8948   C.3       1 RES1   0.0000
     4 C3        4.1941   -5.4761   -2.2558   C.3       1 RES1   0.0000
     5 C4        4.1812   -4.9288   -3.6817   C.3       1 RES1   0.0000
     6 C5        3.2683   -3.7187   -3.8932   C.3       1 RES1   0.0000
     7 C6        1.7744   -4.0216   -4.0403   C.3       1 RES1   0.0000
     8 C7        0.9443   -3.6683   -2.8019   C.3       1 RES1   0.0000
     9 C8       -0.4157   -4.3365   -2.9809   C.3       1 RES1   0.0000
    10 N1       -1.6490   -3.7211   -2.4742   N.am      1 RES1   0.0000
    11 C9       -2.7887   -4.3971   -3.0780   C.3       1 RES1   0.0000
    12 C10      -1.6617   -2.7117   -1.6042   C.2       1 RES1   0.0000
    13 O1       -0.6114   -2.2272   -1.1457   O.2       1 RES1   0.0000
    14 C11      -2.9361   -2.0276   -1.0275   C.3       1 RES1   0.0000
    15 C12      -4.3900   -2.2533   -1.4767   C.3       1 RES1   0.0000
    16 C13      -4.7563   -1.5391   -2.7920   C.3       1 RES1   0.0000
    17 C14      -5.0033   -0.0236   -2.6615   C.3       1 RES1   0.0000
    18 C15      -4.1449    0.8377   -3.5994   C.3       1 RES1   0.0000
    19 C16      -4.8239    2.1407   -4.0250   C.3       1 RES1   0.0000
    20 C17      -3.9055    3.0897   -4.7884   C.3       1 RES1   0.0000
    21 C18      -2.5575   -2.1828    0.4572   C.2       1 RES1   0.0000
    22 O2       -1.8982   -1.2533    0.9878   O.2       1 RES1   0.0000
    23 N2       -2.7587   -3.3240    1.1090   N.am      1 RES1   0.0000
    24 C19      -2.1652   -3.4389    2.4282   C.3       1 RES1   0.0000
    25 C20      -3.2848   -4.5644    0.5618   C.3       1 RES1   0.0000
    26 C21      -4.5120   -5.1390    1.2925   C.3       1 RES1   0.0000
    27 C22      -5.7746   -4.2723    1.2633   C.3       1 RES1   0.0000
    28 C23      -5.6802   -3.0573    2.1810   C.3       1 RES1   0.0000
    29 C24      -6.9456   -2.2064    2.1653   C.3       1 RES1   0.0000
    30 C25      -7.0119   -1.1992    3.3136   C.3       1 RES1   0.0000
    31 C26      -5.8698   -0.1789    3.3657   C.3       1 RES1   0.0000
    32 C27      -4.6479   -0.6643    4.1415   C.3       1 RES1   0.0000
    33 H1        2.3572   -8.4323   -2.1970   H         1 RES1   0.0000
    34 H2        4.0982   -8.2353   -2.3859   H         1 RES1   0.0000
    35 H3        3.0008   -7.6865   -3.6560   H         1 RES1   0.0000
    36 H4        3.0647   -6.5838   -0.8161   H         1 RES1   0.0000
    37 H5        2.0902   -5.9582   -2.1366   H         1 RES1   0.0000
    38 H6        5.1311   -6.0149   -2.0975   H         1 RES1   0.0000
    39 H7        4.1834   -4.6171   -1.5811   H         1 RES1   0.0000
    40 H8        3.9289   -5.7165   -4.3894   H         1 RES1   0.0000
    41 H9        5.1965   -4.6017   -3.9142   H         1 RES1   0.0000
    42 H10       3.6036   -3.2281   -4.8067   H         1 RES1   0.0000
    43 H11       3.4032   -3.0205   -3.0612   H         1 RES1   0.0000
    44 H12       1.6392   -5.0773   -4.2731   H         1 RES1   0.0000
    45 H13       1.3720   -3.4510   -4.8840   H         1 RES1   0.0000
    46 H14       0.8630   -2.5879   -2.7158   H         1 RES1   0.0000
    47 H15       1.4355   -4.0060   -1.8899   H         1 RES1   0.0000
    48 H16      -0.3741   -5.3532   -2.5799   H         1 RES1   0.0000
    49 H17      -0.5648   -4.4231   -4.0599   H         1 RES1   0.0000
    50 H18      -2.4550   -4.8711   -4.0014   H         1 RES1   0.0000
    51 H19      -3.5906   -3.7191   -3.3386   H         1 RES1   0.0000
    52 H20      -3.1707   -5.1939   -2.4389   H         1 RES1   0.0000
    53 H21      -2.7415   -0.9515   -1.1778   H         1 RES1   0.0000
    54 H22      -5.0386   -1.8611   -0.6915   H         1 RES1   0.0000
    55 H23      -4.6326   -3.3064   -1.5779   H         1 RES1   0.0000
    56 H24      -5.6675   -2.0025   -3.1660   H         1 RES1   0.0000
    57 H25      -3.9952   -1.7165   -3.5506   H         1 RES1   0.0000
    58 H26      -4.8150    0.2842   -1.6339   H         1 RES1   0.0000
    59 H27      -6.0530    0.1837   -2.8731   H         1 RES1   0.0000
    60 H28      -3.9188    0.2633   -4.4968   H         1 RES1   0.0000
    61 H29      -3.2025    1.0763   -3.1026   H         1 RES1   0.0000
    62 H30      -5.2009    2.6516   -3.1430   H         1 RES1   0.0000
    63 H31      -5.6740    1.9011   -4.6621   H         1 RES1   0.0000
    64 H32      -3.0075    3.3128   -4.2144   H         1 RES1   0.0000
    65 H33      -4.4246    4.0251   -4.9832   H         1 RES1   0.0000
    66 H34      -3.6190    2.6696   -5.7486   H         1 RES1   0.0000
    67 H35      -1.1691   -2.9899    2.3947   H         1 RES1   0.0000
    68 H36      -2.0988   -4.4879    2.7056   H         1 RES1   0.0000
    69 H37      -2.7581   -2.9178    3.1811   H         1 RES1   0.0000
    70 H38      -2.4814   -5.3126    0.6312   H         1 RES1   0.0000
    71 H39      -3.5257   -4.4224   -0.4865   H         1 RES1   0.0000
    72 H40      -4.2565   -5.3550    2.3308   H         1 RES1   0.0000
    73 H41      -4.7435   -6.0959    0.8168   H         1 RES1   0.0000
    74 H42      -6.6143   -4.8894    1.5880   H         1 RES1   0.0000
    75 H43      -5.9924   -3.9537    0.2441   H         1 RES1   0.0000
    76 H44      -4.8407   -2.4371    1.8743   H         1 RES1   0.0000
    77 H45      -5.4961   -3.4129    3.1954   H         1 RES1   0.0000
    78 H46      -7.8091   -2.8669    2.2530   H         1 RES1   0.0000
    79 H47      -7.0188   -1.6832    1.2066   H         1 RES1   0.0000
    80 H48      -7.0446   -1.7406    4.2616   H         1 RES1   0.0000
    81 H49      -7.9538   -0.6607    3.2128   H         1 RES1   0.0000
    82 H50      -6.2462    0.7234    3.8497   H         1 RES1   0.0000
    83 H51      -5.5676    0.0936    2.3519   H         1 RES1   0.0000
    84 H52      -4.9453   -1.2955    4.9723   H         1 RES1   0.0000
    85 H53      -3.9755   -1.2278    3.5025   H         1 RES1   0.0000
    86 H54      -4.0886    0.1693    4.5552   H         1 RES1   0.0000
    87 C28       0.6192    5.7910   -7.3514   C.3       1 RES1   0.0000
    88 C29       0.5310    4.2731   -7.4232   C.3       1 RES1   0.0000
    89 C30       1.9225    3.6204   -7.5158   C.3       1 RES1   0.0000
    90 C31       1.8449    2.2429   -6.8639   C.3       1 RES1   0.0000
    91 C32       3.0890    1.4108   -6.5168   C.3       1 RES1   0.0000
    92 C33       2.5851    0.3024   -5.5770   C.3       1 RES1   0.0000
    93 C34       3.5368   -0.4312   -4.6243   C.3       1 RES1   0.0000
    94 C35       4.3194    0.3436   -3.5462   C.3       1 RES1   0.0000
    95 N3        4.6145   -0.5116   -2.3900   N.am      1 RES1   0.0000
    96 C36       5.9640   -1.0508   -2.4155   C.3       1 RES1   0.0000
    97 C37       3.6850   -0.7788   -1.4515   C.2       1 RES1   0.0000
    98 O3        2.5781   -0.2171   -1.4114   O.2       1 RES1   0.0000
    99 C38       4.0915   -1.7776   -0.3610   C.3       1 RES1   0.0000
   100 C39       4.6645   -0.9844    0.8394   C.3       1 RES1   0.0000
   101 C40       3.5566   -0.4222    1.7386   C.3       1 RES1   0.0000
   102 C41       3.1831   -1.3493    2.9137   C.3       1 RES1   0.0000
   103 C42       1.6827   -1.4406    3.2288   C.3       1 RES1   0.0000
   104 C43       1.3855   -2.4159    4.3739   C.3       1 RES1   0.0000
   105 C44       0.0111   -2.1661    4.9948   C.3       1 RES1   0.0000
   106 C45       2.9104   -2.5926    0.1623   C.2       1 RES1   0.0000
   107 O4        1.7423   -2.1619    0.1398   O.2       1 RES1   0.0000
   108 N4        3.1915   -3.7849    0.7053   N.am      1 RES1   0.0000
   109 C46       4.5159   -4.3088    0.9920   C.3       1 RES1   0.0000
   110 C47       2.0413   -4.5843    1.1576   C.3       1 RES1   0.0000
   111 C48       2.4145   -5.8632    1.9034   C.3       1 RES1   0.0000
   112 C49       1.2457   -6.8390    2.0439   C.3       1 RES1   0.0000
   113 C50       0.1644   -6.4017    3.0288   C.3       1 RES1   0.0000
   114 C51       0.5796   -6.5332    4.4945   C.3       1 RES1   0.0000
   115 C52      -0.6162   -6.3032    5.4156   C.3       1 RES1   0.0000
   116 C53      -0.2790   -6.4163    6.9007   C.3       1 RES1   0.0000
   117 C54       0.6138   -5.2963    7.4201   C.3       1 RES1   0.0000
   118 H55      -0.3657    6.2364   -7.2345   H         1 RES1   0.0000
   119 H56       1.0783    6.1867   -8.2513   H         1 RES1   0.0000
   120 H57       1.2245    6.0899   -6.4974   H         1 RES1   0.0000
   121 H58      -0.0858    3.9727   -8.2707   H         1 RES1   0.0000
   122 H59       0.0176    3.9155   -6.5211   H         1 RES1   0.0000
   123 H60       2.6321    4.2482   -6.9783   H         1 RES1   0.0000
   124 H61       2.2332    3.5573   -8.5556   H         1 RES1   0.0000
   125 H62       1.1988    1.6192   -7.4877   H         1 RES1   0.0000
   126 H63       1.3414    2.4283   -5.9097   H         1 RES1   0.0000
   127 H64       3.8592    2.0162   -6.0414   H         1 RES1   0.0000
   128 H65       3.5270    0.9745   -7.4132   H         1 RES1   0.0000
   129 H66       2.1404   -0.4706   -6.2089   H         1 RES1   0.0000
   130 H67       1.7752    0.7068   -4.9677   H         1 RES1   0.0000
   131 H68       4.2472   -0.9999   -5.2236   H         1 RES1   0.0000
   132 H69       2.8917   -1.1396   -4.1003   H         1 RES1   0.0000
   133 H70       3.8030    1.2164   -3.1666   H         1 RES1   0.0000
   134 H71       5.2606    0.6841   -3.9696   H         1 RES1   0.0000
   135 H72       6.6391   -0.2858   -2.7971   H         1 RES1   0.0000
   136 H73       6.0434   -1.9124   -3.0788   H         1 RES1   0.0000
   137 H74       6.3222   -1.3349   -1.4334   H         1 RES1   0.0000
   138 H75       4.8372   -2.4571   -0.7720   H         1 RES1   0.0000
   139 H76       5.2861   -0.1713    0.4602   H         1 RES1   0.0000
   140 H77       5.3051   -1.6319    1.4354   H         1 RES1   0.0000
   141 H78       2.6581   -0.2166    1.1276   H         1 RES1   0.0000
   142 H79       3.8899    0.5404    2.1236   H         1 RES1   0.0000
   143 H80       3.7100   -0.9928    3.8019   H         1 RES1   0.0000
   144 H81       3.5571   -2.3537    2.7249   H         1 RES1   0.0000
   145 H82       1.1194   -1.7337    2.3220   H         1 RES1   0.0000
   146 H83       1.3176   -0.4623    3.5246   H         1 RES1   0.0000
   147 H84       2.1462   -2.2896    5.1465   H         1 RES1   0.0000
   148 H85       1.4462   -3.4483    4.0257   H         1 RES1   0.0000
   149 H86       0.0629   -1.4143    5.7769   H         1 RES1   0.0000
   150 H87      -0.3795   -3.0734    5.4449   H         1 RES1   0.0000
   151 H88      -0.6975   -1.8142    4.2498   H         1 RES1   0.0000
   152 H89       4.6383   -5.2960    0.5480   H         1 RES1   0.0000
   153 H90       4.6599   -4.4044    2.0710   H         1 RES1   0.0000
   154 H91       5.3072   -3.6819    0.5970   H         1 RES1   0.0000
   155 H92       1.4323   -4.8210    0.2783   H         1 RES1   0.0000
   156 H93       1.4314   -3.9444    1.7993   H         1 RES1   0.0000
   157 H94       2.8028   -5.6087    2.8884   H         1 RES1   0.0000
   158 H95       3.1957   -6.3932    1.3644   H         1 RES1   0.0000
   159 H96       1.6492   -7.7955    2.3770   H         1 RES1   0.0000
   160 H97       0.8048   -6.9999    1.0568   H         1 RES1   0.0000
   161 H98      -0.7119   -7.0334    2.8682   H         1 RES1   0.0000
   162 H99      -0.1182   -5.3678    2.8187   H         1 RES1   0.0000
   163 H100      1.3655   -5.8140    4.7263   H         1 RES1   0.0000
   164 H101      0.9820   -7.5327    4.6684   H         1 RES1   0.0000
   165 H102     -1.3795   -7.0465    5.1755   H         1 RES1   0.0000
   166 H103     -1.0440   -5.3164    5.2124   H         1 RES1   0.0000
   167 H104      0.2059   -7.3750    7.0858   H         1 RES1   0.0000
   168 H105     -1.2135   -6.4043    7.4618   H         1 RES1   0.0000
   169 H106      1.5974   -5.3247    6.9589   H         1 RES1   0.0000
   170 H107      0.7500   -5.3994    8.4929   H         1 RES1   0.0000
   171 H108      0.1682   -4.3220    7.2280   H         1 RES1   0.0000
   172 C55      -3.6923   -3.8354    7.4792   C.3       1 RES1   0.0000
   173 C56      -2.8853   -2.7226    8.1377   C.3       1 RES1   0.0000
   174 C57      -3.0812   -1.3861    7.4245   C.3       1 RES1   0.0000
   175 C58      -2.2142   -0.2666    8.0009   C.3       1 RES1   0.0000
   176 C59      -2.4056    1.0581    7.2518   C.3       1 RES1   0.0000
   177 C60      -1.3197    2.0900    7.5871   C.3       1 RES1   0.0000
   178 C61       0.0064    1.7874    6.8518   C.3       1 RES1   0.0000
   179 C62       0.2187    2.6597    5.5940   C.3       1 RES1   0.0000
   180 N5        1.0474    2.0172    4.5685   N.am      1 RES1   0.0000
   181 C63       2.2119    1.3269    5.0915   C.3       1 RES1   0.0000
   182 C64       0.8047    2.1307    3.2515   C.2       1 RES1   0.0000
   183 O5        1.1919    1.3154    2.3918   O.2       1 RES1   0.0000
   184 C65       0.0187    3.3514    2.7997   C.3       1 RES1   0.0000
   185 C66       0.8597    4.1672    1.8024   C.3       1 RES1   0.0000
   186 C67       2.1908    4.6050    2.4465   C.3       1 RES1   0.0000
   187 C68       3.3918    3.7511    2.0280   C.3       1 RES1   0.0000
   188 C69       3.8168    4.0308    0.5796   C.3       1 RES1   0.0000
   189 C70       5.3286    4.0236    0.3358   C.3       1 RES1   0.0000
   190 C71       5.9546    2.6391    0.2955   C.3       1 RES1   0.0000
   191 C72      -1.3212    2.7658    2.3521   C.2       1 RES1   0.0000
   192 O6       -1.3858    1.6857    1.7369   O.2       1 RES1   0.0000
   193 N6       -2.4044    3.3942    2.8550   N.am      1 RES1   0.0000
   194 C73      -3.5134    2.5768    3.3069   C.3       1 RES1   0.0000
   195 C74      -2.4318    4.8058    3.2690   C.3       1 RES1   0.0000
   196 C75      -3.7605    5.5419    2.9312   C.3       1 RES1   0.0000
   197 C76      -3.6513    6.8003    2.0298   C.3       1 RES1   0.0000
   198 C77      -4.7515    6.8268    0.9453   C.3       1 RES1   0.0000
   199 C78      -4.3897    7.5601   -0.3580   C.3       1 RES1   0.0000
   200 C79      -5.3206    7.1407   -1.5054   C.3       1 RES1   0.0000
   201 C80      -4.8797    7.5834   -2.9059   C.3       1 RES1   0.0000
   202 C81      -5.8081    6.9852   -3.9612   C.3       1 RES1   0.0000
   203 H109     -3.5413   -4.7754    8.0028   H         1 RES1   0.0000
   204 H110     -3.3883   -3.9678    6.4412   H         1 RES1   0.0000
   205 H111     -4.7536   -3.5996    7.5007   H         1 RES1   0.0000
   206 H112     -1.8262   -2.9862    8.1261   H         1 RES1   0.0000
   207 H113     -3.1873   -2.6252    9.1804   H         1 RES1   0.0000
   208 H114     -4.1318   -1.1016    7.4946   H         1 RES1   0.0000
   209 H115     -2.8416   -1.5117    6.3646   H         1 RES1   0.0000
   210 H116     -1.1669   -0.5748    7.9566   H         1 RES1   0.0000
   211 H117     -2.4626   -0.1298    9.0539   H         1 RES1   0.0000
   212 H118     -3.3867    1.4594    7.5118   H         1 RES1   0.0000
   213 H119     -2.3943    0.8626    6.1744   H         1 RES1   0.0000
   214 H120     -1.6687    3.1000    7.3543   H         1 RES1   0.0000
   215 H121     -1.1552    2.0670    8.6660   H         1 RES1   0.0000
   216 H122     -0.0135    0.7369    6.5596   H         1 RES1   0.0000
   217 H123      0.8358    1.9365    7.5425   H         1 RES1   0.0000
   218 H124      0.6729    3.6116    5.9003   H         1 RES1   0.0000
   219 H125     -0.7650    2.8520    5.1693   H         1 RES1   0.0000
   220 H126      2.6863    1.9709    5.8345   H         1 RES1   0.0000
   221 H127      2.9213    1.1467    4.2927   H         1 RES1   0.0000
   222 H128      1.9630    0.3766    5.5620   H         1 RES1   0.0000
   223 H129     -0.1541    4.0120    3.6452   H         1 RES1   0.0000
   224 H130      0.2857    5.0611    1.5523   H         1 RES1   0.0000
   225 H131      1.0378    3.6057    0.8826   H         1 RES1   0.0000
   226 H132      2.0996    4.5828    3.5362   H         1 RES1   0.0000
   227 H133      2.4030    5.6419    2.1750   H         1 RES1   0.0000
   228 H134      3.1451    2.6942    2.1411   H         1 RES1   0.0000
   229 H135      4.2208    3.9740    2.7003   H         1 RES1   0.0000
   230 H136      3.4551    5.0221    0.2970   H         1 RES1   0.0000
   231 H137      3.3337    3.3035   -0.0757   H         1 RES1   0.0000
   232 H138      5.8164    4.6131    1.1112   H         1 RES1   0.0000
   233 H139      5.5262    4.5197   -0.6160   H         1 RES1   0.0000
   234 H140      5.8285    2.1252    1.2422   H         1 RES1   0.0000
   235 H141      7.0183    2.7248    0.1000   H         1 RES1   0.0000
   236 H142      5.5065    2.0405   -0.4944   H         1 RES1   0.0000
   237 H143     -3.6209    2.7165    4.3857   H         1 RES1   0.0000
   238 H144     -3.2754    1.5399    3.0799   H         1 RES1   0.0000
   239 H145     -4.4614    2.8292    2.8404   H         1 RES1   0.0000
   240 H146     -1.6172    5.3274    2.7658   H         1 RES1   0.0000
   241 H147     -2.2699    4.8639    4.3566   H         1 RES1   0.0000
   242 H148     -4.2383    5.8317    3.8666   H         1 RES1   0.0000
   243 H149     -4.4522    4.8458    2.4583   H         1 RES1   0.0000
   244 H150     -2.6629    6.8519    1.5660   H         1 RES1   0.0000
   245 H151     -3.7452    7.6988    2.6430   H         1 RES1   0.0000
   246 H152     -5.6535    7.2728    1.3667   H         1 RES1   0.0000
   247 H153     -5.0097    5.7979    0.6841   H         1 RES1   0.0000
   248 H154     -3.3623    7.3236   -0.6442   H         1 RES1   0.0000
   249 H155     -4.4462    8.6394   -0.2179   H         1 RES1   0.0000
   250 H156     -6.3243    7.5283   -1.3222   H         1 RES1   0.0000
   251 H157     -5.3940    6.0480   -1.5173   H         1 RES1   0.0000
   252 H158     -3.8516    7.2552   -3.0989   H         1 RES1   0.0000
   253 H159     -4.8981    8.6705   -2.9887   H         1 RES1   0.0000
   254 H160     -5.7541    5.8984   -3.9402   H         1 RES1   0.0000
   255 H161     -5.5443    7.3175   -4.9623   H         1 RES1   0.0000
   256 H162     -6.8400    7.2686   -3.7680   H         1 RES1   0.0000
   257 C82      -8.6204    3.7312   -0.5124   C.3       1 RES1   0.0000
   258 C83      -8.0800    2.6547    0.4169   C.3       1 RES1   0.0000
   259 C84      -6.5902    2.8204    0.7110   C.3       1 RES1   0.0000
   260 C85      -5.7226    2.8450   -0.5454   C.3       1 RES1   0.0000
   261 C86      -4.2276    2.7686   -0.2126   C.3       1 RES1   0.0000
   262 C87      -3.3328    3.5928   -1.1488   C.3       1 RES1   0.0000
   263 C88      -2.3766    4.4641   -0.3413   C.3       1 RES1   0.0000
   264 C89      -1.4429    5.2668   -1.2295   C.3       1 RES1   0.0000
   265 N7       -0.6980    4.4518   -2.1814   N.am      1 RES1   0.0000
   266 C90      -0.4160    5.1850   -3.4030   C.3       1 RES1   0.0000
   267 C91      -0.3390    3.1951   -1.9320   C.2       1 RES1   0.0000
   268 O7       -0.3550    2.6496   -0.8160   O.2       1 RES1   0.0000
   269 C92       0.2379    2.3832   -3.0892   C.3       1 RES1   0.0000
   270 C93       1.7152    2.2455   -2.6675   C.3       1 RES1   0.0000
   271 C94       2.6083    3.4906   -2.6620   C.3       1 RES1   0.0000
   272 C95       3.1413    3.9899   -4.0013   C.3       1 RES1   0.0000
   273 C96       4.2833    4.9852   -3.7752   C.3       1 RES1   0.0000
   274 C97       4.6811    5.7765   -5.0217   C.3       1 RES1   0.0000
   275 C98       5.4069    4.9462   -6.0728   C.3       1 RES1   0.0000
   276 C99      -0.3992    0.9989   -3.0747   C.2       1 RES1   0.0000
   277 O8       -0.4204    0.3453   -2.0018   O.2       1 RES1   0.0000
   278 N8       -0.9045    0.4251   -4.1708   N.am      1 RES1   0.0000
   279 C100     -1.3349   -0.9347   -3.9579   C.3       1 RES1   0.0000
   280 C101     -1.0221    0.9701   -5.5230   C.3       1 RES1   0.0000
   281 C102     -1.8985    0.2194   -6.5515   C.3       1 RES1   0.0000
   282 C103     -1.2908   -0.9712   -7.3333   C.3       1 RES1   0.0000
   283 C104     -1.5027   -2.3882   -6.7820   C.3       1 RES1   0.0000
   284 C105     -1.2276   -3.4595   -7.8395   C.3       1 RES1   0.0000
   285 C106     -1.4936   -4.8715   -7.2953   C.3       1 RES1   0.0000
   286 C107     -0.2353   -5.6778   -6.9668   C.3       1 RES1   0.0000
   287 C108     -0.6080   -6.9331   -6.1769   C.3       1 RES1   0.0000
   288 H163     -9.6989    3.6547   -0.5778   H         1 RES1   0.0000
   289 H164     -8.2187    3.6279   -1.5158   H         1 RES1   0.0000
   290 H165     -8.3730    4.7185   -0.1333   H         1 RES1   0.0000
   291 H166     -8.2553    1.6676   -0.0156   H         1 RES1   0.0000
   292 H167     -8.6133    2.6984    1.3673   H         1 RES1   0.0000
   293 H168     -6.2615    2.0037    1.3599   H         1 RES1   0.0000
   294 H169     -6.4382    3.7554    1.2542   H         1 RES1   0.0000
   295 H170     -5.9265    3.7681   -1.0919   H         1 RES1   0.0000
   296 H171     -6.0168    2.0087   -1.1772   H         1 RES1   0.0000
   297 H172     -3.8835    1.7293   -0.2154   H         1 RES1   0.0000
   298 H173     -4.0799    3.1391    0.8003   H         1 RES1   0.0000
   299 H174     -3.9280    4.2336   -1.8026   H         1 RES1   0.0000
   300 H175     -2.7552    2.9174   -1.7821   H         1 RES1   0.0000
   301 H176     -1.8077    3.8273    0.3282   H         1 RES1   0.0000
   302 H177     -2.9458    5.1709    0.2513   H         1 RES1   0.0000
   303 H178     -0.7511    5.8763   -0.6344   H         1 RES1   0.0000
   304 H179     -2.0520    5.9330   -1.8446   H         1 RES1   0.0000
   305 H180     -0.0189    6.1659   -3.1336   H         1 RES1   0.0000
   306 H181     -1.3249    5.3246   -3.9930   H         1 RES1   0.0000
   307 H182      0.3323    4.6934   -4.0098   H         1 RES1   0.0000
   308 H183      0.1336    2.8206   -4.0761   H         1 RES1   0.0000
   309 H184      2.1460    1.4882   -3.3013   H         1 RES1   0.0000
   310 H185      1.7070    1.8594   -1.6363   H         1 RES1   0.0000
   311 H186      3.4880    3.2156   -2.0770   H         1 RES1   0.0000
   312 H187      2.1184    4.3071   -2.1340   H         1 RES1   0.0000
   313 H188      2.3525    4.4715   -4.5774   H         1 RES1   0.0000
   314 H189      3.5138    3.1401   -4.5648   H         1 RES1   0.0000
   315 H190      5.1577    4.4482   -3.3986   H         1 RES1   0.0000
   316 H191      3.9690    5.6950   -3.0083   H         1 RES1   0.0000
   317 H192      5.3440    6.5864   -4.7147   H         1 RES1   0.0000
   318 H193      3.7917    6.2362   -5.4594   H         1 RES1   0.0000
   319 H194      6.3389    4.5559   -5.6713   H         1 RES1   0.0000
   320 H195      5.6447    5.5679   -6.9311   H         1 RES1   0.0000
   321 H196      4.8012    4.1143   -6.4221   H         1 RES1   0.0000
   322 H197     -1.9475   -0.9797   -3.0672   H         1 RES1   0.0000
   323 H198     -0.4641   -1.5679   -3.8070   H         1 RES1   0.0000
   324 H199     -1.9041   -1.2804   -4.7995   H         1 RES1   0.0000
   325 H200     -0.0296    1.0288   -5.9626   H         1 RES1   0.0000
   326 H201     -1.4163    1.9861   -5.4429   H         1 RES1   0.0000
   327 H202     -2.1339    0.9854   -7.2961   H         1 RES1   0.0000
   328 H203     -2.8590   -0.0832   -6.1364   H         1 RES1   0.0000
   329 H204     -0.2235   -0.8150   -7.4964   H         1 RES1   0.0000
   330 H205     -1.7670   -0.9557   -8.3157   H         1 RES1   0.0000
   331 H206     -2.5394   -2.5014   -6.4510   H         1 RES1   0.0000
   332 H207     -0.8394   -2.5910   -5.9403   H         1 RES1   0.0000
   333 H208     -0.1923   -3.3742   -8.1713   H         1 RES1   0.0000
   334 H209     -1.8602   -3.2755   -8.7057   H         1 RES1   0.0000
   335 H210     -2.0776   -5.4438   -8.0145   H         1 RES1   0.0000
   336 H211     -2.1031   -4.7956   -6.3899   H         1 RES1   0.0000
   337 H212      0.4734   -5.0728   -6.3940   H         1 RES1   0.0000
   338 H213      0.2647   -5.9742   -7.8908   H         1 RES1   0.0000
   339 H214     -1.0716   -6.6686   -5.2231   H         1 RES1   0.0000
   340 H215      0.2653   -7.5504   -5.9679   H         1 RES1   0.0000
   341 H216     -1.3230   -7.5274   -6.7453   H         1 RES1   0.0000
@<TRIPOS>BOND
     1     1    13    1
     2     1    22    1
     3     1    98    1
     4     1   107    1
     5     1   183    1
     6     1   192    1
     7     1   268    1
     8     1   277    1
     9     2     3    1
    10     2    33    1
    11     2    34    1
    12     2    35    1
    13     3     4    1
    14     3    36    1
    15     3    37    1
    16     4     5    1
    17     4    38    1
    18     4    39    1
    19     5     6    1
    20     5    40    1
    21     5    41    1
    22     6     7    1
    23     6    42    1
    24     6    43    1
    25     7     8    1
    26     7    44    1
    27     7    45    1
    28     8     9    1
    29     8    46    1
    30     8    47    1
    31     9    10    1
    32     9    48    1
    33     9    49    1
    34    10    11    1
    35    10    12    1
    36    11    50    1
    37    11    51    1
    38    11    52    1
    39    12    13    2
    40    12    14    1
    41    14    15    1
    42    14    21    1
    43    14    53    1
    44    15    16    1
    45    15    54    1
    46    15    55    1
    47    16    17    1
    48    16    56    1
    49    16    57    1
    50    17    18    1
    51    17    58    1
    52    17    59    1
    53    18    19    1
    54    18    60    1
    55    18    61    1
    56    19    20    1
    57    19    62    1
    58    19    63    1
    59    20    64    1
    60    20    65    1
    61    20    66    1
    62    21    22    2
    63    21    23    1
    64    23    24    1
    65    23    25    1
    66    24    67    1
    67    24    68    1
    68    24    69    1
    69    25    26    1
    70    25    70    1
    71    25    71    1
    72    26    27    1
    73    26    72    1
    74    26    73    1
    75    27    28    1
    76    27    74    1
    77    27    75    1
    78    28    29    1
    79    28    76    1
    80    28    77    1
    81    29    30    1
    82    29    78    1
    83    29    79    1
    84    30    31    1
    85    30    80    1
    86    30    81    1
    87    31    32    1
    88    31    82    1
    89    31    83    1
    90    32    84    1
    91    32    85    1
    92    32    86    1
    93    87    88    1
    94    87   118    1
    95    87   119    1
    96    87   120    1
    97    88    89    1
    98    88   121    1
    99    88   122    1
   100    89    90    1
   101    89   123    1
   102    89   124    1
   103    90    91    1
   104    90   125    1
   105    90   126    1
   106    91    92    1
   107    91   127    1
   108    91   128    1
   109    92    93    1
   110    92   129    1
   111    92   130    1
   112    93    94    1
   113    93   131    1
   114    93   132    1
   115    94    95    1
   116    94   133    1
   117    94   134    1
   118    95    96    1
   119    95    97    1
   120    96   135    1
   121    96   136    1
   122    96   137    1
   123    97    98    2
   124    97    99    1
   125    99   100    1
   126    99   106    1
   127    99   138    1
   128   100   101    1
   129   100   139    1
   130   100   140    1
   131   101   102    1
   132   101   141    1
   133   101   142    1
   134   102   103    1
   135   102   143    1
   136   102   144    1
   137   103   104    1
   138   103   145    1
   139   103   146    1
   140   104   105    1
   141   104   147    1
   142   104   148    1
   143   105   149    1
   144   105   150    1
   145   105   151    1
   146   106   107    2
   147   106   108    1
   148   108   109    1
   149   108   110    1
   150   109   152    1
   151   109   153    1
   152   109   154    1
   153   110   111    1
   154   110   155    1
   155   110   156    1
   156   111   112    1
   157   111   157    1
   158   111   158    1
   159   112   113    1
   160   112   159    1
   161   112   160    1
   162   113   114    1
   163   113   161    1
   164   113   162    1
   165   114   115    1
   166   114   163    1
   167   114   164    1
   168   115   116    1
   169   115   165    1
   170   115   166    1
   171   116   117    1
   172   116   167    1
   173   116   168    1
   174   117   169    1
   175   117   170    1
   176   117   171    1
   177   172   173    1
   178   172   203    1
   179   172   204    1
   180   172   205    1
   181   173   174    1
   182   173   206    1
   183   173   207    1
   184   174   175    1
   185   174   208    1
   186   174   209    1
   187   175   176    1
   188   175   210    1
   189   175   211    1
   190   176   177    1
   191   176   212    1
   192   176   213    1
   193   177   178    1
   194   177   214    1
   195   177   215    1
   196   178   179    1
   197   178   216    1
   198   178   217    1
   199   179   180    1
   200   179   218    1
   201   179   219    1
   202   180   181    1
   203   180   182    1
   204   181   220    1
   205   181   221    1
   206   181   222    1
   207   182   183    2
   208   182   184    1
   209   184   185    1
   210   184   191    1
   211   184   223    1
   212   185   186    1
   213   185   224    1
   214   185   225    1
   215   186   187    1
   216   186   226    1
   217   186   227    1
   218   187   188    1
   219   187   228    1
   220   187   229    1
   221   188   189    1
   222   188   230    1
   223   188   231    1
   224   189   190    1
   225   189   232    1
   226   189   233    1
   227   190   234    1
   228   190   235    1
   229   190   236    1
   230   191   192    2
   231   191   193    1
   232   193   194    1
   233   193   195    1
   234   194   237    1
   235   194   238    1
   236   194   239    1
   237   195   196    1
   238   195   240    1
   239   195   241    1
   240   196   197    1
   241   196   242    1
   242   196   243    1
   243   197   198    1
   244   197   244    1
   245   197   245    1
   246   198   199    1
   247   198   246    1
   248   198   247    1
   249   199   200    1
   250   199   248    1
   251   199   249    1
   252   200   201    1
   253   200   250    1
   254   200   251    1
   255   201   202    1
   256   201   252    1
   257   201   253    1
   258   202   254    1
   259   202   255    1
   260   202   256    1
   261   257   258    1
   262   257   288    1
   263   257   289    1
   264   257   290    1
   265   258   259    1
   266   258   291    1
   267   258   292    1
   268   259   260    1
   269   259   293    1
   270   259   294    1
   271   260   261    1
   272   260   295    1
   273   260   296    1
   274   261   262    1
   275   261   297    1
   276   261   298    1
   277   262   263    1
   278   262   299    1
   279   262   300    1
   280   263   264    1
   281   263   301    1
   282   263   302    1
   283   264   265    1
   284   264   303    1
   285   264   304    1
   286   265   266    1
   287   265   267    1
   288   266   305    1
   289   266   306    1
   290   266   307    1
   291   267   268    2
   292   267   269    1
   293   269   270    1
   294   269   276    1
   295   269   308    1
   296   270   271    1
   297   270   309    1
   298   270   310    1
   299   271   272    1
   300   271   311    1
   301   271   312    1
   302   272   273    1
   303   272   313    1
   304   272   314    1
   305   273   274    1
   306   273   315    1
   307   273   316    1
   308   274   275    1
   309   274   317    1
   310   274   318    1
   311   275   319    1
   312   275   320    1
   313   275   321    1
   314   276   277    2
   315   276   278    1
   316   278   279    1
   317   278   280    1
   318   279   322    1
   319   279   323    1
   320   279   324    1
   321   280   281    1
   322   280   325    1
   323   280   326    1
   324   281   282    1
   325   281   327    1
   326   281   328    1
   327   282   283    1
   328   282   329    1
   329   282   330    1
   330   283   284    1
   331   283   331    1
   332   283   332    1
   333   284   285    1
   334   284   333    1
   335   284   334    1
   336   285   286    1
   337   285   335    1
   338   285   336    1
   339   286   287    1
   340   286   337    1
   341   286   338    1
   342   287   339    1
   343   287   340    1
   344   287   341    1
@<TRIPOS>SUBSTRUCTURE
     1 RES1      341 GROUP             0 ****  ****    0  
