@<TRIPOS>MOLECULE
am_c3_9H2O_c0_0_nunpairedes_0_charge_1 Charge: 1 Unpaired_Electrons: 2 XTB_Unpaired_Electrons: 0 XTB_Charge: 1
   122   135     1     0     0
SMALL
NoCharges
****
Generated from Architector

@<TRIPOS>ATOM
     1 Pr1      -0.3197   -0.1089   -0.1055   Pr        1 RES1   0.0000
     2 C1       -4.1088   -1.0585   -4.9768   C.3       1 RES1   0.0000
     3 C2       -3.8770    0.0141   -6.0355   C.3       1 RES1   0.0000
     4 C3       -3.4329    1.3579   -5.4556   C.3       1 RES1   0.0000
     5 C4       -2.0447    1.2931   -4.8278   C.3       1 RES1   0.0000
     6 C5       -1.5309    2.6436   -4.3328   C.3       1 RES1   0.0000
     7 C6       -2.3408    3.2043   -3.1492   C.3       1 RES1   0.0000
     8 N1       -1.4289    3.7143   -2.1302   N.ar      1 RES1   0.0000
     9 C7       -1.1915    5.0449   -1.8911   C.ar      1 RES1   0.0000
    10 C8       -1.8969    6.0043   -2.7678   C.ar      1 RES1   0.0000
    11 C9       -1.2454    6.4504   -3.9103   C.ar      1 RES1   0.0000
    12 C10      -1.8824    7.3204   -4.7760   C.ar      1 RES1   0.0000
    13 C11      -3.1693    7.7557   -4.5129   C.ar      1 RES1   0.0000
    14 C12      -3.8176    7.3052   -3.3752   C.ar      1 RES1   0.0000
    15 C13      -3.1919    6.4326   -2.5005   C.ar      1 RES1   0.0000
    16 C14      -0.3089    5.4859   -0.9393   C.ar      1 RES1   0.0000
    17 C15      -0.1064    6.9461   -0.7549   C.ar      1 RES1   0.0000
    18 C16      -1.0327    7.7248   -0.0703   C.ar      1 RES1   0.0000
    19 C17      -0.8246    9.0871    0.0753   C.ar      1 RES1   0.0000
    20 C18       0.3004    9.6873   -0.4657   C.ar      1 RES1   0.0000
    21 C19       1.2151    8.9147   -1.1629   C.ar      1 RES1   0.0000
    22 C20       1.0203    7.5515   -1.3029   C.ar      1 RES1   0.0000
    23 C21       0.4400    4.5361   -0.1700   C.ar      1 RES1   0.0000
    24 C22       1.3824    4.8095    0.8405   C.ar      1 RES1   0.0000
    25 C23       2.0117    3.7536    1.5033   C.ar      1 RES1   0.0000
    26 C24       2.9974    3.8872    2.5395   C.ar      1 RES1   0.0000
    27 C25       3.5627    2.8144    3.1426   C.ar      1 RES1   0.0000
    28 C26       3.1893    1.4673    2.8105   C.ar      1 RES1   0.0000
    29 C27       3.7044    0.3200    3.4166   C.ar      1 RES1   0.0000
    30 C28       3.2666   -0.9451    2.9919   C.ar      1 RES1   0.0000
    31 C29       3.6858   -2.2143    3.5102   C.ar      1 RES1   0.0000
    32 C30       4.7340   -2.3010    4.5571   C.ar      1 RES1   0.0000
    33 C31       4.4337   -2.1137    5.9003   C.ar      1 RES1   0.0000
    34 C32       5.4384   -2.1816    6.8518   C.ar      1 RES1   0.0000
    35 C33       6.7478   -2.4305    6.4777   C.ar      1 RES1   0.0000
    36 C34       7.0433   -2.6318    5.1398   C.ar      1 RES1   0.0000
    37 C35       6.0453   -2.5732    4.1831   C.ar      1 RES1   0.0000
    38 C36       3.1338   -3.3672    3.0257   C.ar      1 RES1   0.0000
    39 C37       3.5341   -4.6783    3.5916   C.ar      1 RES1   0.0000
    40 C38       2.9209   -5.1700    4.7395   C.ar      1 RES1   0.0000
    41 C39       3.3098   -6.3922    5.2596   C.ar      1 RES1   0.0000
    42 C40       4.3054   -7.1357    4.6497   C.ar      1 RES1   0.0000
    43 C41       4.9125   -6.6446    3.5063   C.ar      1 RES1   0.0000
    44 C42       4.5336   -5.4247    2.9759   C.ar      1 RES1   0.0000
    45 N2        2.1782   -3.3715    2.0341   N.ar      1 RES1   0.0000
    46 C43       1.5086   -4.5981    1.6063   C.3       1 RES1   0.0000
    47 C44       1.6603   -4.8774    0.1090   C.3       1 RES1   0.0000
    48 C45       3.1157   -5.0219   -0.3255   C.3       1 RES1   0.0000
    49 C46       3.2636   -5.2013   -1.8385   C.3       1 RES1   0.0000
    50 C47       2.7777   -4.0224   -2.6881   C.3       1 RES1   0.0000
    51 C48       3.4439   -2.6950   -2.3408   C.3       1 RES1   0.0000
    52 C49       1.7360   -2.2206    1.4697   C.ar      1 RES1   0.0000
    53 O1        0.8388   -2.2152    0.6056   O.2       1 RES1   0.0000
    54 C50       2.2922   -0.9737    1.9682   C.ar      1 RES1   0.0000
    55 N3        1.7652    0.1102    1.4068   N.ar      1 RES1   0.0000
    56 C51       2.2155    1.2964    1.7906   C.ar      1 RES1   0.0000
    57 C52       1.6651    2.4359    1.1131   C.ar      1 RES1   0.0000
    58 N4        0.8232    2.1650    0.1303   N.ar      1 RES1   0.0000
    59 C53       0.2110    3.1716   -0.4742   C.ar      1 RES1   0.0000
    60 C54      -0.7727    2.7448   -1.4514   C.ar      1 RES1   0.0000
    61 O2       -1.0165    1.5358   -1.6346   O.2       1 RES1   0.0000
    62 H1       -4.5028   -1.9598   -5.4413   H         1 RES1   0.0000
    63 H2       -4.8274   -0.7157   -4.2354   H         1 RES1   0.0000
    64 H3       -3.1860   -1.3213   -4.4663   H         1 RES1   0.0000
    65 H4       -4.8069    0.1695   -6.5862   H         1 RES1   0.0000
    66 H5       -3.1247   -0.3380   -6.7435   H         1 RES1   0.0000
    67 H6       -4.1635    1.6830   -4.7124   H         1 RES1   0.0000
    68 H7       -3.4166    2.1004   -6.2583   H         1 RES1   0.0000
    69 H8       -1.3377    0.9216   -5.5710   H         1 RES1   0.0000
    70 H9       -2.0353    0.5984   -3.9854   H         1 RES1   0.0000
    71 H10      -1.5173    3.3764   -5.1423   H         1 RES1   0.0000
    72 H11      -0.5006    2.4880   -4.0020   H         1 RES1   0.0000
    73 H12      -2.9000    2.3993   -2.6610   H         1 RES1   0.0000
    74 H13      -3.0317    3.9870   -3.4558   H         1 RES1   0.0000
    75 H14      -0.2439    6.1046   -4.1198   H         1 RES1   0.0000
    76 H15      -1.3724    7.6407   -5.6678   H         1 RES1   0.0000
    77 H16      -3.6721    8.4264   -5.1957   H         1 RES1   0.0000
    78 H17      -4.8282    7.6269   -3.1892   H         1 RES1   0.0000
    79 H18      -3.7025    6.0737   -1.6176   H         1 RES1   0.0000
    80 H19      -1.9188    7.2700    0.3494   H         1 RES1   0.0000
    81 H20      -1.5537    9.6837    0.6016   H         1 RES1   0.0000
    82 H21       0.4671   10.7506   -0.3560   H         1 RES1   0.0000
    83 H22       2.0761    9.3875   -1.6083   H         1 RES1   0.0000
    84 H23       1.7277    6.9478   -1.8554   H         1 RES1   0.0000
    85 H24       1.6130    5.8346    1.1081   H         1 RES1   0.0000
    86 H25       3.2854    4.8882    2.8202   H         1 RES1   0.0000
    87 H26       4.3178    2.9379    3.9066   H         1 RES1   0.0000
    88 H27       4.4345    0.4020    4.2114   H         1 RES1   0.0000
    89 H28       3.4141   -1.9220    6.2060   H         1 RES1   0.0000
    90 H29       5.1937   -2.0421    7.8920   H         1 RES1   0.0000
    91 H30       7.5353   -2.4740    7.2172   H         1 RES1   0.0000
    92 H31       8.0602   -2.8393    4.8501   H         1 RES1   0.0000
    93 H32       6.2723   -2.7315    3.1381   H         1 RES1   0.0000
    94 H33       2.1405   -4.6026    5.2281   H         1 RES1   0.0000
    95 H34       2.8213   -6.7670    6.1426   H         1 RES1   0.0000
    96 H35       4.5978   -8.0964    5.0483   H         1 RES1   0.0000
    97 H36       5.6791   -7.2274    3.0247   H         1 RES1   0.0000
    98 H37       5.0080   -5.0387    2.0856   H         1 RES1   0.0000
    99 H38       0.4461   -4.4728    1.8453   H         1 RES1   0.0000
   100 H39       1.9099   -5.4211    2.1965   H         1 RES1   0.0000
   101 H40       1.1840   -4.0745   -0.4507   H         1 RES1   0.0000
   102 H41       1.1136   -5.7975   -0.0986   H         1 RES1   0.0000
   103 H42       3.5525   -5.8894    0.1779   H         1 RES1   0.0000
   104 H43       3.6838   -4.1404   -0.0198   H         1 RES1   0.0000
   105 H44       2.7231   -6.1003   -2.1428   H         1 RES1   0.0000
   106 H45       4.3220   -5.3674   -2.0506   H         1 RES1   0.0000
   107 H46       1.6954   -3.9137   -2.6098   H         1 RES1   0.0000
   108 H47       2.9959   -4.2559   -3.7315   H         1 RES1   0.0000
   109 H48       3.1391   -2.3393   -1.3564   H         1 RES1   0.0000
   110 H49       3.1568   -1.9383   -3.0667   H         1 RES1   0.0000
   111 H50       4.5282   -2.7937   -2.3587   H         1 RES1   0.0000
   112 N5       -2.3537    0.9282    1.0147   N.3       1 RES1   0.0000
   113 O3       -3.2892    1.5138    1.4663   O.2       1 RES1   0.0000
   114 O4       -1.2004    1.1983    1.4025   O.co2     1 RES1   0.0000
   115 O5       -2.4939    0.0413    0.1644   O.co2     1 RES1   0.0000
   116 N6        0.3499   -0.9804   -2.3138   N.3       1 RES1   0.0000
   117 O6        0.5924   -1.2611   -3.4445   O.2       1 RES1   0.0000
   118 O7        1.0961   -0.2097   -1.6808   O.co2     1 RES1   0.0000
   119 O8       -0.6399   -1.4507   -1.7324   O.co2     1 RES1   0.0000
   120 O9       -1.2346   -1.4291    1.9897   O.3       1 RES1   0.0000
   121 H51      -0.7994   -1.7279    2.7987   H         1 RES1   0.0000
   122 H52      -1.7415   -2.1754    1.6340   H         1 RES1   0.0000
@<TRIPOS>BOND
     1     1    53    1
     2     1    55    1
     3     1    58    1
     4     1    61    1
     5     1   114    1
     6     1   115    1
     7     1   118    1
     8     1   119    1
     9     1   120    1
    10     2     3    1
    11     2    62    1
    12     2    63    1
    13     2    64    1
    14     3     4    1
    15     3    65    1
    16     3    66    1
    17     4     5    1
    18     4    67    1
    19     4    68    1
    20     5     6    1
    21     5    69    1
    22     5    70    1
    23     6     7    1
    24     6    71    1
    25     6    72    1
    26     7     8    1
    27     7    73    1
    28     7    74    1
    29     8     9    1
    30     8    60    1
    31     9    10    1
    32     9    16    2
    33    10    11    1
    34    10    15    2
    35    11    12    2
    36    11    75    1
    37    12    13    1
    38    12    76    1
    39    13    14    2
    40    13    77    1
    41    14    15    1
    42    14    78    1
    43    15    79    1
    44    16    17    1
    45    16    23    1
    46    17    18    1
    47    17    22    2
    48    18    19    2
    49    18    80    1
    50    19    20    1
    51    19    81    1
    52    20    21    2
    53    20    82    1
    54    21    22    1
    55    21    83    1
    56    22    84    1
    57    23    24    1
    58    23    59    2
    59    24    25    2
    60    24    85    1
    61    25    26    1
    62    25    57    1
    63    26    27    2
    64    26    86    1
    65    27    28    1
    66    27    87    1
    67    28    29    1
    68    28    56    2
    69    29    30    2
    70    29    88    1
    71    30    31    1
    72    30    54    1
    73    31    32    1
    74    31    38    2
    75    32    33    1
    76    32    37    2
    77    33    34    2
    78    33    89    1
    79    34    35    1
    80    34    90    1
    81    35    36    2
    82    35    91    1
    83    36    37    1
    84    36    92    1
    85    37    93    1
    86    38    39    1
    87    38    45    1
    88    39    40    1
    89    39    44    2
    90    40    41    2
    91    40    94    1
    92    41    42    1
    93    41    95    1
    94    42    43    2
    95    42    96    1
    96    43    44    1
    97    43    97    1
    98    44    98    1
    99    45    46    1
   100    45    52    1
   101    46    47    1
   102    46    99    1
   103    46   100    1
   104    47    48    1
   105    47   101    1
   106    47   102    1
   107    48    49    1
   108    48   103    1
   109    48   104    1
   110    49    50    1
   111    49   105    1
   112    49   106    1
   113    50    51    1
   114    50   107    1
   115    50   108    1
   116    51   109    1
   117    51   110    1
   118    51   111    1
   119    52    53    2
   120    52    54    1
   121    54    55    2
   122    55    56    1
   123    56    57    1
   124    57    58    2
   125    58    59    1
   126    59    60    1
   127    60    61    2
   128   112   113    2
   129   112   114    1
   130   112   115    1
   131   116   117    2
   132   116   118    1
   133   116   119    1
   134   120   121    1
   135   120   122    1
@<TRIPOS>SUBSTRUCTURE
     1 RES1      122 GROUP             0 ****  ****    0  
