@<TRIPOS>MOLECULE
am_c3_9H2O_c0_0_nunpairedes_0_charge_1 Charge: 1 Unpaired_Electrons: 2 XTB_Unpaired_Electrons: 0 XTB_Charge: 1
   122   135     1     0     0
SMALL
NoCharges
****
Generated from Architector

@<TRIPOS>ATOM
     1 Pr1      -0.3320   -0.1026   -0.1205   Pr        1 RES1   0.0000
     2 C1       -2.1801   -3.5674    5.6002   C.3       1 RES1   0.0000
     3 C2       -2.3494   -4.9094    4.8999   C.3       1 RES1   0.0000
     4 C3       -1.8781   -4.9070    3.4461   C.3       1 RES1   0.0000
     5 C4       -0.3671   -4.7152    3.3000   C.3       1 RES1   0.0000
     6 C5        0.0546   -4.7461    1.8306   C.3       1 RES1   0.0000
     7 C6        1.5637   -4.6269    1.5774   C.3       1 RES1   0.0000
     8 N1        2.1367   -3.3851    2.0922   N.ar      1 RES1   0.0000
     9 C7        3.1177   -3.3743    3.0618   C.ar      1 RES1   0.0000
    10 C8        3.6275   -4.6891    3.5210   C.ar      1 RES1   0.0000
    11 C9        4.6921   -5.2691    2.8380   C.ar      1 RES1   0.0000
    12 C10       5.1784   -6.5025    3.2327   C.ar      1 RES1   0.0000
    13 C11       4.6138   -7.1687    4.3072   C.ar      1 RES1   0.0000
    14 C12       3.5540   -6.5899    4.9857   C.ar      1 RES1   0.0000
    15 C13       3.0593   -5.3551    4.6010   C.ar      1 RES1   0.0000
    16 C14       3.6692   -2.2171    3.5408   C.ar      1 RES1   0.0000
    17 C15       4.7546   -2.2948    4.5558   C.ar      1 RES1   0.0000
    18 C16       4.4634   -2.5561    5.8906   C.ar      1 RES1   0.0000
    19 C17       5.4809   -2.6367    6.8263   C.ar      1 RES1   0.0000
    20 C18       6.8002   -2.4661    6.4423   C.ar      1 RES1   0.0000
    21 C19       7.0951   -2.2272    5.1099   C.ar      1 RES1   0.0000
    22 C20       6.0827   -2.1379    4.1693   C.ar      1 RES1   0.0000
    23 C21       3.2175   -0.9498    3.0359   C.ar      1 RES1   0.0000
    24 C22       3.6535    0.3190    3.4568   C.ar      1 RES1   0.0000
    25 C23       3.1365    1.4635    2.8498   C.ar      1 RES1   0.0000
    26 C24       3.4999    2.8044    3.2062   C.ar      1 RES1   0.0000
    27 C25       2.9347    3.8848    2.6192   C.ar      1 RES1   0.0000
    28 C26       1.9583    3.7527    1.5736   C.ar      1 RES1   0.0000
    29 C27       1.3279    4.8155    0.9216   C.ar      1 RES1   0.0000
    30 C28       0.3808    4.5513   -0.0830   C.ar      1 RES1   0.0000
    31 C29      -0.3553    5.5144   -0.8471   C.ar      1 RES1   0.0000
    32 C30      -0.0596    6.9657   -0.7184   C.ar      1 RES1   0.0000
    33 C31       0.7828    7.5772   -1.6406   C.ar      1 RES1   0.0000
    34 C32       1.0875    8.9223   -1.5228   C.ar      1 RES1   0.0000
    35 C33       0.5494    9.6742   -0.4920   C.ar      1 RES1   0.0000
    36 C34      -0.3027    9.0700    0.4178   C.ar      1 RES1   0.0000
    37 C35      -0.6046    7.7217    0.3131   C.ar      1 RES1   0.0000
    38 C36      -1.2843    5.0907   -1.7591   C.ar      1 RES1   0.0000
    39 C37      -1.9793    6.0925   -2.6033   C.ar      1 RES1   0.0000
    40 C38      -2.9745    6.9102   -2.0816   C.ar      1 RES1   0.0000
    41 C39      -3.6106    7.8307   -2.8968   C.ar      1 RES1   0.0000
    42 C40      -3.2497    7.9604   -4.2266   C.ar      1 RES1   0.0000
    43 C41      -2.2458    7.1565   -4.7418   C.ar      1 RES1   0.0000
    44 C42      -1.6123    6.2238   -3.9415   C.ar      1 RES1   0.0000
    45 N2       -1.5773    3.7553   -1.9900   N.ar      1 RES1   0.0000
    46 C43      -2.6058    3.4266   -2.9925   C.3       1 RES1   0.0000
    47 C44      -3.3834    2.1154   -2.8257   C.3       1 RES1   0.0000
    48 C45      -4.2530    1.9504   -1.5700   C.3       1 RES1   0.0000
    49 C46      -5.7239    2.3320   -1.7580   C.3       1 RES1   0.0000
    50 C47      -5.9977    3.8180   -1.9729   C.3       1 RES1   0.0000
    51 C48      -5.5810    4.6731   -0.7844   C.3       1 RES1   0.0000
    52 C49      -0.8265    2.7802   -1.4222   C.ar      1 RES1   0.0000
    53 O1       -0.9327    1.5711   -1.7001   O.2       1 RES1   0.0000
    54 C50       0.1517    3.1967   -0.4151   C.ar      1 RES1   0.0000
    55 N3        0.7724    2.1837    0.1724   N.ar      1 RES1   0.0000
    56 C51       1.6151    2.4380    1.1618   C.ar      1 RES1   0.0000
    57 C52       2.1663    1.2897    1.8282   C.ar      1 RES1   0.0000
    58 N4        1.7074    0.1003    1.4555   N.ar      1 RES1   0.0000
    59 C53       2.2281   -0.9849    2.0222   C.ar      1 RES1   0.0000
    60 C54       1.7060   -2.2414    1.4956   C.ar      1 RES1   0.0000
    61 O2        0.8933   -2.2567    0.5553   O.2       1 RES1   0.0000
    62 H1       -2.6022   -3.6130    6.5999   H         1 RES1   0.0000
    63 H2       -2.6964   -2.7787    5.0583   H         1 RES1   0.0000
    64 H3       -1.1315   -3.2981    5.6988   H         1 RES1   0.0000
    65 H4       -3.4054   -5.1774    4.9268   H         1 RES1   0.0000
    66 H5       -1.8064   -5.6765    5.4520   H         1 RES1   0.0000
    67 H6       -2.4127   -4.1296    2.8959   H         1 RES1   0.0000
    68 H7       -2.1480   -5.8610    2.9918   H         1 RES1   0.0000
    69 H8        0.1365   -5.5180    3.8406   H         1 RES1   0.0000
    70 H9       -0.0634   -3.7723    3.7605   H         1 RES1   0.0000
    71 H10      -0.4573   -3.9625    1.2687   H         1 RES1   0.0000
    72 H11      -0.2513   -5.6979    1.3974   H         1 RES1   0.0000
    73 H12       1.7403   -4.6313    0.4956   H         1 RES1   0.0000
    74 H13       2.0946   -5.4629    2.0302   H         1 RES1   0.0000
    75 H14       5.1363   -4.7606    1.9943   H         1 RES1   0.0000
    76 H15       5.9935   -6.9468    2.6862   H         1 RES1   0.0000
    77 H16       4.9803   -8.1403    4.6077   H         1 RES1   0.0000
    78 H17       3.1092   -7.1190    5.8124   H         1 RES1   0.0000
    79 H18       2.2327   -4.9029    5.1307   H         1 RES1   0.0000
    80 H19       3.4396   -2.6974    6.2072   H         1 RES1   0.0000
    81 H20       5.2382   -2.8462    7.8564   H         1 RES1   0.0000
    82 H21       7.6000   -2.5283    7.1673   H         1 RES1   0.0000
    83 H22       8.1258   -2.1233    4.8097   H         1 RES1   0.0000
    84 H23       6.3181   -1.9622    3.1282   H         1 RES1   0.0000
    85 H24       4.3865    0.4019    4.2507   H         1 RES1   0.0000
    86 H25       4.2392    2.9184    3.9828   H         1 RES1   0.0000
    87 H26       3.2140    4.8843    2.9182   H         1 RES1   0.0000
    88 H27       1.5586    5.8399    1.1885   H         1 RES1   0.0000
    89 H28       1.2026    6.9985   -2.4515   H         1 RES1   0.0000
    90 H29       1.7449    9.3825   -2.2431   H         1 RES1   0.0000
    91 H30       0.7861   10.7249   -0.3941   H         1 RES1   0.0000
    92 H31      -0.7314    9.6647    1.2087   H         1 RES1   0.0000
    93 H32      -1.2708    7.2454    1.0197   H         1 RES1   0.0000
    94 H33      -3.2639    6.8135   -1.0457   H         1 RES1   0.0000
    95 H34      -4.3986    8.4407   -2.4882   H         1 RES1   0.0000
    96 H35      -3.7498    8.6697   -4.8703   H         1 RES1   0.0000
    97 H36      -1.9718    7.2555   -5.7790   H         1 RES1   0.0000
    98 H37      -0.8277    5.5949   -4.3410   H         1 RES1   0.0000
    99 H38      -2.0928    3.4029   -3.9622   H         1 RES1   0.0000
   100 H39      -3.3045    4.2631   -3.0034   H         1 RES1   0.0000
   101 H40      -2.6834    1.2831   -2.8844   H         1 RES1   0.0000
   102 H41      -4.0304    2.0575   -3.7026   H         1 RES1   0.0000
   103 H42      -3.8322    2.4949   -0.7236   H         1 RES1   0.0000
   104 H43      -4.2376    0.8911   -1.3062   H         1 RES1   0.0000
   105 H44      -6.2743    2.0092   -0.8730   H         1 RES1   0.0000
   106 H45      -6.1191    1.7716   -2.6076   H         1 RES1   0.0000
   107 H46      -7.0687    3.9541   -2.1322   H         1 RES1   0.0000
   108 H47      -5.4934    4.1623   -2.8764   H         1 RES1   0.0000
   109 H48      -6.0835    4.3346    0.1180   H         1 RES1   0.0000
   110 H49      -5.8423    5.7149   -0.9552   H         1 RES1   0.0000
   111 H50      -4.5100    4.6139   -0.6101   H         1 RES1   0.0000
   112 N5       -2.4472    0.7663    0.9911   N.3       1 RES1   0.0000
   113 O3       -3.4337    1.1916    1.5077   O.2       1 RES1   0.0000
   114 O4       -2.5010   -0.1123    0.1224   O.co2     1 RES1   0.0000
   115 O5       -1.3291    1.2051    1.3183   O.co2     1 RES1   0.0000
   116 N6        0.4618   -1.0579   -2.2488   N.3       1 RES1   0.0000
   117 O6        0.8138   -1.4659   -3.3087   O.2       1 RES1   0.0000
   118 O7        1.1699   -0.2557   -1.6122   O.co2     1 RES1   0.0000
   119 O8       -0.6060   -1.4280   -1.7368   O.co2     1 RES1   0.0000
   120 O9       -1.1497   -1.4082    2.0128   O.3       1 RES1   0.0000
   121 H51      -0.7560   -1.6634    2.8585   H         1 RES1   0.0000
   122 H52      -1.6317   -2.1851    1.6852   H         1 RES1   0.0000
@<TRIPOS>BOND
     1     1    53    1
     2     1    55    1
     3     1    58    1
     4     1    61    1
     5     1   114    1
     6     1   115    1
     7     1   118    1
     8     1   119    1
     9     1   120    1
    10     2     3    1
    11     2    62    1
    12     2    63    1
    13     2    64    1
    14     3     4    1
    15     3    65    1
    16     3    66    1
    17     4     5    1
    18     4    67    1
    19     4    68    1
    20     5     6    1
    21     5    69    1
    22     5    70    1
    23     6     7    1
    24     6    71    1
    25     6    72    1
    26     7     8    1
    27     7    73    1
    28     7    74    1
    29     8     9    1
    30     8    60    1
    31     9    10    1
    32     9    16    2
    33    10    11    1
    34    10    15    2
    35    11    12    2
    36    11    75    1
    37    12    13    1
    38    12    76    1
    39    13    14    2
    40    13    77    1
    41    14    15    1
    42    14    78    1
    43    15    79    1
    44    16    17    1
    45    16    23    1
    46    17    18    1
    47    17    22    2
    48    18    19    2
    49    18    80    1
    50    19    20    1
    51    19    81    1
    52    20    21    2
    53    20    82    1
    54    21    22    1
    55    21    83    1
    56    22    84    1
    57    23    24    1
    58    23    59    2
    59    24    25    2
    60    24    85    1
    61    25    26    1
    62    25    57    1
    63    26    27    2
    64    26    86    1
    65    27    28    1
    66    27    87    1
    67    28    29    1
    68    28    56    2
    69    29    30    2
    70    29    88    1
    71    30    31    1
    72    30    54    1
    73    31    32    1
    74    31    38    2
    75    32    33    1
    76    32    37    2
    77    33    34    2
    78    33    89    1
    79    34    35    1
    80    34    90    1
    81    35    36    2
    82    35    91    1
    83    36    37    1
    84    36    92    1
    85    37    93    1
    86    38    39    1
    87    38    45    1
    88    39    40    1
    89    39    44    2
    90    40    41    2
    91    40    94    1
    92    41    42    1
    93    41    95    1
    94    42    43    2
    95    42    96    1
    96    43    44    1
    97    43    97    1
    98    44    98    1
    99    45    46    1
   100    45    52    1
   101    46    47    1
   102    46    99    1
   103    46   100    1
   104    47    48    1
   105    47   101    1
   106    47   102    1
   107    48    49    1
   108    48   103    1
   109    48   104    1
   110    49    50    1
   111    49   105    1
   112    49   106    1
   113    50    51    1
   114    50   107    1
   115    50   108    1
   116    51   109    1
   117    51   110    1
   118    51   111    1
   119    52    53    2
   120    52    54    1
   121    54    55    2
   122    55    56    1
   123    56    57    1
   124    57    58    2
   125    58    59    1
   126    59    60    1
   127    60    61    2
   128   112   113    2
   129   112   114    1
   130   112   115    1
   131   116   117    2
   132   116   118    1
   133   116   119    1
   134   120   121    1
   135   120   122    1
@<TRIPOS>SUBSTRUCTURE
     1 RES1      122 GROUP             0 ****  ****    0  
