@<TRIPOS>MOLECULE
am_c3_9H2O_c0_0_nunpairedes_0_charge_3 Charge: 3 Unpaired_Electrons: 2 XTB_Unpaired_Electrons: 0 XTB_Charge: 3
   340   345     1     0     0
SMALL
NoCharges
****
Generated from Architector

@<TRIPOS>ATOM
     1 Pr1      -0.0615   -0.0484    0.2181   Pr        1 RES1   0.0000
     2 C1        2.7239    6.2198    1.4611   C.3       1 RES1   0.0000
     3 C2        3.6468    6.6331    2.6041   C.3       1 RES1   0.0000
     4 C3        2.9239    7.3560    3.7464   C.3       1 RES1   0.0000
     5 C4        2.4227    6.4618    4.8848   C.3       1 RES1   0.0000
     6 C5        1.3044    5.4698    4.5517   C.3       1 RES1   0.0000
     7 C6        0.0283    6.1363    4.0382   C.3       1 RES1   0.0000
     8 C7       -1.1414    5.1609    3.8599   C.3       1 RES1   0.0000
     9 C8       -0.9208    3.9937    2.8948   C.3       1 RES1   0.0000
    10 N1       -1.1703    4.1930    1.4517   N.am      1 RES1   0.0000
    11 C9       -1.2863    5.5256    0.8783   C.3       1 RES1   0.0000
    12 C10      -2.6386    6.2287    1.1011   C.3       1 RES1   0.0000
    13 C11      -3.0904    7.0518   -0.1131   C.3       1 RES1   0.0000
    14 C12      -3.8690    6.2205   -1.1295   C.3       1 RES1   0.0000
    15 C13      -4.3308    7.0072   -2.3572   C.3       1 RES1   0.0000
    16 C14      -3.2114    7.4588   -3.2953   C.3       1 RES1   0.0000
    17 C15      -2.4008    6.3058   -3.8914   C.3       1 RES1   0.0000
    18 C16      -1.6127    6.7423   -5.1214   C.3       1 RES1   0.0000
    19 C17      -1.1818    3.0792    0.7185   C.2       1 RES1   0.0000
    20 O1       -0.9427    1.9571    1.2073   O.2       1 RES1   0.0000
    21 C18      -1.5553    3.1465   -0.7716   C.3       1 RES1   0.0000
    22 O2       -1.5049    1.8413   -1.3390   O.3       1 RES1   0.0000
    23 C19      -2.7026    1.4203   -1.9840   C.3       1 RES1   0.0000
    24 C20      -3.4048    0.3534   -1.1233   C.2       1 RES1   0.0000
    25 O3       -2.6880   -0.2410   -0.2930   O.2       1 RES1   0.0000
    26 N2       -4.6828    0.0591   -1.3553   N.am      1 RES1   0.0000
    27 C21      -5.5778    0.8780   -2.1674   C.3       1 RES1   0.0000
    28 C22      -6.4851    1.8013   -1.3393   C.3       1 RES1   0.0000
    29 C23      -5.8212    3.0661   -0.7910   C.3       1 RES1   0.0000
    30 C24      -4.9251    2.8690    0.4362   C.3       1 RES1   0.0000
    31 C25      -5.6966    2.5721    1.7219   C.3       1 RES1   0.0000
    32 C26      -4.7983    2.5921    2.9599   C.3       1 RES1   0.0000
    33 C27      -3.6884    1.5441    2.9170   C.3       1 RES1   0.0000
    34 C28      -2.9677    1.4062    4.2551   C.3       1 RES1   0.0000
    35 C29      -5.3217   -1.0457   -0.6223   C.3       1 RES1   0.0000
    36 C30      -6.2666   -1.8734   -1.5064   C.3       1 RES1   0.0000
    37 C31      -6.6789   -3.2498   -0.9594   C.3       1 RES1   0.0000
    38 C32      -7.5501   -3.2453    0.2998   C.3       1 RES1   0.0000
    39 C33      -8.2643   -4.5882    0.5382   C.3       1 RES1   0.0000
    40 C34      -7.4479   -5.6402    1.2969   C.3       1 RES1   0.0000
    41 C35      -7.5428   -5.4691    2.8118   C.3       1 RES1   0.0000
    42 C36      -6.5784   -6.3754    3.5699   C.3       1 RES1   0.0000
    43 H1        3.2862    5.7204    0.6719   H         1 RES1   0.0000
    44 H2        1.9387    5.5490    1.8016   H         1 RES1   0.0000
    45 H3        2.2519    7.1020    1.0328   H         1 RES1   0.0000
    46 H4        4.1751    5.7618    2.9979   H         1 RES1   0.0000
    47 H5        4.4017    7.3010    2.1872   H         1 RES1   0.0000
    48 H6        3.6277    8.0552    4.1967   H         1 RES1   0.0000
    49 H7        2.1050    7.9515    3.3409   H         1 RES1   0.0000
    50 H8        3.2714    5.8975    5.2810   H         1 RES1   0.0000
    51 H9        2.0680    7.1132    5.6841   H         1 RES1   0.0000
    52 H10       1.6734    4.7443    3.8250   H         1 RES1   0.0000
    53 H11       1.0672    4.9122    5.4613   H         1 RES1   0.0000
    54 H12      -0.2823    6.8809    4.7715   H         1 RES1   0.0000
    55 H13       0.2401    6.6652    3.1102   H         1 RES1   0.0000
    56 H14      -1.3259    4.7064    4.8364   H         1 RES1   0.0000
    57 H15      -2.0483    5.7047    3.6023   H         1 RES1   0.0000
    58 H16       0.1002    3.6223    3.0234   H         1 RES1   0.0000
    59 H17      -1.5775    3.1747    3.1861   H         1 RES1   0.0000
    60 H18      -0.4935    6.1371    1.3087   H         1 RES1   0.0000
    61 H19      -1.0884    5.4539   -0.1893   H         1 RES1   0.0000
    62 H20      -3.4029    5.4872    1.3410   H         1 RES1   0.0000
    63 H21      -2.5521    6.8978    1.9553   H         1 RES1   0.0000
    64 H22      -3.7428    7.8514    0.2346   H         1 RES1   0.0000
    65 H23      -2.2275    7.5267   -0.5804   H         1 RES1   0.0000
    66 H24      -3.2657    5.3707   -1.4593   H         1 RES1   0.0000
    67 H25      -4.7588    5.8290   -0.6315   H         1 RES1   0.0000
    68 H26      -5.0246    6.3810   -2.9240   H         1 RES1   0.0000
    69 H27      -4.8862    7.8833   -2.0210   H         1 RES1   0.0000
    70 H28      -3.6735    8.0144   -4.1116   H         1 RES1   0.0000
    71 H29      -2.5414    8.1452   -2.7769   H         1 RES1   0.0000
    72 H30      -1.7036    5.9126   -3.1427   H         1 RES1   0.0000
    73 H31      -3.0791    5.4961   -4.1753   H         1 RES1   0.0000
    74 H32      -0.9634    7.5800   -4.8841   H         1 RES1   0.0000
    75 H33      -0.9992    5.9251   -5.4952   H         1 RES1   0.0000
    76 H34      -2.2865    7.0512   -5.9156   H         1 RES1   0.0000
    77 H35      -2.5607    3.5786   -0.8428   H         1 RES1   0.0000
    78 H36      -0.8595    3.7748   -1.3479   H         1 RES1   0.0000
    79 H37      -3.3362    2.2792   -2.2117   H         1 RES1   0.0000
    80 H38      -2.4086    0.9369   -2.9268   H         1 RES1   0.0000
    81 H39      -5.0134    1.4561   -2.8969   H         1 RES1   0.0000
    82 H40      -6.2112    0.1953   -2.7337   H         1 RES1   0.0000
    83 H41      -7.2948    2.1085   -2.0038   H         1 RES1   0.0000
    84 H42      -6.9393    1.2448   -0.5206   H         1 RES1   0.0000
    85 H43      -5.2531    3.5403   -1.5957   H         1 RES1   0.0000
    86 H44      -6.6152    3.7644   -0.5222   H         1 RES1   0.0000
    87 H45      -4.2036    2.0685    0.2659   H         1 RES1   0.0000
    88 H46      -4.3629    3.7924    0.5983   H         1 RES1   0.0000
    89 H47      -6.4803    3.3218    1.8464   H         1 RES1   0.0000
    90 H48      -6.1825    1.5992    1.6452   H         1 RES1   0.0000
    91 H49      -4.3610    3.5863    3.0709   H         1 RES1   0.0000
    92 H50      -5.4167    2.4141    3.8403   H         1 RES1   0.0000
    93 H51      -4.1214    0.5823    2.6384   H         1 RES1   0.0000
    94 H52      -2.9606    1.7862    2.1424   H         1 RES1   0.0000
    95 H53      -3.5973    0.9087    4.9848   H         1 RES1   0.0000
    96 H54      -2.0502    0.8320    4.1350   H         1 RES1   0.0000
    97 H55      -2.7205    2.3814    4.6671   H         1 RES1   0.0000
    98 H56      -4.5156   -1.6631   -0.2240   H         1 RES1   0.0000
    99 H57      -5.8761   -0.6354    0.2267   H         1 RES1   0.0000
   100 H58      -7.1834   -1.3076   -1.6795   H         1 RES1   0.0000
   101 H59      -5.7741   -2.0448   -2.4682   H         1 RES1   0.0000
   102 H60      -7.2663   -3.7192   -1.7520   H         1 RES1   0.0000
   103 H61      -5.7941   -3.8658   -0.8054   H         1 RES1   0.0000
   104 H62      -6.9524   -2.9895    1.1771   H         1 RES1   0.0000
   105 H63      -8.3116   -2.4727    0.1746   H         1 RES1   0.0000
   106 H64      -9.1735   -4.4012    1.1115   H         1 RES1   0.0000
   107 H65      -8.5749   -4.9910   -0.4277   H         1 RES1   0.0000
   108 H66      -7.8138   -6.6332    1.0352   H         1 RES1   0.0000
   109 H67      -6.4010   -5.5889    0.9952   H         1 RES1   0.0000
   110 H68      -7.3388   -4.4298    3.0704   H         1 RES1   0.0000
   111 H69      -8.5612   -5.6878    3.1326   H         1 RES1   0.0000
   112 H70      -5.5575   -6.2518    3.2073   H         1 RES1   0.0000
   113 H71      -6.5944   -6.1441    4.6332   H         1 RES1   0.0000
   114 H72      -6.8524   -7.4203    3.4492   H         1 RES1   0.0000
   115 C37      -0.9578    2.4321   -6.1669   C.3       1 RES1   0.0000
   116 C38      -1.3937    1.7982   -7.4870   C.3       1 RES1   0.0000
   117 C39      -0.2492    1.5389   -8.4770   C.3       1 RES1   0.0000
   118 C40       0.3736    0.1410   -8.4221   C.3       1 RES1   0.0000
   119 C41       1.0489   -0.2550   -7.1082   C.3       1 RES1   0.0000
   120 C42       2.1949    0.6757   -6.7112   C.3       1 RES1   0.0000
   121 C43       2.9470    0.1899   -5.4671   C.3       1 RES1   0.0000
   122 C44       2.1390    0.2502   -4.1748   C.3       1 RES1   0.0000
   123 N3        2.2797    1.4752   -3.3755   N.am      1 RES1   0.0000
   124 C45       2.8969    2.6914   -3.8872   C.3       1 RES1   0.0000
   125 C46       4.4011    2.8713   -3.6175   C.3       1 RES1   0.0000
   126 C47       4.7642    4.3633   -3.5756   C.3       1 RES1   0.0000
   127 C48       4.4328    5.0222   -2.2351   C.3       1 RES1   0.0000
   128 C49       4.5955    6.5465   -2.2245   C.3       1 RES1   0.0000
   129 C50       3.5000    7.3212   -2.9618   C.3       1 RES1   0.0000
   130 C51       2.0991    7.1270   -2.3723   C.3       1 RES1   0.0000
   131 C52       1.1698    8.2836   -2.7235   C.3       1 RES1   0.0000
   132 C53       1.6904    1.4189   -2.1911   C.2       1 RES1   0.0000
   133 O4        0.9437    0.4732   -1.8662   O.2       1 RES1   0.0000
   134 C54       1.9807    2.5144   -1.1620   C.3       1 RES1   0.0000
   135 O5        1.5160    1.9988    0.0681   O.3       1 RES1   0.0000
   136 C55       2.0515    2.6067    1.2388   C.3       1 RES1   0.0000
   137 C56       2.0930    1.4760    2.2855   C.2       1 RES1   0.0000
   138 O6        1.3521    0.4908    2.0887   O.2       1 RES1   0.0000
   139 N4        2.9340    1.5643    3.3082   N.am      1 RES1   0.0000
   140 C57       3.7731    2.7170    3.6111   C.3       1 RES1   0.0000
   141 C58       5.2650    2.6113    3.2348   C.3       1 RES1   0.0000
   142 C59       5.6674    3.0429    1.8189   C.3       1 RES1   0.0000
   143 C60       5.4066    2.0205    0.7050   C.3       1 RES1   0.0000
   144 C61       6.3449    0.8046    0.7246   C.3       1 RES1   0.0000
   145 C62       5.5937   -0.5083    0.4725   C.3       1 RES1   0.0000
   146 C63       4.5472   -0.7392    1.5632   C.3       1 RES1   0.0000
   147 C64       4.1013   -2.1699    1.8517   C.3       1 RES1   0.0000
   148 C65       3.1294    0.3865    4.1536   C.3       1 RES1   0.0000
   149 C66       2.5852    0.4125    5.5802   C.3       1 RES1   0.0000
   150 C67       2.8159   -0.9651    6.2327   C.3       1 RES1   0.0000
   151 C68       4.2911   -1.3784    6.3113   C.3       1 RES1   0.0000
   152 C69       4.5448   -2.6482    7.1362   C.3       1 RES1   0.0000
   153 C70       4.0782   -3.9621    6.5013   C.3       1 RES1   0.0000
   154 C71       4.8391   -4.3485    5.2316   C.3       1 RES1   0.0000
   155 C72       4.5051   -5.7694    4.7868   C.3       1 RES1   0.0000
   156 H73      -1.8294    2.7641   -5.6050   H         1 RES1   0.0000
   157 H74      -0.3992    1.7374   -5.5436   H         1 RES1   0.0000
   158 H75      -0.3341    3.3032   -6.3574   H         1 RES1   0.0000
   159 H76      -1.9270    0.8652   -7.2910   H         1 RES1   0.0000
   160 H77      -2.1017    2.4823   -7.9575   H         1 RES1   0.0000
   161 H78      -0.6458    1.6538   -9.4869   H         1 RES1   0.0000
   162 H79       0.5222    2.3014   -8.3543   H         1 RES1   0.0000
   163 H80      -0.4047   -0.5954   -8.6379   H         1 RES1   0.0000
   164 H81       1.1127    0.0742   -9.2224   H         1 RES1   0.0000
   165 H82       0.2965   -0.2965   -6.3179   H         1 RES1   0.0000
   166 H83       1.4471   -1.2650   -7.2293   H         1 RES1   0.0000
   167 H84       2.9033    0.7220   -7.5401   H         1 RES1   0.0000
   168 H85       1.8021    1.6797   -6.5530   H         1 RES1   0.0000
   169 H86       3.2222   -0.8542   -5.6289   H         1 RES1   0.0000
   170 H87       3.8760    0.7460   -5.3468   H         1 RES1   0.0000
   171 H88       1.0735    0.1110   -4.3890   H         1 RES1   0.0000
   172 H89       2.4462   -0.5620   -3.5044   H         1 RES1   0.0000
   173 H90       2.7238    2.7212   -4.9619   H         1 RES1   0.0000
   174 H91       2.3619    3.5369   -3.4529   H         1 RES1   0.0000
   175 H92       4.6825    2.3915   -2.6787   H         1 RES1   0.0000
   176 H93       4.9734    2.3856   -4.4071   H         1 RES1   0.0000
   177 H94       5.8320    4.4748   -3.7579   H         1 RES1   0.0000
   178 H95       4.2431    4.8770   -4.3832   H         1 RES1   0.0000
   179 H96       3.4064    4.7902   -1.9448   H         1 RES1   0.0000
   180 H97       5.0990    4.6072   -1.4730   H         1 RES1   0.0000
   181 H98       4.6013    6.8838   -1.1841   H         1 RES1   0.0000
   182 H99       5.5643    6.8060   -2.6525   H         1 RES1   0.0000
   183 H100      3.7542    8.3799   -2.8960   H         1 RES1   0.0000
   184 H101      3.4896    7.0543   -4.0191   H         1 RES1   0.0000
   185 H102      1.6613    6.1937   -2.7440   H         1 RES1   0.0000
   186 H103      2.1747    7.0527   -1.2848   H         1 RES1   0.0000
   187 H104      1.1195    8.4212   -3.7998   H         1 RES1   0.0000
   188 H105      0.1637    8.0971   -2.3527   H         1 RES1   0.0000
   189 H106      1.5283    9.2093   -2.2819   H         1 RES1   0.0000
   190 H107      3.0610    2.7016   -1.1299   H         1 RES1   0.0000
   191 H108      1.4550    3.4473   -1.4260   H         1 RES1   0.0000
   192 H109      3.0393    3.0304    1.0498   H         1 RES1   0.0000
   193 H110      1.3857    3.4116    1.5684   H         1 RES1   0.0000
   194 H111      3.3473    3.6147    3.1647   H         1 RES1   0.0000
   195 H112      3.7215    2.8374    4.6952   H         1 RES1   0.0000
   196 H113      5.8029    3.2631    3.9270   H         1 RES1   0.0000
   197 H114      5.6237    1.6005    3.4179   H         1 RES1   0.0000
   198 H115      5.1732    3.9872    1.5726   H         1 RES1   0.0000
   199 H116      6.7377    3.2508    1.8377   H         1 RES1   0.0000
   200 H117      4.3884    1.6465    0.7794   H         1 RES1   0.0000
   201 H118      5.5141    2.5328   -0.2553   H         1 RES1   0.0000
   202 H119      7.1307    0.9266   -0.0215   H         1 RES1   0.0000
   203 H120      6.8393    0.7373    1.6934   H         1 RES1   0.0000
   204 H121      5.1307   -0.4764   -0.5174   H         1 RES1   0.0000
   205 H122      6.3141   -1.3231    0.4953   H         1 RES1   0.0000
   206 H123      4.9957   -0.3435    2.4714   H         1 RES1   0.0000
   207 H124      3.6467   -0.1714    1.3217   H         1 RES1   0.0000
   208 H125      3.7811   -2.2326    2.8862   H         1 RES1   0.0000
   209 H126      3.2522   -2.4481    1.2367   H         1 RES1   0.0000
   210 H127      4.9106   -2.8803    1.7149   H         1 RES1   0.0000
   211 H128      2.6670   -0.4485    3.6289   H         1 RES1   0.0000
   212 H129      4.2044    0.2246    4.2236   H         1 RES1   0.0000
   213 H130      3.0937    1.1761    6.1714   H         1 RES1   0.0000
   214 H131      1.5151    0.6307    5.5707   H         1 RES1   0.0000
   215 H132      2.4150   -0.9354    7.2478   H         1 RES1   0.0000
   216 H133      2.2579   -1.7202    5.6773   H         1 RES1   0.0000
   217 H134      4.6951   -1.5398    5.3103   H         1 RES1   0.0000
   218 H135      4.8541   -0.5633    6.7737   H         1 RES1   0.0000
   219 H136      5.6210   -2.7240    7.3108   H         1 RES1   0.0000
   220 H137      4.0659   -2.5398    8.1117   H         1 RES1   0.0000
   221 H138      4.2289   -4.7539    7.2375   H         1 RES1   0.0000
   222 H139      3.0084   -3.9186    6.2868   H         1 RES1   0.0000
   223 H140      4.5961   -3.6555    4.4220   H         1 RES1   0.0000
   224 H141      5.9123   -4.2739    5.4185   H         1 RES1   0.0000
   225 H142      3.4281   -5.8997    4.7048   H         1 RES1   0.0000
   226 H143      4.9524   -5.9869    3.8189   H         1 RES1   0.0000
   227 H144      4.8809   -6.4948    5.5035   H         1 RES1   0.0000
   228 C73      -8.4053   -0.1566    2.1352   C.3       1 RES1   0.0000
   229 C74      -8.4511    0.1579    3.6261   C.3       1 RES1   0.0000
   230 C75      -8.1869   -1.0799    4.5007   C.3       1 RES1   0.0000
   231 C76      -6.8864   -1.0049    5.3026   C.3       1 RES1   0.0000
   232 C77      -5.6083   -1.1152    4.4692   C.3       1 RES1   0.0000
   233 C78      -5.4212   -2.4972    3.8301   C.3       1 RES1   0.0000
   234 C79      -3.9886   -3.0344    3.9179   C.3       1 RES1   0.0000
   235 C80      -2.9895   -2.3632    2.9828   C.3       1 RES1   0.0000
   236 N5       -2.8190   -2.9801    1.6517   N.am      1 RES1   0.0000
   237 C81      -3.7126   -3.9973    1.1157   C.3       1 RES1   0.0000
   238 C82      -3.1602   -5.4355    1.1363   C.3       1 RES1   0.0000
   239 C83      -3.7193   -6.2913   -0.0114   C.3       1 RES1   0.0000
   240 C84      -3.1149   -5.9619   -1.3779   C.3       1 RES1   0.0000
   241 C85      -3.7996   -6.6854   -2.5466   C.3       1 RES1   0.0000
   242 C86      -4.9895   -5.9331   -3.1536   C.3       1 RES1   0.0000
   243 C87      -4.5802   -4.6809   -3.9341   C.3       1 RES1   0.0000
   244 C88      -5.7480   -4.0384   -4.6770   C.3       1 RES1   0.0000
   245 C89      -1.8226   -2.4817    0.9388   C.2       1 RES1   0.0000
   246 O7       -0.9951   -1.6791    1.4146   O.2       1 RES1   0.0000
   247 C90      -1.6757   -2.9009   -0.5314   C.3       1 RES1   0.0000
   248 O8       -0.6990   -2.0741   -1.1514   O.3       1 RES1   0.0000
   249 C91       0.2471   -2.7617   -1.9594   C.3       1 RES1   0.0000
   250 C92       1.6466   -2.6323   -1.3235   C.2       1 RES1   0.0000
   251 O9        1.8028   -1.6968   -0.5153   O.2       1 RES1   0.0000
   252 N6        2.6057   -3.4560   -1.7377   N.am      1 RES1   0.0000
   253 C93       2.3342   -4.7028   -2.4428   C.3       1 RES1   0.0000
   254 C94       2.2749   -5.9240   -1.5089   C.3       1 RES1   0.0000
   255 C95       0.9729   -6.0902   -0.7237   C.3       1 RES1   0.0000
   256 C96       0.8199   -5.2190    0.5282   C.3       1 RES1   0.0000
   257 C97       1.5756   -5.7284    1.7599   C.3       1 RES1   0.0000
   258 C98       0.8999   -5.2746    3.0570   C.3       1 RES1   0.0000
   259 C99       1.0200   -3.7790    3.3471   C.3       1 RES1   0.0000
   260 C100      0.1994   -3.3903    4.5722   C.3       1 RES1   0.0000
   261 C101      3.9875   -3.3047   -1.2567   C.3       1 RES1   0.0000
   262 C102      5.0521   -3.6187   -2.3147   C.3       1 RES1   0.0000
   263 C103      6.4847   -3.3166   -1.8494   C.3       1 RES1   0.0000
   264 C104      6.9771   -4.2618   -0.7511   C.3       1 RES1   0.0000
   265 C105      8.4532   -4.0635   -0.3767   C.3       1 RES1   0.0000
   266 C106      8.7278   -2.9198    0.6034   C.3       1 RES1   0.0000
   267 C107      8.1428   -3.1857    1.9898   C.3       1 RES1   0.0000
   268 C108      8.4778   -2.0917    2.9975   C.3       1 RES1   0.0000
   269 H145     -8.5957    0.7396    1.5476   H         1 RES1   0.0000
   270 H146     -7.4332   -0.5610    1.8552   H         1 RES1   0.0000
   271 H147     -9.1640   -0.8919    1.8787   H         1 RES1   0.0000
   272 H148     -7.7199    0.9364    3.8530   H         1 RES1   0.0000
   273 H149     -9.4334    0.5705    3.8549   H         1 RES1   0.0000
   274 H150     -9.0025   -1.1918    5.2148   H         1 RES1   0.0000
   275 H151     -8.1828   -1.9771    3.8779   H         1 RES1   0.0000
   276 H152     -6.8691   -0.0572    5.8442   H         1 RES1   0.0000
   277 H153     -6.8798   -1.8036    6.0457   H         1 RES1   0.0000
   278 H154     -5.6200   -0.3394    3.7061   H         1 RES1   0.0000
   279 H155     -4.7621   -0.9182    5.1290   H         1 RES1   0.0000
   280 H156     -6.0559   -3.2027    4.3635   H         1 RES1   0.0000
   281 H157     -5.7512   -2.4652    2.7904   H         1 RES1   0.0000
   282 H158     -3.6418   -2.8779    4.9406   H         1 RES1   0.0000
   283 H159     -3.9749   -4.1121    3.7543   H         1 RES1   0.0000
   284 H160     -3.2668   -1.3152    2.8158   H         1 RES1   0.0000
   285 H161     -1.9960   -2.3574    3.4390   H         1 RES1   0.0000
   286 H162     -4.6442   -3.9612    1.6720   H         1 RES1   0.0000
   287 H163     -3.9359   -3.7448    0.0788   H         1 RES1   0.0000
   288 H164     -2.0712   -5.4217    1.0703   H         1 RES1   0.0000
   289 H165     -3.4094   -5.9054    2.0877   H         1 RES1   0.0000
   290 H166     -3.5061   -7.3378    0.2065   H         1 RES1   0.0000
   291 H167     -4.8031   -6.1884   -0.0566   H         1 RES1   0.0000
   292 H168     -3.1693   -4.8906   -1.5694   H         1 RES1   0.0000
   293 H169     -2.0601   -6.2493   -1.3572   H         1 RES1   0.0000
   294 H170     -3.0664   -6.8477   -3.3401   H         1 RES1   0.0000
   295 H171     -4.1325   -7.6651   -2.2040   H         1 RES1   0.0000
   296 H172     -5.4951   -6.6085   -3.8446   H         1 RES1   0.0000
   297 H173     -5.7057   -5.6655   -2.3752   H         1 RES1   0.0000
   298 H174     -4.1392   -3.9416   -3.2554   H         1 RES1   0.0000
   299 H175     -3.8131   -4.9545   -4.6622   H         1 RES1   0.0000
   300 H176     -6.5640   -3.7969   -4.0007   H         1 RES1   0.0000
   301 H177     -5.4269   -3.1224   -5.1699   H         1 RES1   0.0000
   302 H178     -6.1329   -4.7116   -5.4368   H         1 RES1   0.0000
   303 H179     -1.4038   -3.9592   -0.5835   H         1 RES1   0.0000
   304 H180     -2.6283   -2.7475   -1.0607   H         1 RES1   0.0000
   305 H181     -0.0695   -3.7927   -2.1145   H         1 RES1   0.0000
   306 H182      0.2932   -2.2340   -2.9219   H         1 RES1   0.0000
   307 H183      1.4236   -4.6227   -3.0342   H         1 RES1   0.0000
   308 H184      3.1438   -4.8482   -3.1562   H         1 RES1   0.0000
   309 H185      2.3976   -6.7998   -2.1467   H         1 RES1   0.0000
   310 H186      3.1151   -5.9127   -0.8159   H         1 RES1   0.0000
   311 H187      0.1341   -5.9117   -1.4037   H         1 RES1   0.0000
   312 H188      0.8934   -7.1329   -0.4149   H         1 RES1   0.0000
   313 H189      1.1026   -4.1836    0.3298   H         1 RES1   0.0000
   314 H190     -0.2398   -5.2214    0.7947   H         1 RES1   0.0000
   315 H191      1.5808   -6.8193    1.7456   H         1 RES1   0.0000
   316 H192      2.6142   -5.3970    1.7487   H         1 RES1   0.0000
   317 H193     -0.1564   -5.5524    3.0121   H         1 RES1   0.0000
   318 H194      1.3329   -5.8245    3.8938   H         1 RES1   0.0000
   319 H195      2.0687   -3.5430    3.5267   H         1 RES1   0.0000
   320 H196      0.6886   -3.1818    2.4887   H         1 RES1   0.0000
   321 H197      0.6197   -3.8134    5.4799   H         1 RES1   0.0000
   322 H198      0.1635   -2.3090    4.6828   H         1 RES1   0.0000
   323 H199     -0.8156   -3.7686    4.4854   H         1 RES1   0.0000
   324 H200      4.0892   -2.2736   -0.9214   H         1 RES1   0.0000
   325 H201      4.1381   -3.9613   -0.3970   H         1 RES1   0.0000
   326 H202      5.0247   -4.6784   -2.5716   H         1 RES1   0.0000
   327 H203      4.8372   -3.0321   -3.2117   H         1 RES1   0.0000
   328 H204      7.1387   -3.4351   -2.7160   H         1 RES1   0.0000
   329 H205      6.5570   -2.2811   -1.5209   H         1 RES1   0.0000
   330 H206      6.3631   -4.1461    0.1417   H         1 RES1   0.0000
   331 H207      6.8489   -5.2877   -1.1041   H         1 RES1   0.0000
   332 H208      8.8196   -4.9835    0.0827   H         1 RES1   0.0000
   333 H209      9.0313   -3.9064   -1.2890   H         1 RES1   0.0000
   334 H210      9.8081   -2.8057    0.7045   H         1 RES1   0.0000
   335 H211      8.3421   -1.9780    0.2076   H         1 RES1   0.0000
   336 H212      7.0566   -3.2766    1.9237   H         1 RES1   0.0000
   337 H213      8.5234   -4.1404    2.3548   H         1 RES1   0.0000
   338 H214      8.1739   -1.1141    2.6251   H         1 RES1   0.0000
   339 H215      7.9627   -2.2765    3.9388   H         1 RES1   0.0000
   340 H216      9.5463   -2.0622    3.1945   H         1 RES1   0.0000
@<TRIPOS>BOND
     1     1    20    1
     2     1    22    1
     3     1    25    1
     4     1   133    1
     5     1   135    1
     6     1   138    1
     7     1   246    1
     8     1   248    1
     9     1   251    1
    10     2     3    1
    11     2    43    1
    12     2    44    1
    13     2    45    1
    14     3     4    1
    15     3    46    1
    16     3    47    1
    17     4     5    1
    18     4    48    1
    19     4    49    1
    20     5     6    1
    21     5    50    1
    22     5    51    1
    23     6     7    1
    24     6    52    1
    25     6    53    1
    26     7     8    1
    27     7    54    1
    28     7    55    1
    29     8     9    1
    30     8    56    1
    31     8    57    1
    32     9    10    1
    33     9    58    1
    34     9    59    1
    35    10    11    1
    36    10    19    1
    37    11    12    1
    38    11    60    1
    39    11    61    1
    40    12    13    1
    41    12    62    1
    42    12    63    1
    43    13    14    1
    44    13    64    1
    45    13    65    1
    46    14    15    1
    47    14    66    1
    48    14    67    1
    49    15    16    1
    50    15    68    1
    51    15    69    1
    52    16    17    1
    53    16    70    1
    54    16    71    1
    55    17    18    1
    56    17    72    1
    57    17    73    1
    58    18    74    1
    59    18    75    1
    60    18    76    1
    61    19    20    2
    62    19    21    1
    63    21    22    1
    64    21    77    1
    65    21    78    1
    66    22    23    1
    67    23    24    1
    68    23    79    1
    69    23    80    1
    70    24    25    2
    71    24    26    1
    72    26    27    1
    73    26    35    1
    74    27    28    1
    75    27    81    1
    76    27    82    1
    77    28    29    1
    78    28    83    1
    79    28    84    1
    80    29    30    1
    81    29    85    1
    82    29    86    1
    83    30    31    1
    84    30    87    1
    85    30    88    1
    86    31    32    1
    87    31    89    1
    88    31    90    1
    89    32    33    1
    90    32    91    1
    91    32    92    1
    92    33    34    1
    93    33    93    1
    94    33    94    1
    95    34    95    1
    96    34    96    1
    97    34    97    1
    98    35    36    1
    99    35    98    1
   100    35    99    1
   101    36    37    1
   102    36   100    1
   103    36   101    1
   104    37    38    1
   105    37   102    1
   106    37   103    1
   107    38    39    1
   108    38   104    1
   109    38   105    1
   110    39    40    1
   111    39   106    1
   112    39   107    1
   113    40    41    1
   114    40   108    1
   115    40   109    1
   116    41    42    1
   117    41   110    1
   118    41   111    1
   119    42   112    1
   120    42   113    1
   121    42   114    1
   122   115   116    1
   123   115   156    1
   124   115   157    1
   125   115   158    1
   126   116   117    1
   127   116   159    1
   128   116   160    1
   129   117   118    1
   130   117   161    1
   131   117   162    1
   132   118   119    1
   133   118   163    1
   134   118   164    1
   135   119   120    1
   136   119   165    1
   137   119   166    1
   138   120   121    1
   139   120   167    1
   140   120   168    1
   141   121   122    1
   142   121   169    1
   143   121   170    1
   144   122   123    1
   145   122   171    1
   146   122   172    1
   147   123   124    1
   148   123   132    1
   149   124   125    1
   150   124   173    1
   151   124   174    1
   152   125   126    1
   153   125   175    1
   154   125   176    1
   155   126   127    1
   156   126   177    1
   157   126   178    1
   158   127   128    1
   159   127   179    1
   160   127   180    1
   161   128   129    1
   162   128   181    1
   163   128   182    1
   164   129   130    1
   165   129   183    1
   166   129   184    1
   167   130   131    1
   168   130   185    1
   169   130   186    1
   170   131   187    1
   171   131   188    1
   172   131   189    1
   173   132   133    2
   174   132   134    1
   175   134   135    1
   176   134   190    1
   177   134   191    1
   178   135   136    1
   179   136   137    1
   180   136   192    1
   181   136   193    1
   182   137   138    2
   183   137   139    1
   184   139   140    1
   185   139   148    1
   186   140   141    1
   187   140   194    1
   188   140   195    1
   189   141   142    1
   190   141   196    1
   191   141   197    1
   192   142   143    1
   193   142   198    1
   194   142   199    1
   195   143   144    1
   196   143   200    1
   197   143   201    1
   198   144   145    1
   199   144   202    1
   200   144   203    1
   201   145   146    1
   202   145   204    1
   203   145   205    1
   204   146   147    1
   205   146   206    1
   206   146   207    1
   207   147   208    1
   208   147   209    1
   209   147   210    1
   210   148   149    1
   211   148   211    1
   212   148   212    1
   213   149   150    1
   214   149   213    1
   215   149   214    1
   216   150   151    1
   217   150   215    1
   218   150   216    1
   219   151   152    1
   220   151   217    1
   221   151   218    1
   222   152   153    1
   223   152   219    1
   224   152   220    1
   225   153   154    1
   226   153   221    1
   227   153   222    1
   228   154   155    1
   229   154   223    1
   230   154   224    1
   231   155   225    1
   232   155   226    1
   233   155   227    1
   234   228   229    1
   235   228   269    1
   236   228   270    1
   237   228   271    1
   238   229   230    1
   239   229   272    1
   240   229   273    1
   241   230   231    1
   242   230   274    1
   243   230   275    1
   244   231   232    1
   245   231   276    1
   246   231   277    1
   247   232   233    1
   248   232   278    1
   249   232   279    1
   250   233   234    1
   251   233   280    1
   252   233   281    1
   253   234   235    1
   254   234   282    1
   255   234   283    1
   256   235   236    1
   257   235   284    1
   258   235   285    1
   259   236   237    1
   260   236   245    1
   261   237   238    1
   262   237   286    1
   263   237   287    1
   264   238   239    1
   265   238   288    1
   266   238   289    1
   267   239   240    1
   268   239   290    1
   269   239   291    1
   270   240   241    1
   271   240   292    1
   272   240   293    1
   273   241   242    1
   274   241   294    1
   275   241   295    1
   276   242   243    1
   277   242   296    1
   278   242   297    1
   279   243   244    1
   280   243   298    1
   281   243   299    1
   282   244   300    1
   283   244   301    1
   284   244   302    1
   285   245   246    2
   286   245   247    1
   287   247   248    1
   288   247   303    1
   289   247   304    1
   290   248   249    1
   291   249   250    1
   292   249   305    1
   293   249   306    1
   294   250   251    2
   295   250   252    1
   296   252   253    1
   297   252   261    1
   298   253   254    1
   299   253   307    1
   300   253   308    1
   301   254   255    1
   302   254   309    1
   303   254   310    1
   304   255   256    1
   305   255   311    1
   306   255   312    1
   307   256   257    1
   308   256   313    1
   309   256   314    1
   310   257   258    1
   311   257   315    1
   312   257   316    1
   313   258   259    1
   314   258   317    1
   315   258   318    1
   316   259   260    1
   317   259   319    1
   318   259   320    1
   319   260   321    1
   320   260   322    1
   321   260   323    1
   322   261   262    1
   323   261   324    1
   324   261   325    1
   325   262   263    1
   326   262   326    1
   327   262   327    1
   328   263   264    1
   329   263   328    1
   330   263   329    1
   331   264   265    1
   332   264   330    1
   333   264   331    1
   334   265   266    1
   335   265   332    1
   336   265   333    1
   337   266   267    1
   338   266   334    1
   339   266   335    1
   340   267   268    1
   341   267   336    1
   342   267   337    1
   343   268   338    1
   344   268   339    1
   345   268   340    1
@<TRIPOS>SUBSTRUCTURE
     1 RES1      340 GROUP             0 ****  ****    0  
