@<TRIPOS>MOLECULE
am_c3_9H2O_c0_0_nunpairedes_0_charge_3 Charge: 3 Unpaired_Electrons: 2 XTB_Unpaired_Electrons: 0 XTB_Charge: 3
   412   417     1     0     0
SMALL
NoCharges
****
Generated from Architector

@<TRIPOS>ATOM
     1 Pr1      -0.1536   -0.0572   -0.3128   Pr        1 RES1   0.0000
     2 C1        3.9801    3.0556    2.0175   C.3       1 RES1   0.0000
     3 C2        3.4067    1.7328    2.5054   C.3       1 RES1   0.0000
     4 C3        2.5270    1.8836    3.7447   C.3       1 RES1   0.0000
     5 C4        1.1068    2.3893    3.4770   C.3       1 RES1   0.0000
     6 C5        0.4411    2.7224    4.8199   C.3       1 RES1   0.0000
     7 C6       -1.0857    2.8407    4.8632   C.3       1 RES1   0.0000
     8 C7       -1.8517    1.5376    4.5566   C.3       1 RES1   0.0000
     9 C8       -2.4780    1.6551    3.1783   C.3       1 RES1   0.0000
    10 N1       -3.2150    0.5491    2.5555   N.am      1 RES1   0.0000
    11 C9       -4.5748    0.2701    2.9914   C.3       1 RES1   0.0000
    12 C10      -4.8541   -1.2290    3.1356   C.3       1 RES1   0.0000
    13 C11      -3.9026   -1.9712    4.0797   C.3       1 RES1   0.0000
    14 C12      -4.1374   -3.4873    3.9871   C.3       1 RES1   0.0000
    15 C13      -3.8521   -4.3352    5.2405   C.3       1 RES1   0.0000
    16 C14      -4.7396   -3.9289    6.4126   C.3       1 RES1   0.0000
    17 C15      -2.3771   -4.3496    5.6633   C.3       1 RES1   0.0000
    18 C16      -1.8984   -5.7197    6.1531   C.3       1 RES1   0.0000
    19 C17      -1.7315   -6.7990    5.0775   C.3       1 RES1   0.0000
    20 C18      -0.4742   -6.7610    4.1908   C.3       1 RES1   0.0000
    21 C19      -0.4767   -5.6251    3.1657   C.3       1 RES1   0.0000
    22 C20       0.8154   -6.7459    5.0058   C.3       1 RES1   0.0000
    23 C21      -2.6550   -0.0272    1.4852   C.2       1 RES1   0.0000
    24 O1       -1.4298   -0.2184    1.4448   O.2       1 RES1   0.0000
    25 C22      -3.4982   -0.3680    0.2407   C.3       1 RES1   0.0000
    26 O2       -2.7084   -0.1755   -0.9428   O.3       1 RES1   0.0000
    27 C23      -3.1903    0.7763   -1.8957   C.3       1 RES1   0.0000
    28 C24      -1.9965    1.5549   -2.4956   C.2       1 RES1   0.0000
    29 O3       -0.8584    1.1011   -2.2831   O.2       1 RES1   0.0000
    30 N2       -2.1980    2.6516   -3.2275   N.am      1 RES1   0.0000
    31 C25      -3.5059    3.0645   -3.7247   C.3       1 RES1   0.0000
    32 C26      -3.5485    3.1744   -5.2534   C.3       1 RES1   0.0000
    33 C27      -4.9901    3.1028   -5.7697   C.3       1 RES1   0.0000
    34 C28      -5.4896    1.6763   -6.0105   C.3       1 RES1   0.0000
    35 C29      -5.0733    1.0622   -7.3535   C.3       1 RES1   0.0000
    36 C30      -3.6069    0.6466   -7.5208   C.3       1 RES1   0.0000
    37 C31      -3.0722   -0.3190   -6.4534   C.3       1 RES1   0.0000
    38 C32      -3.8905   -1.6021   -6.3613   C.3       1 RES1   0.0000
    39 C33      -1.0278    3.3867   -3.7605   C.3       1 RES1   0.0000
    40 C34      -1.1798    4.9132   -3.6828   C.3       1 RES1   0.0000
    41 C35       0.0942    5.7654   -3.7874   C.3       1 RES1   0.0000
    42 C36       1.0790    5.6302   -2.6253   C.3       1 RES1   0.0000
    43 C37       2.1351    6.7501   -2.5176   C.3       1 RES1   0.0000
    44 C38       3.4303    6.2055   -1.9137   C.3       1 RES1   0.0000
    45 C39       1.6245    7.9664   -1.7200   C.3       1 RES1   0.0000
    46 C40       1.2937    7.7278   -0.2357   C.3       1 RES1   0.0000
    47 C41       2.3484    8.1892    0.7684   C.3       1 RES1   0.0000
    48 C42       1.9693    7.8146    2.2097   C.3       1 RES1   0.0000
    49 C43       0.7967    8.6395    2.7364   C.3       1 RES1   0.0000
    50 C44       3.1642    8.0013    3.1425   C.3       1 RES1   0.0000
    51 H1        4.5993    2.9142    1.1352   H         1 RES1   0.0000
    52 H2        4.6083    3.4882    2.7889   H         1 RES1   0.0000
    53 H3        3.1951    3.7702    1.7870   H         1 RES1   0.0000
    54 H4        4.2440    1.0782    2.7487   H         1 RES1   0.0000
    55 H5        2.8205    1.2286    1.7258   H         1 RES1   0.0000
    56 H6        3.0157    2.5603    4.4484   H         1 RES1   0.0000
    57 H7        2.4452    0.9113    4.2313   H         1 RES1   0.0000
    58 H8        0.5635    1.6231    2.9085   H         1 RES1   0.0000
    59 H9        1.1463    3.2948    2.8677   H         1 RES1   0.0000
    60 H10       0.8599    3.6748    5.1607   H         1 RES1   0.0000
    61 H11       0.7416    1.9728    5.5566   H         1 RES1   0.0000
    62 H12      -1.3362    3.1688    5.8745   H         1 RES1   0.0000
    63 H13      -1.4147    3.6350    4.1881   H         1 RES1   0.0000
    64 H14      -2.6320    1.3981    5.2995   H         1 RES1   0.0000
    65 H15      -1.1803    0.6917    4.6032   H         1 RES1   0.0000
    66 H16      -1.6875    1.9199    2.4732   H         1 RES1   0.0000
    67 H17      -3.1926    2.4785    3.2356   H         1 RES1   0.0000
    68 H18      -5.3092    0.7140    2.3049   H         1 RES1   0.0000
    69 H19      -4.6838    0.7483    3.9638   H         1 RES1   0.0000
    70 H20      -4.8225   -1.7019    2.1520   H         1 RES1   0.0000
    71 H21      -5.8746   -1.3276    3.5052   H         1 RES1   0.0000
    72 H22      -4.0751   -1.6269    5.1013   H         1 RES1   0.0000
    73 H23      -2.8739   -1.7299    3.8044   H         1 RES1   0.0000
    74 H24      -3.5459   -3.8889    3.1555   H         1 RES1   0.0000
    75 H25      -5.1903   -3.6488    3.7551   H         1 RES1   0.0000
    76 H26      -4.1339   -5.3558    4.9660   H         1 RES1   0.0000
    77 H27      -4.5436   -2.9071    6.7253   H         1 RES1   0.0000
    78 H28      -4.5483   -4.5760    7.2623   H         1 RES1   0.0000
    79 H29      -5.7916   -4.0152    6.1568   H         1 RES1   0.0000
    80 H30      -2.2517   -3.6398    6.4807   H         1 RES1   0.0000
    81 H31      -1.7558   -4.0209    4.8326   H         1 RES1   0.0000
    82 H32      -2.6228   -6.0894    6.8816   H         1 RES1   0.0000
    83 H33      -0.9558   -5.5927    6.6856   H         1 RES1   0.0000
    84 H34      -2.6082   -6.7974    4.4257   H         1 RES1   0.0000
    85 H35      -1.7191   -7.7630    5.5910   H         1 RES1   0.0000
    86 H36      -0.4896   -7.6952    3.6176   H         1 RES1   0.0000
    87 H37       0.2846   -5.8051    2.4053   H         1 RES1   0.0000
    88 H38      -1.4469   -5.5663    2.6796   H         1 RES1   0.0000
    89 H39      -0.2679   -4.6652    3.6278   H         1 RES1   0.0000
    90 H40       0.9143   -5.8257    5.5773   H         1 RES1   0.0000
    91 H41       1.6795   -6.8340    4.3500   H         1 RES1   0.0000
    92 H42       0.8312   -7.5818    5.6987   H         1 RES1   0.0000
    93 H43      -4.3934    0.2599    0.2238   H         1 RES1   0.0000
    94 H44      -3.7843   -1.4232    0.2458   H         1 RES1   0.0000
    95 H45      -3.9102    1.4558   -1.4337   H         1 RES1   0.0000
    96 H46      -3.6915    0.2400   -2.7126   H         1 RES1   0.0000
    97 H47      -3.7917    4.0275   -3.2845   H         1 RES1   0.0000
    98 H48      -4.2469    2.3223   -3.4310   H         1 RES1   0.0000
    99 H49      -2.9776    2.3531   -5.6790   H         1 RES1   0.0000
   100 H50      -3.0978    4.1111   -5.5822   H         1 RES1   0.0000
   101 H51      -5.0678    3.6588   -6.7031   H         1 RES1   0.0000
   102 H52      -5.6440    3.6058   -5.0540   H         1 RES1   0.0000
   103 H53      -6.5804    1.7017   -6.0110   H         1 RES1   0.0000
   104 H54      -5.1898    1.0234   -5.1844   H         1 RES1   0.0000
   105 H55      -5.3103    1.7770   -8.1441   H         1 RES1   0.0000
   106 H56      -5.6991    0.1836   -7.5216   H         1 RES1   0.0000
   107 H57      -2.9648    1.5311   -7.5665   H         1 RES1   0.0000
   108 H58      -3.5305    0.1486   -8.4902   H         1 RES1   0.0000
   109 H59      -3.0431    0.1672   -5.4686   H         1 RES1   0.0000
   110 H60      -2.0383   -0.5737   -6.7134   H         1 RES1   0.0000
   111 H61      -4.9175   -1.3888   -6.0820   H         1 RES1   0.0000
   112 H62      -3.4658   -2.2774   -5.6225   H         1 RES1   0.0000
   113 H63      -3.8959   -2.1085   -7.3213   H         1 RES1   0.0000
   114 H64      -0.8859    3.1053   -4.8076   H         1 RES1   0.0000
   115 H65      -0.1666    3.0311   -3.1929   H         1 RES1   0.0000
   116 H66      -1.6792    5.1670   -2.7556   H         1 RES1   0.0000
   117 H67      -1.8363    5.2392   -4.4869   H         1 RES1   0.0000
   118 H68      -0.2363    6.8036   -3.8472   H         1 RES1   0.0000
   119 H69       0.6099    5.5450   -4.7205   H         1 RES1   0.0000
   120 H70       1.5941    4.6726   -2.7320   H         1 RES1   0.0000
   121 H71       0.5137    5.6333   -1.6941   H         1 RES1   0.0000
   122 H72       2.3604    7.1057   -3.5282   H         1 RES1   0.0000
   123 H73       4.1580    7.0057   -1.8164   H         1 RES1   0.0000
   124 H74       3.8636    5.4458   -2.5604   H         1 RES1   0.0000
   125 H75       3.2670    5.7781   -0.9243   H         1 RES1   0.0000
   126 H76       0.7251    8.3301   -2.2243   H         1 RES1   0.0000
   127 H77       2.3752    8.7556   -1.7910   H         1 RES1   0.0000
   128 H78       1.1190    6.6639   -0.0542   H         1 RES1   0.0000
   129 H79       0.3744    8.2656   -0.0027   H         1 RES1   0.0000
   130 H80       2.4676    9.2693    0.6981   H         1 RES1   0.0000
   131 H81       3.3105    7.7355    0.5319   H         1 RES1   0.0000
   132 H82       1.6838    6.7509    2.2282   H         1 RES1   0.0000
   133 H83       1.0541    9.6951    2.7457   H         1 RES1   0.0000
   134 H84       0.5558    8.3443    3.7555   H         1 RES1   0.0000
   135 H85      -0.0974    8.5099    2.1316   H         1 RES1   0.0000
   136 H86       3.4802    9.0415    3.1452   H         1 RES1   0.0000
   137 H87       4.0042    7.3859    2.8284   H         1 RES1   0.0000
   138 H88       2.8984    7.7230    4.1606   H         1 RES1   0.0000
   139 C45      -4.5391    2.3176    7.4455   C.3       1 RES1   0.0000
   140 C46      -3.3244    2.1756    8.3558   C.3       1 RES1   0.0000
   141 C47      -3.0835    0.7430    8.8464   C.3       1 RES1   0.0000
   142 C48      -2.6029   -0.2649    7.7958   C.3       1 RES1   0.0000
   143 C49      -1.1240   -0.1381    7.4106   C.3       1 RES1   0.0000
   144 C50      -0.7903   -1.2517    6.4122   C.3       1 RES1   0.0000
   145 C51       0.5017   -1.0977    5.5870   C.3       1 RES1   0.0000
   146 C52       0.2629   -1.4577    4.1137   C.3       1 RES1   0.0000
   147 N3        1.3772   -2.0415    3.3601   N.am      1 RES1   0.0000
   148 C53       2.0540   -3.1845    3.9658   C.3       1 RES1   0.0000
   149 C54       3.5089   -2.9195    4.4143   C.3       1 RES1   0.0000
   150 C55       3.8071   -1.4548    4.7570   C.3       1 RES1   0.0000
   151 C56       5.0511   -1.2312    5.6306   C.3       1 RES1   0.0000
   152 C57       4.8068   -1.0463    7.1416   C.3       1 RES1   0.0000
   153 C58       4.2480   -2.3194    7.7769   C.3       1 RES1   0.0000
   154 C59       3.9149    0.1527    7.5102   C.3       1 RES1   0.0000
   155 C60       4.6426    1.4738    7.7640   C.3       1 RES1   0.0000
   156 C61       5.3814    2.0166    6.5432   C.3       1 RES1   0.0000
   157 C62       5.7410    3.5034    6.6602   C.3       1 RES1   0.0000
   158 C63       6.7668    3.8691    5.5884   C.3       1 RES1   0.0000
   159 C64       4.5072    4.3974    6.5317   C.3       1 RES1   0.0000
   160 C65       1.5591   -1.6339    2.1075   C.2       1 RES1   0.0000
   161 O4        1.1242   -0.5597    1.6475   O.2       1 RES1   0.0000
   162 C66       2.2899   -2.5415    1.1232   C.3       1 RES1   0.0000
   163 O5        1.8129   -2.2185   -0.1898   O.3       1 RES1   0.0000
   164 C67       1.2909   -3.3109   -0.9321   C.3       1 RES1   0.0000
   165 C68      -0.2294   -3.4184   -0.6874   C.2       1 RES1   0.0000
   166 O6       -0.8196   -2.3402   -0.4488   O.2       1 RES1   0.0000
   167 N4       -0.8533   -4.5933   -0.6551   N.am      1 RES1   0.0000
   168 C69      -0.2995   -5.8563   -1.1337   C.3       1 RES1   0.0000
   169 C70      -0.8277   -6.2962   -2.5176   C.3       1 RES1   0.0000
   170 C71       0.2805   -6.7297   -3.4844   C.3       1 RES1   0.0000
   171 C72       1.1201   -5.5691   -4.0275   C.3       1 RES1   0.0000
   172 C73       0.5634   -4.8836   -5.2824   C.3       1 RES1   0.0000
   173 C74      -0.7333   -4.0782   -5.1330   C.3       1 RES1   0.0000
   174 C75      -0.7555   -3.0313   -4.0135   C.3       1 RES1   0.0000
   175 C76       0.3327   -1.9697   -4.1199   C.3       1 RES1   0.0000
   176 C77      -2.1763   -4.6852   -0.0259   C.3       1 RES1   0.0000
   177 C78      -3.3819   -4.9313   -0.9384   C.3       1 RES1   0.0000
   178 C79      -4.0262   -3.6557   -1.4984   C.3       1 RES1   0.0000
   179 C80      -5.2847   -3.2495   -0.7208   C.3       1 RES1   0.0000
   180 C81      -6.4829   -4.1946   -0.9554   C.3       1 RES1   0.0000
   181 C82      -7.7037   -3.4107   -1.4383   C.3       1 RES1   0.0000
   182 C83      -6.8428   -5.0988    0.2413   C.3       1 RES1   0.0000
   183 C84      -6.8630   -4.5034    1.6525   C.3       1 RES1   0.0000
   184 C85      -7.9310   -3.4457    1.9265   C.3       1 RES1   0.0000
   185 C86      -8.1609   -3.2232    3.4306   C.3       1 RES1   0.0000
   186 C87      -9.0621   -4.3132    4.0047   C.3       1 RES1   0.0000
   187 C88      -8.7724   -1.8465    3.6927   C.3       1 RES1   0.0000
   188 H89      -4.6288    3.3449    7.0867   H         1 RES1   0.0000
   189 H90      -5.4462    2.0705    7.9955   H         1 RES1   0.0000
   190 H91      -4.4819    1.6568    6.5769   H         1 RES1   0.0000
   191 H92      -3.4900    2.8003    9.2349   H         1 RES1   0.0000
   192 H93      -2.4275    2.5528    7.8571   H         1 RES1   0.0000
   193 H94      -4.0203    0.3735    9.2756   H         1 RES1   0.0000
   194 H95      -2.3455    0.7673    9.6507   H         1 RES1   0.0000
   195 H96      -3.2199   -0.1814    6.8947   H         1 RES1   0.0000
   196 H97      -2.7538   -1.2693    8.2025   H         1 RES1   0.0000
   197 H98      -0.5113   -0.2084    8.3114   H         1 RES1   0.0000
   198 H99      -0.9350    0.8386    6.9675   H         1 RES1   0.0000
   199 H100     -0.7461   -2.1965    6.9529   H         1 RES1   0.0000
   200 H101     -1.6333   -1.3162    5.7245   H         1 RES1   0.0000
   201 H102      1.2641   -1.7457    6.0107   H         1 RES1   0.0000
   202 H103      0.8663   -0.0730    5.6516   H         1 RES1   0.0000
   203 H104     -0.0495   -0.5802    3.5466   H         1 RES1   0.0000
   204 H105     -0.5550   -2.1903    4.0628   H         1 RES1   0.0000
   205 H106      2.0539   -4.0414    3.2859   H         1 RES1   0.0000
   206 H107      1.4458   -3.4674    4.8256   H         1 RES1   0.0000
   207 H108      4.1963   -3.2455    3.6296   H         1 RES1   0.0000
   208 H109      3.7063   -3.5406    5.2884   H         1 RES1   0.0000
   209 H110      2.9568   -1.0253    5.2689   H         1 RES1   0.0000
   210 H111      3.9274   -0.9146    3.8165   H         1 RES1   0.0000
   211 H112      5.5629   -0.3407    5.2700   H         1 RES1   0.0000
   212 H113      5.7377   -2.0684    5.5078   H         1 RES1   0.0000
   213 H114      5.7934   -0.8632    7.5803   H         1 RES1   0.0000
   214 H115      3.2017   -2.4666    7.5069   H         1 RES1   0.0000
   215 H116      4.3057   -2.2509    8.8617   H         1 RES1   0.0000
   216 H117      4.8214   -3.1932    7.4674   H         1 RES1   0.0000
   217 H118      3.3809   -0.0953    8.4314   H         1 RES1   0.0000
   218 H119      3.1615    0.3202    6.7342   H         1 RES1   0.0000
   219 H120      5.3480    1.3493    8.5897   H         1 RES1   0.0000
   220 H121      3.8889    2.1999    8.0770   H         1 RES1   0.0000
   221 H122      4.7646    1.8696    5.6526   H         1 RES1   0.0000
   222 H123      6.3034    1.4482    6.4110   H         1 RES1   0.0000
   223 H124      6.1946    3.6795    7.6409   H         1 RES1   0.0000
   224 H125      6.3718    3.6594    4.5939   H         1 RES1   0.0000
   225 H126      7.6834    3.2976    5.7241   H         1 RES1   0.0000
   226 H127      7.0185    4.9253    5.6447   H         1 RES1   0.0000
   227 H128      3.9937    4.2151    5.5856   H         1 RES1   0.0000
   228 H129      4.7992    5.4456    6.5646   H         1 RES1   0.0000
   229 H130      3.8067    4.2205    7.3455   H         1 RES1   0.0000
   230 H131      2.1171   -3.5989    1.3610   H         1 RES1   0.0000
   231 H132      3.3688   -2.3485    1.1549   H         1 RES1   0.0000
   232 H133      1.8279   -4.2316   -0.6861   H         1 RES1   0.0000
   233 H134      1.4837   -3.0437   -1.9775   H         1 RES1   0.0000
   234 H135     -0.5522   -6.6201   -0.3978   H         1 RES1   0.0000
   235 H136      0.7845   -5.7916   -1.1869   H         1 RES1   0.0000
   236 H137     -1.3755   -5.4793   -2.9786   H         1 RES1   0.0000
   237 H138     -1.5183   -7.1319   -2.3942   H         1 RES1   0.0000
   238 H139     -0.1848   -7.2531   -4.3209   H         1 RES1   0.0000
   239 H140      0.9304   -7.4524   -2.9850   H         1 RES1   0.0000
   240 H141      2.1015   -5.9609   -4.3020   H         1 RES1   0.0000
   241 H142      1.2772   -4.8298   -3.2395   H         1 RES1   0.0000
   242 H143      0.3938   -5.6464   -6.0446   H         1 RES1   0.0000
   243 H144      1.3402   -4.2233   -5.6738   H         1 RES1   0.0000
   244 H145     -1.5733   -4.7587   -4.9769   H         1 RES1   0.0000
   245 H146     -0.9068   -3.5730   -6.0855   H         1 RES1   0.0000
   246 H147     -0.6702   -3.5250   -3.0445   H         1 RES1   0.0000
   247 H148     -1.7287   -2.5299   -4.0274   H         1 RES1   0.0000
   248 H149      1.3244   -2.4191   -4.1157   H         1 RES1   0.0000
   249 H150      0.2476   -1.2731   -3.2735   H         1 RES1   0.0000
   250 H151      0.2216   -1.4159   -5.0492   H         1 RES1   0.0000
   251 H152     -2.3301   -3.7641    0.5453   H         1 RES1   0.0000
   252 H153     -2.1075   -5.5175    0.6806   H         1 RES1   0.0000
   253 H154     -4.1253   -5.4593   -0.3424   H         1 RES1   0.0000
   254 H155     -3.1005   -5.6015   -1.7441   H         1 RES1   0.0000
   255 H156     -4.3107   -3.8114   -2.5396   H         1 RES1   0.0000
   256 H157     -3.2928   -2.8439   -1.4781   H         1 RES1   0.0000
   257 H158     -5.5783   -2.2432   -1.0320   H         1 RES1   0.0000
   258 H159     -5.0444   -3.2103    0.3425   H         1 RES1   0.0000
   259 H160     -6.2124   -4.8774   -1.7676   H         1 RES1   0.0000
   260 H161     -8.0549   -2.7097   -0.6863   H         1 RES1   0.0000
   261 H162     -7.4637   -2.8576   -2.3473   H         1 RES1   0.0000
   262 H163     -8.5238   -4.0895   -1.6686   H         1 RES1   0.0000
   263 H164     -6.1336   -5.9311    0.2673   H         1 RES1   0.0000
   264 H165     -7.8248   -5.5329    0.0418   H         1 RES1   0.0000
   265 H166     -5.8820   -4.0912    1.8904   H         1 RES1   0.0000
   266 H167     -7.0209   -5.3419    2.3332   H         1 RES1   0.0000
   267 H168     -8.8730   -3.7576    1.4750   H         1 RES1   0.0000
   268 H169     -7.6342   -2.4993    1.4672   H         1 RES1   0.0000
   269 H170     -7.1932   -3.2694    3.9472   H         1 RES1   0.0000
   270 H171    -10.0545   -4.2496    3.5628   H         1 RES1   0.0000
   271 H172     -9.1605   -4.2054    5.0823   H         1 RES1   0.0000
   272 H173     -8.6582   -5.3020    3.7989   H         1 RES1   0.0000
   273 H174     -9.7358   -1.7577    3.1950   H         1 RES1   0.0000
   274 H175     -8.1250   -1.0489    3.3250   H         1 RES1   0.0000
   275 H176     -8.9254   -1.6967    4.7595   H         1 RES1   0.0000
   276 C89       0.7108    6.2524   -8.5898   C.3       1 RES1   0.0000
   277 C90      -0.5379    5.5262   -8.1084   C.3       1 RES1   0.0000
   278 C91      -0.2252    4.2957   -7.2533   C.3       1 RES1   0.0000
   279 C92       0.2244    3.0893   -8.0750   C.3       1 RES1   0.0000
   280 C93       0.1921    1.7511   -7.3204   C.3       1 RES1   0.0000
   281 C94       1.5133    1.2799   -6.7074   C.3       1 RES1   0.0000
   282 C95       2.0367    2.0670   -5.4872   C.3       1 RES1   0.0000
   283 C96       2.2153    1.1240   -4.2891   C.3       1 RES1   0.0000
   284 N5        2.6470    1.8207   -3.0721   N.am      1 RES1   0.0000
   285 C97       3.9754    2.4230   -3.1507   C.3       1 RES1   0.0000
   286 C98       5.0817    1.3426   -3.1213   C.3       1 RES1   0.0000
   287 C99       6.3491    1.7417   -3.9013   C.3       1 RES1   0.0000
   288 C100      6.2812    1.5595   -5.4298   C.3       1 RES1   0.0000
   289 C101      6.8377    0.2249   -5.9635   C.3       1 RES1   0.0000
   290 C102      7.2777    0.3956   -7.4159   C.3       1 RES1   0.0000
   291 C103      5.8744   -0.9641   -5.8282   C.3       1 RES1   0.0000
   292 C104      4.5952   -0.8674   -6.6739   C.3       1 RES1   0.0000
   293 C105      4.6264   -1.7995   -7.8843   C.3       1 RES1   0.0000
   294 C106      3.3980   -1.6816   -8.7978   C.3       1 RES1   0.0000
   295 C107      3.7331   -2.2434  -10.1795   C.3       1 RES1   0.0000
   296 C108      2.1881   -2.4171   -8.2208   C.3       1 RES1   0.0000
   297 C109      2.0668    1.4893   -1.9042   C.2       1 RES1   0.0000
   298 O7        1.5160    0.3906   -1.7121   O.2       1 RES1   0.0000
   299 C110      1.9579    2.5351   -0.7696   C.3       1 RES1   0.0000
   300 O8        0.6713    2.3798   -0.1238   O.3       1 RES1   0.0000
   301 C111     -0.0876    3.5898    0.0492   C.3       1 RES1   0.0000
   302 C112     -1.5445    3.1917    0.2781   C.2       1 RES1   0.0000
   303 O9       -1.8082    1.9890    0.1050   O.2       1 RES1   0.0000
   304 N6       -2.4912    4.0623    0.6475   N.am      1 RES1   0.0000
   305 C113     -3.8135    3.5226    0.9797   C.3       1 RES1   0.0000
   306 C114     -4.9340    3.7677   -0.0276   C.3       1 RES1   0.0000
   307 C115     -6.2763    3.2690    0.5322   C.3       1 RES1   0.0000
   308 C116     -7.2965    2.9218   -0.5529   C.3       1 RES1   0.0000
   309 C117     -6.9514    1.6163   -1.2739   C.3       1 RES1   0.0000
   310 C118     -8.1433    0.9029   -1.9181   C.3       1 RES1   0.0000
   311 C119     -8.5618    1.4617   -3.2780   C.3       1 RES1   0.0000
   312 C120     -9.4333    2.7049   -3.1710   C.3       1 RES1   0.0000
   313 C121     -2.2913    5.4864    0.9167   C.3       1 RES1   0.0000
   314 C122     -2.0078    6.3249   -0.3416   C.3       1 RES1   0.0000
   315 C123     -3.0044    7.4356   -0.6935   C.3       1 RES1   0.0000
   316 C124     -4.2529    6.9340   -1.4273   C.3       1 RES1   0.0000
   317 C125     -4.7464    7.8123   -2.5907   C.3       1 RES1   0.0000
   318 C126     -5.3241    6.9075   -3.6796   C.3       1 RES1   0.0000
   319 C127     -5.7984    8.8472   -2.1750   C.3       1 RES1   0.0000
   320 C128     -5.3054    9.9213   -1.1930   C.3       1 RES1   0.0000
   321 C129     -5.6495    9.6304    0.2686   C.3       1 RES1   0.0000
   322 C130     -5.1848   10.7293    1.2306   C.3       1 RES1   0.0000
   323 C131     -3.6612   10.8119    1.3134   C.3       1 RES1   0.0000
   324 C132     -5.7748   10.4886    2.6188   C.3       1 RES1   0.0000
   325 H177      0.4327    7.1364   -9.1579   H         1 RES1   0.0000
   326 H178      1.3126    5.6125   -9.2310   H         1 RES1   0.0000
   327 H179      1.3194    6.5704   -7.7431   H         1 RES1   0.0000
   328 H180     -1.1354    5.2162   -8.9679   H         1 RES1   0.0000
   329 H181     -1.1449    6.2208   -7.5211   H         1 RES1   0.0000
   330 H182     -1.1384    4.0220   -6.7172   H         1 RES1   0.0000
   331 H183      0.5386    4.5585   -6.5188   H         1 RES1   0.0000
   332 H184      1.2250    3.2560   -8.4725   H         1 RES1   0.0000
   333 H185     -0.4566    3.0109   -8.9245   H         1 RES1   0.0000
   334 H186     -0.1016    0.9786   -8.0334   H         1 RES1   0.0000
   335 H187     -0.5824    1.7755   -6.5490   H         1 RES1   0.0000
   336 H188      2.2652    1.2776   -7.4960   H         1 RES1   0.0000
   337 H189      1.3748    0.2389   -6.4135   H         1 RES1   0.0000
   338 H190      1.3552    2.8743   -5.2322   H         1 RES1   0.0000
   339 H191      2.9910    2.5175   -5.7513   H         1 RES1   0.0000
   340 H192      2.9286    0.3475   -4.5636   H         1 RES1   0.0000
   341 H193      1.2582    0.6618   -4.0630   H         1 RES1   0.0000
   342 H194      4.1297    3.1152   -2.3215   H         1 RES1   0.0000
   343 H195      4.0367    2.9708   -4.0907   H         1 RES1   0.0000
   344 H196      4.7022    0.4093   -3.5413   H         1 RES1   0.0000
   345 H197      5.3522    1.1374   -2.0806   H         1 RES1   0.0000
   346 H198      7.1780    1.1397   -3.5200   H         1 RES1   0.0000
   347 H199      6.5907    2.7828   -3.6719   H         1 RES1   0.0000
   348 H200      6.8849    2.3518   -5.8774   H         1 RES1   0.0000
   349 H201      5.2578    1.6997   -5.7829   H         1 RES1   0.0000
   350 H202      7.7314   -0.0168   -5.3775   H         1 RES1   0.0000
   351 H203      6.4571    0.7326   -8.0421   H         1 RES1   0.0000
   352 H204      7.6450   -0.5458   -7.8119   H         1 RES1   0.0000
   353 H205      8.0789    1.1265   -7.4864   H         1 RES1   0.0000
   354 H206      5.6222   -1.0974   -4.7747   H         1 RES1   0.0000
   355 H207      6.4202   -1.8596   -6.1272   H         1 RES1   0.0000
   356 H208      4.4580    0.1541   -7.0302   H         1 RES1   0.0000
   357 H209      3.7267   -1.1167   -6.0599   H         1 RES1   0.0000
   358 H210      4.7144   -2.8330   -7.5419   H         1 RES1   0.0000
   359 H211      5.5131   -1.5711   -8.4747   H         1 RES1   0.0000
   360 H212      3.1386   -0.6216   -8.9108   H         1 RES1   0.0000
   361 H213      4.0414   -3.2843  -10.0982   H         1 RES1   0.0000
   362 H214      4.5454   -1.6779  -10.6317   H         1 RES1   0.0000
   363 H215      2.8695   -2.1900  -10.8399   H         1 RES1   0.0000
   364 H216      2.3733   -3.4899   -8.2108   H         1 RES1   0.0000
   365 H217      1.3054   -2.2311   -8.8310   H         1 RES1   0.0000
   366 H218      1.9752   -2.0906   -7.2032   H         1 RES1   0.0000
   367 H219      2.0733    3.5485   -1.1543   H         1 RES1   0.0000
   368 H220      2.7244    2.3349   -0.0122   H         1 RES1   0.0000
   369 H221     -0.0332    4.1901   -0.8676   H         1 RES1   0.0000
   370 H222      0.3021    4.1723    0.8995   H         1 RES1   0.0000
   371 H223     -4.1064    3.9465    1.9439   H         1 RES1   0.0000
   372 H224     -3.6964    2.4468    1.0867   H         1 RES1   0.0000
   373 H225     -4.6997    3.2418   -0.9540   H         1 RES1   0.0000
   374 H226     -5.0145    4.8275   -0.2444   H         1 RES1   0.0000
   375 H227     -6.7017    4.0259    1.1927   H         1 RES1   0.0000
   376 H228     -6.1142    2.3764    1.1429   H         1 RES1   0.0000
   377 H229     -7.3711    3.7521   -1.2557   H         1 RES1   0.0000
   378 H230     -8.2713    2.8000   -0.0789   H         1 RES1   0.0000
   379 H231     -6.5218    0.9321   -0.5351   H         1 RES1   0.0000
   380 H232     -6.1966    1.7928   -2.0453   H         1 RES1   0.0000
   381 H233     -8.9963    0.9411   -1.2393   H         1 RES1   0.0000
   382 H234     -7.8801   -0.1501   -2.0435   H         1 RES1   0.0000
   383 H235     -9.1260    0.6902   -3.8060   H         1 RES1   0.0000
   384 H236     -7.6721    1.6807   -3.8750   H         1 RES1   0.0000
   385 H237    -10.2851    2.5043   -2.5254   H         1 RES1   0.0000
   386 H238     -9.8089    2.9921   -4.1488   H         1 RES1   0.0000
   387 H239     -8.8863    3.5489   -2.7620   H         1 RES1   0.0000
   388 H240     -1.4710    5.6001    1.6336   H         1 RES1   0.0000
   389 H241     -3.2059    5.8406    1.3954   H         1 RES1   0.0000
   390 H242     -1.9636    5.6332   -1.1792   H         1 RES1   0.0000
   391 H243     -1.0308    6.7889   -0.2389   H         1 RES1   0.0000
   392 H244     -2.4809    8.1318   -1.3505   H         1 RES1   0.0000
   393 H245     -3.2609    7.9884    0.2067   H         1 RES1   0.0000
   394 H246     -5.0833    6.8027   -0.7347   H         1 RES1   0.0000
   395 H247     -4.0074    5.9537   -1.8432   H         1 RES1   0.0000
   396 H248     -3.8928    8.3460   -3.0184   H         1 RES1   0.0000
   397 H249     -6.1615    6.3334   -3.2902   H         1 RES1   0.0000
   398 H250     -4.5669    6.2173   -4.0486   H         1 RES1   0.0000
   399 H251     -5.6843    7.4913   -4.5209   H         1 RES1   0.0000
   400 H252     -6.6628    8.3307   -1.7510   H         1 RES1   0.0000
   401 H253     -6.1426    9.3437   -3.0852   H         1 RES1   0.0000
   402 H254     -5.7738   10.8736   -1.4505   H         1 RES1   0.0000
   403 H255     -4.2284   10.0464   -1.3153   H         1 RES1   0.0000
   404 H256     -5.2193    8.6792    0.5883   H         1 RES1   0.0000
   405 H257     -6.7352    9.5380    0.3472   H         1 RES1   0.0000
   406 H258     -5.5613   11.6857    0.8579   H         1 RES1   0.0000
   407 H259     -3.2406    9.8645    1.6514   H         1 RES1   0.0000
   408 H260     -3.3651   11.5816    2.0211   H         1 RES1   0.0000
   409 H261     -3.2273   11.0607    0.3484   H         1 RES1   0.0000
   410 H262     -5.4267    9.5412    3.0285   H         1 RES1   0.0000
   411 H263     -6.8613   10.4654    2.5761   H         1 RES1   0.0000
   412 H264     -5.4809   11.2820    3.3008   H         1 RES1   0.0000
@<TRIPOS>BOND
     1     1    24    1
     2     1    26    1
     3     1    29    1
     4     1   161    1
     5     1   163    1
     6     1   166    1
     7     1   298    1
     8     1   300    1
     9     1   303    1
    10     2     3    1
    11     2    51    1
    12     2    52    1
    13     2    53    1
    14     3     4    1
    15     3    54    1
    16     3    55    1
    17     4     5    1
    18     4    56    1
    19     4    57    1
    20     5     6    1
    21     5    58    1
    22     5    59    1
    23     6     7    1
    24     6    60    1
    25     6    61    1
    26     7     8    1
    27     7    62    1
    28     7    63    1
    29     8     9    1
    30     8    64    1
    31     8    65    1
    32     9    10    1
    33     9    66    1
    34     9    67    1
    35    10    11    1
    36    10    23    1
    37    11    12    1
    38    11    68    1
    39    11    69    1
    40    12    13    1
    41    12    70    1
    42    12    71    1
    43    13    14    1
    44    13    72    1
    45    13    73    1
    46    14    15    1
    47    14    74    1
    48    14    75    1
    49    15    16    1
    50    15    17    1
    51    15    76    1
    52    16    77    1
    53    16    78    1
    54    16    79    1
    55    17    18    1
    56    17    80    1
    57    17    81    1
    58    18    19    1
    59    18    82    1
    60    18    83    1
    61    19    20    1
    62    19    84    1
    63    19    85    1
    64    20    21    1
    65    20    22    1
    66    20    86    1
    67    21    87    1
    68    21    88    1
    69    21    89    1
    70    22    90    1
    71    22    91    1
    72    22    92    1
    73    23    24    2
    74    23    25    1
    75    25    26    1
    76    25    93    1
    77    25    94    1
    78    26    27    1
    79    27    28    1
    80    27    95    1
    81    27    96    1
    82    28    29    2
    83    28    30    1
    84    30    31    1
    85    30    39    1
    86    31    32    1
    87    31    97    1
    88    31    98    1
    89    32    33    1
    90    32    99    1
    91    32   100    1
    92    33    34    1
    93    33   101    1
    94    33   102    1
    95    34    35    1
    96    34   103    1
    97    34   104    1
    98    35    36    1
    99    35   105    1
   100    35   106    1
   101    36    37    1
   102    36   107    1
   103    36   108    1
   104    37    38    1
   105    37   109    1
   106    37   110    1
   107    38   111    1
   108    38   112    1
   109    38   113    1
   110    39    40    1
   111    39   114    1
   112    39   115    1
   113    40    41    1
   114    40   116    1
   115    40   117    1
   116    41    42    1
   117    41   118    1
   118    41   119    1
   119    42    43    1
   120    42   120    1
   121    42   121    1
   122    43    44    1
   123    43    45    1
   124    43   122    1
   125    44   123    1
   126    44   124    1
   127    44   125    1
   128    45    46    1
   129    45   126    1
   130    45   127    1
   131    46    47    1
   132    46   128    1
   133    46   129    1
   134    47    48    1
   135    47   130    1
   136    47   131    1
   137    48    49    1
   138    48    50    1
   139    48   132    1
   140    49   133    1
   141    49   134    1
   142    49   135    1
   143    50   136    1
   144    50   137    1
   145    50   138    1
   146   139   140    1
   147   139   188    1
   148   139   189    1
   149   139   190    1
   150   140   141    1
   151   140   191    1
   152   140   192    1
   153   141   142    1
   154   141   193    1
   155   141   194    1
   156   142   143    1
   157   142   195    1
   158   142   196    1
   159   143   144    1
   160   143   197    1
   161   143   198    1
   162   144   145    1
   163   144   199    1
   164   144   200    1
   165   145   146    1
   166   145   201    1
   167   145   202    1
   168   146   147    1
   169   146   203    1
   170   146   204    1
   171   147   148    1
   172   147   160    1
   173   148   149    1
   174   148   205    1
   175   148   206    1
   176   149   150    1
   177   149   207    1
   178   149   208    1
   179   150   151    1
   180   150   209    1
   181   150   210    1
   182   151   152    1
   183   151   211    1
   184   151   212    1
   185   152   153    1
   186   152   154    1
   187   152   213    1
   188   153   214    1
   189   153   215    1
   190   153   216    1
   191   154   155    1
   192   154   217    1
   193   154   218    1
   194   155   156    1
   195   155   219    1
   196   155   220    1
   197   156   157    1
   198   156   221    1
   199   156   222    1
   200   157   158    1
   201   157   159    1
   202   157   223    1
   203   158   224    1
   204   158   225    1
   205   158   226    1
   206   159   227    1
   207   159   228    1
   208   159   229    1
   209   160   161    2
   210   160   162    1
   211   162   163    1
   212   162   230    1
   213   162   231    1
   214   163   164    1
   215   164   165    1
   216   164   232    1
   217   164   233    1
   218   165   166    2
   219   165   167    1
   220   167   168    1
   221   167   176    1
   222   168   169    1
   223   168   234    1
   224   168   235    1
   225   169   170    1
   226   169   236    1
   227   169   237    1
   228   170   171    1
   229   170   238    1
   230   170   239    1
   231   171   172    1
   232   171   240    1
   233   171   241    1
   234   172   173    1
   235   172   242    1
   236   172   243    1
   237   173   174    1
   238   173   244    1
   239   173   245    1
   240   174   175    1
   241   174   246    1
   242   174   247    1
   243   175   248    1
   244   175   249    1
   245   175   250    1
   246   176   177    1
   247   176   251    1
   248   176   252    1
   249   177   178    1
   250   177   253    1
   251   177   254    1
   252   178   179    1
   253   178   255    1
   254   178   256    1
   255   179   180    1
   256   179   257    1
   257   179   258    1
   258   180   181    1
   259   180   182    1
   260   180   259    1
   261   181   260    1
   262   181   261    1
   263   181   262    1
   264   182   183    1
   265   182   263    1
   266   182   264    1
   267   183   184    1
   268   183   265    1
   269   183   266    1
   270   184   185    1
   271   184   267    1
   272   184   268    1
   273   185   186    1
   274   185   187    1
   275   185   269    1
   276   186   270    1
   277   186   271    1
   278   186   272    1
   279   187   273    1
   280   187   274    1
   281   187   275    1
   282   276   277    1
   283   276   325    1
   284   276   326    1
   285   276   327    1
   286   277   278    1
   287   277   328    1
   288   277   329    1
   289   278   279    1
   290   278   330    1
   291   278   331    1
   292   279   280    1
   293   279   332    1
   294   279   333    1
   295   280   281    1
   296   280   334    1
   297   280   335    1
   298   281   282    1
   299   281   336    1
   300   281   337    1
   301   282   283    1
   302   282   338    1
   303   282   339    1
   304   283   284    1
   305   283   340    1
   306   283   341    1
   307   284   285    1
   308   284   297    1
   309   285   286    1
   310   285   342    1
   311   285   343    1
   312   286   287    1
   313   286   344    1
   314   286   345    1
   315   287   288    1
   316   287   346    1
   317   287   347    1
   318   288   289    1
   319   288   348    1
   320   288   349    1
   321   289   290    1
   322   289   291    1
   323   289   350    1
   324   290   351    1
   325   290   352    1
   326   290   353    1
   327   291   292    1
   328   291   354    1
   329   291   355    1
   330   292   293    1
   331   292   356    1
   332   292   357    1
   333   293   294    1
   334   293   358    1
   335   293   359    1
   336   294   295    1
   337   294   296    1
   338   294   360    1
   339   295   361    1
   340   295   362    1
   341   295   363    1
   342   296   364    1
   343   296   365    1
   344   296   366    1
   345   297   298    2
   346   297   299    1
   347   299   300    1
   348   299   367    1
   349   299   368    1
   350   300   301    1
   351   301   302    1
   352   301   369    1
   353   301   370    1
   354   302   303    2
   355   302   304    1
   356   304   305    1
   357   304   313    1
   358   305   306    1
   359   305   371    1
   360   305   372    1
   361   306   307    1
   362   306   373    1
   363   306   374    1
   364   307   308    1
   365   307   375    1
   366   307   376    1
   367   308   309    1
   368   308   377    1
   369   308   378    1
   370   309   310    1
   371   309   379    1
   372   309   380    1
   373   310   311    1
   374   310   381    1
   375   310   382    1
   376   311   312    1
   377   311   383    1
   378   311   384    1
   379   312   385    1
   380   312   386    1
   381   312   387    1
   382   313   314    1
   383   313   388    1
   384   313   389    1
   385   314   315    1
   386   314   390    1
   387   314   391    1
   388   315   316    1
   389   315   392    1
   390   315   393    1
   391   316   317    1
   392   316   394    1
   393   316   395    1
   394   317   318    1
   395   317   319    1
   396   317   396    1
   397   318   397    1
   398   318   398    1
   399   318   399    1
   400   319   320    1
   401   319   400    1
   402   319   401    1
   403   320   321    1
   404   320   402    1
   405   320   403    1
   406   321   322    1
   407   321   404    1
   408   321   405    1
   409   322   323    1
   410   322   324    1
   411   322   406    1
   412   323   407    1
   413   323   408    1
   414   323   409    1
   415   324   410    1
   416   324   411    1
   417   324   412    1
@<TRIPOS>SUBSTRUCTURE
     1 RES1      412 GROUP             0 ****  ****    0  
