@<TRIPOS>MOLECULE
am_c3_9H2O_c0_0_nunpairedes_0_charge_1 Charge: 1 Unpaired_Electrons: 5 XTB_Unpaired_Electrons: 0 XTB_Charge: 1
   122   135     1     0     0
SMALL
NoCharges
****
Generated from Architector

@<TRIPOS>ATOM
     1 Sm1      -0.3211   -0.0763   -0.1565   Sm        1 RES1   0.0000
     2 C1       -5.3046   -1.1626   -4.7572   C.3       1 RES1   0.0000
     3 C2       -6.1402    0.0615   -4.3989   C.3       1 RES1   0.0000
     4 C3       -5.5050    0.9579   -3.3330   C.3       1 RES1   0.0000
     5 C4       -4.2418    1.6797   -3.8009   C.3       1 RES1   0.0000
     6 C5       -3.5990    2.4770   -2.6636   C.3       1 RES1   0.0000
     7 C6       -2.3560    3.2137   -3.1777   C.3       1 RES1   0.0000
     8 N1       -1.4799    3.7086   -2.1147   N.ar      1 RES1   0.0000
     9 C7       -1.2851    5.0417   -1.8319   C.ar      1 RES1   0.0000
    10 C8       -2.0628    6.0066   -2.6364   C.ar      1 RES1   0.0000
    11 C9       -3.4134    6.2132   -2.3828   C.ar      1 RES1   0.0000
    12 C10      -4.1377    7.0902   -3.1705   C.ar      1 RES1   0.0000
    13 C11      -3.5314    7.7602   -4.2193   C.ar      1 RES1   0.0000
    14 C12      -2.1870    7.5453   -4.4724   C.ar      1 RES1   0.0000
    15 C13      -1.4465    6.6813   -3.6853   C.ar      1 RES1   0.0000
    16 C14      -0.3826    5.4851   -0.8981   C.ar      1 RES1   0.0000
    17 C15      -0.2286    6.9453   -0.6687   C.ar      1 RES1   0.0000
    18 C16       0.9006    7.6168   -1.1285   C.ar      1 RES1   0.0000
    19 C17       1.0368    8.9796   -0.9194   C.ar      1 RES1   0.0000
    20 C18       0.0596    9.6865   -0.2378   C.ar      1 RES1   0.0000
    21 C19      -1.0683    9.0205    0.2153   C.ar      1 RES1   0.0000
    22 C20      -1.2192    7.6609   -0.0026   C.ar      1 RES1   0.0000
    23 C21       0.3973    4.5377   -0.1550   C.ar      1 RES1   0.0000
    24 C22       1.3322    4.8129    0.8636   C.ar      1 RES1   0.0000
    25 C23       1.9592    3.7582    1.5313   C.ar      1 RES1   0.0000
    26 C24       2.9205    3.8965    2.5901   C.ar      1 RES1   0.0000
    27 C25       3.4817    2.8256    3.2026   C.ar      1 RES1   0.0000
    28 C26       3.1160    1.4775    2.8660   C.ar      1 RES1   0.0000
    29 C27       3.6306    0.3342    3.4828   C.ar      1 RES1   0.0000
    30 C28       3.1974   -0.9353    3.0626   C.ar      1 RES1   0.0000
    31 C29       3.6546   -2.2075    3.5473   C.ar      1 RES1   0.0000
    32 C30       4.7739   -2.3031    4.5179   C.ar      1 RES1   0.0000
    33 C31       4.5902   -2.0079    5.8638   C.ar      1 RES1   0.0000
    34 C32       5.6507   -2.1110    6.7496   C.ar      1 RES1   0.0000
    35 C33       6.9045   -2.4954    6.3051   C.ar      1 RES1   0.0000
    36 C34       7.0835   -2.8036    4.9663   C.ar      1 RES1   0.0000
    37 C35       6.0266   -2.7184    4.0766   C.ar      1 RES1   0.0000
    38 C36       3.0973   -3.3626    3.0665   C.ar      1 RES1   0.0000
    39 C37       3.5848   -4.6818    3.5249   C.ar      1 RES1   0.0000
    40 C38       3.4080   -5.0968    4.8410   C.ar      1 RES1   0.0000
    41 C39       3.8682   -6.3383    5.2445   C.ar      1 RES1   0.0000
    42 C40       4.5156   -7.1759    4.3523   C.ar      1 RES1   0.0000
    43 C41       4.6976   -6.7600    3.0441   C.ar      1 RES1   0.0000
    44 C42       4.2364   -5.5241    2.6266   C.ar      1 RES1   0.0000
    45 N2        2.0831   -3.3633    2.1311   N.ar      1 RES1   0.0000
    46 C43       1.3879   -4.5800    1.7184   C.3       1 RES1   0.0000
    47 C44       0.5295   -5.2464    2.7982   C.3       1 RES1   0.0000
    48 C45      -0.5848   -4.3884    3.4087   C.3       1 RES1   0.0000
    49 C46      -0.1062   -3.4265    4.4968   C.3       1 RES1   0.0000
    50 C47      -1.2604   -2.6818    5.1680   C.3       1 RES1   0.0000
    51 C48      -0.7688   -1.8273    6.3299   C.3       1 RES1   0.0000
    52 C49       1.6708   -2.2150    1.5350   C.ar      1 RES1   0.0000
    53 O1        0.8268   -2.2126    0.6207   O.2       1 RES1   0.0000
    54 C50       2.2168   -0.9658    2.0423   C.ar      1 RES1   0.0000
    55 N3        1.6958    0.1148    1.4681   N.ar      1 RES1   0.0000
    56 C51       2.1543    1.3033    1.8346   C.ar      1 RES1   0.0000
    57 C52       1.6236    2.4393    1.1329   C.ar      1 RES1   0.0000
    58 N4        0.8033    2.1691    0.1315   N.ar      1 RES1   0.0000
    59 C53       0.1924    3.1749   -0.4788   C.ar      1 RES1   0.0000
    60 C54      -0.7580    2.7465   -1.4915   C.ar      1 RES1   0.0000
    61 O2       -0.8949    1.5407   -1.7674   O.2       1 RES1   0.0000
    62 H1       -5.8553   -1.7981   -5.4481   H         1 RES1   0.0000
    63 H2       -5.0743   -1.7455   -3.8682   H         1 RES1   0.0000
    64 H3       -4.3692   -0.8815   -5.2335   H         1 RES1   0.0000
    65 H4       -7.1043   -0.2841   -4.0205   H         1 RES1   0.0000
    66 H5       -6.3328    0.6439   -5.3022   H         1 RES1   0.0000
    67 H6       -5.2653    0.3519   -2.4572   H         1 RES1   0.0000
    68 H7       -6.2410    1.7059   -3.0276   H         1 RES1   0.0000
    69 H8       -4.4881    2.3489   -4.6291   H         1 RES1   0.0000
    70 H9       -3.5128    0.9514   -4.1566   H         1 RES1   0.0000
    71 H10      -3.3087    1.7748   -1.8789   H         1 RES1   0.0000
    72 H11      -4.3190    3.1842   -2.2468   H         1 RES1   0.0000
    73 H12      -2.6365    4.0383   -3.8319   H         1 RES1   0.0000
    74 H13      -1.7484    2.4985   -3.7421   H         1 RES1   0.0000
    75 H14      -3.8902    5.6860   -1.5692   H         1 RES1   0.0000
    76 H15      -5.1870    7.2322   -2.9758   H         1 RES1   0.0000
    77 H16      -4.0995    8.4318   -4.8487   H         1 RES1   0.0000
    78 H17      -1.7253    8.0468   -5.3056   H         1 RES1   0.0000
    79 H18      -0.3991    6.5069   -3.8874   H         1 RES1   0.0000
    80 H19       1.6664    7.0787   -1.6703   H         1 RES1   0.0000
    81 H20       1.9068    9.4927   -1.2999   H         1 RES1   0.0000
    82 H21       0.1669   10.7497   -0.0641   H         1 RES1   0.0000
    83 H22      -1.8360    9.5761    0.7318   H         1 RES1   0.0000
    84 H23      -2.1032    7.1448    0.3455   H         1 RES1   0.0000
    85 H24       1.5501    5.8384    1.1422   H         1 RES1   0.0000
    86 H25       3.1969    4.8971    2.8818   H         1 RES1   0.0000
    87 H26       4.2229    2.9531    3.9792   H         1 RES1   0.0000
    88 H27       4.3653    0.4262    4.2743   H         1 RES1   0.0000
    89 H28       3.6121   -1.7152    6.2222   H         1 RES1   0.0000
    90 H29       5.4939   -1.8947    7.7942   H         1 RES1   0.0000
    91 H30       7.7376   -2.5640    6.9918   H         1 RES1   0.0000
    92 H31       8.0564   -3.1188    4.6251   H         1 RES1   0.0000
    93 H32       6.1619   -2.9677    3.0331   H         1 RES1   0.0000
    94 H33       2.9023   -4.4528    5.5462   H         1 RES1   0.0000
    95 H34       3.7105   -6.6536    6.2621   H         1 RES1   0.0000
    96 H35       4.8684   -8.1488    4.6644   H         1 RES1   0.0000
    97 H36       5.1951   -7.4150    2.3482   H         1 RES1   0.0000
    98 H37       4.4007   -5.1953    1.6085   H         1 RES1   0.0000
    99 H38       2.1235   -5.2915    1.3431   H         1 RES1   0.0000
   100 H39       0.7397   -4.2862    0.8888   H         1 RES1   0.0000
   101 H40       1.1568   -5.6338    3.6012   H         1 RES1   0.0000
   102 H41       0.0723   -6.0982    2.2899   H         1 RES1   0.0000
   103 H42      -1.3083   -5.0664    3.8669   H         1 RES1   0.0000
   104 H43      -1.1124   -3.8548    2.6151   H         1 RES1   0.0000
   105 H44       0.6086   -2.7019    4.0975   H         1 RES1   0.0000
   106 H45       0.4174   -4.0069    5.2597   H         1 RES1   0.0000
   107 H46      -1.9892   -3.4028    5.5401   H         1 RES1   0.0000
   108 H47      -1.7790   -2.0428    4.4495   H         1 RES1   0.0000
   109 H48      -0.3171   -2.4518    7.0979   H         1 RES1   0.0000
   110 H49      -1.5947   -1.2830    6.7799   H         1 RES1   0.0000
   111 H50      -0.0277   -1.1036    5.9928   H         1 RES1   0.0000
   112 N5       -2.4710    0.8771    0.8170   N.3       1 RES1   0.0000
   113 O3       -3.4675    1.3527    1.2661   O.2       1 RES1   0.0000
   114 O4       -2.5085    0.0249   -0.0779   O.co2     1 RES1   0.0000
   115 O5       -1.3546    1.2500    1.2284   O.co2     1 RES1   0.0000
   116 N6        0.3856   -0.9141   -2.3120   N.3       1 RES1   0.0000
   117 O6        0.5922   -1.0993   -3.4682   O.2       1 RES1   0.0000
   118 O7        1.1714   -0.2340   -1.6256   O.co2     1 RES1   0.0000
   119 O8       -0.5896   -1.4229   -1.7394   O.co2     1 RES1   0.0000
   120 O9       -1.2721   -1.3383    1.8858   O.3       1 RES1   0.0000
   121 H51      -1.6128   -2.1637    1.5018   H         1 RES1   0.0000
   122 H52      -0.8603   -1.5677    2.7339   H         1 RES1   0.0000
@<TRIPOS>BOND
     1     1    53    1
     2     1    55    1
     3     1    58    1
     4     1    61    1
     5     1   114    1
     6     1   115    1
     7     1   118    1
     8     1   119    1
     9     1   120    1
    10     2     3    1
    11     2    62    1
    12     2    63    1
    13     2    64    1
    14     3     4    1
    15     3    65    1
    16     3    66    1
    17     4     5    1
    18     4    67    1
    19     4    68    1
    20     5     6    1
    21     5    69    1
    22     5    70    1
    23     6     7    1
    24     6    71    1
    25     6    72    1
    26     7     8    1
    27     7    73    1
    28     7    74    1
    29     8     9    1
    30     8    60    1
    31     9    10    1
    32     9    16    2
    33    10    11    1
    34    10    15    2
    35    11    12    2
    36    11    75    1
    37    12    13    1
    38    12    76    1
    39    13    14    2
    40    13    77    1
    41    14    15    1
    42    14    78    1
    43    15    79    1
    44    16    17    1
    45    16    23    1
    46    17    18    1
    47    17    22    2
    48    18    19    2
    49    18    80    1
    50    19    20    1
    51    19    81    1
    52    20    21    2
    53    20    82    1
    54    21    22    1
    55    21    83    1
    56    22    84    1
    57    23    24    1
    58    23    59    2
    59    24    25    2
    60    24    85    1
    61    25    26    1
    62    25    57    1
    63    26    27    2
    64    26    86    1
    65    27    28    1
    66    27    87    1
    67    28    29    1
    68    28    56    2
    69    29    30    2
    70    29    88    1
    71    30    31    1
    72    30    54    1
    73    31    32    1
    74    31    38    2
    75    32    33    1
    76    32    37    2
    77    33    34    2
    78    33    89    1
    79    34    35    1
    80    34    90    1
    81    35    36    2
    82    35    91    1
    83    36    37    1
    84    36    92    1
    85    37    93    1
    86    38    39    1
    87    38    45    1
    88    39    40    1
    89    39    44    2
    90    40    41    2
    91    40    94    1
    92    41    42    1
    93    41    95    1
    94    42    43    2
    95    42    96    1
    96    43    44    1
    97    43    97    1
    98    44    98    1
    99    45    46    1
   100    45    52    1
   101    46    47    1
   102    46    99    1
   103    46   100    1
   104    47    48    1
   105    47   101    1
   106    47   102    1
   107    48    49    1
   108    48   103    1
   109    48   104    1
   110    49    50    1
   111    49   105    1
   112    49   106    1
   113    50    51    1
   114    50   107    1
   115    50   108    1
   116    51   109    1
   117    51   110    1
   118    51   111    1
   119    52    53    2
   120    52    54    1
   121    54    55    2
   122    55    56    1
   123    56    57    1
   124    57    58    2
   125    58    59    1
   126    59    60    1
   127    60    61    2
   128   112   113    2
   129   112   114    1
   130   112   115    1
   131   116   117    2
   132   116   118    1
   133   116   119    1
   134   120   121    1
   135   120   122    1
@<TRIPOS>SUBSTRUCTURE
     1 RES1      122 GROUP             0 ****  ****    0  
