@<TRIPOS>MOLECULE
am_c3_9H2O_c0_0_nunpairedes_0_charge_3 Charge: 3 Unpaired_Electrons: 2 XTB_Unpaired_Electrons: 0 XTB_Charge: 3
   126   137     1     0     0
SMALL
NoCharges
****
Generated from Architector

@<TRIPOS>ATOM
     1 Pr1      -0.1915    0.0283   -0.0392   Pr        1 RES1   0.0000
     2 C1       -4.8532    1.3325    0.9381   C.3       1 RES1   0.0000
     3 C2       -4.4838   -0.0181    1.5441   C.3       1 RES1   0.0000
     4 C3       -4.9748   -0.1448    2.9863   C.3       1 RES1   0.0000
     5 C4       -4.7618   -1.5256    3.6156   C.3       1 RES1   0.0000
     6 C5       -3.3415   -2.0947    3.5795   C.3       1 RES1   0.0000
     7 C6       -2.3579   -1.2402    4.3811   C.3       1 RES1   0.0000
     8 N1       -0.9741   -1.6400    4.1411   N.ar      1 RES1   0.0000
     9 C7       -0.2231   -2.3024    5.0867   C.ar      1 RES1   0.0000
    10 C8       -0.8798   -2.5881    6.3791   C.ar      1 RES1   0.0000
    11 C9       -1.4829   -3.8200    6.5953   C.ar      1 RES1   0.0000
    12 C10      -2.1151   -4.0743    7.7995   C.ar      1 RES1   0.0000
    13 C11      -2.1492   -3.1164    8.7978   C.ar      1 RES1   0.0000
    14 C12      -1.5535   -1.8879    8.5741   C.ar      1 RES1   0.0000
    15 C13      -0.9236   -1.6127    7.3731   C.ar      1 RES1   0.0000
    16 C14       1.0790   -2.6836    4.8583   C.ar      1 RES1   0.0000
    17 C15       1.7924   -3.4272    5.9252   C.ar      1 RES1   0.0000
    18 C16       1.9453   -4.8055    5.8216   C.ar      1 RES1   0.0000
    19 C17       2.5711   -5.5106    6.8353   C.ar      1 RES1   0.0000
    20 C18       3.0604   -4.8513    7.9514   C.ar      1 RES1   0.0000
    21 C19       2.8995   -3.4797    8.0577   C.ar      1 RES1   0.0000
    22 C20       2.2604   -2.7656    7.0573   C.ar      1 RES1   0.0000
    23 C21       1.7093   -2.3422    3.6217   C.ar      1 RES1   0.0000
    24 C22       3.0369   -2.6307    3.2473   C.ar      1 RES1   0.0000
    25 C23       3.5150   -2.2077    2.0076   C.ar      1 RES1   0.0000
    26 C24       4.8298   -2.4785    1.4962   C.ar      1 RES1   0.0000
    27 C25       5.2299   -2.0744    0.2649   C.ar      1 RES1   0.0000
    28 C26       4.3591   -1.3436   -0.6118   C.ar      1 RES1   0.0000
    29 C27       4.6762   -0.9441   -1.9121   C.ar      1 RES1   0.0000
    30 C28       3.7142   -0.2839   -2.7039   C.ar      1 RES1   0.0000
    31 C29       3.8741    0.1854   -4.0468   C.ar      1 RES1   0.0000
    32 C30       5.1389   -0.0259   -4.7800   C.ar      1 RES1   0.0000
    33 C31       6.2902    0.6640   -4.4193   C.ar      1 RES1   0.0000
    34 C32       7.4725    0.4374   -5.1024   C.ar      1 RES1   0.0000
    35 C33       7.5229   -0.4844   -6.1354   C.ar      1 RES1   0.0000
    36 C34       6.3716   -1.1616   -6.5008   C.ar      1 RES1   0.0000
    37 C35       5.1800   -0.9321   -5.8361   C.ar      1 RES1   0.0000
    38 C36       2.8394    0.8443   -4.6716   C.ar      1 RES1   0.0000
    39 C37       3.0213    1.4564   -6.0083   C.ar      1 RES1   0.0000
    40 C38       3.4456    2.7799   -6.1040   C.ar      1 RES1   0.0000
    41 C39       3.6201    3.3606   -7.3480   C.ar      1 RES1   0.0000
    42 C40       3.3833    2.6395   -8.5057   C.ar      1 RES1   0.0000
    43 C41       2.9472    1.3307   -8.4081   C.ar      1 RES1   0.0000
    44 C42       2.7588    0.7384   -7.1706   C.ar      1 RES1   0.0000
    45 N2        1.6157    1.0302   -4.0673   N.ar      1 RES1   0.0000
    46 C43       0.5804    1.8488   -4.6933   C.3       1 RES1   0.0000
    47 C44      -0.2948    1.1651   -5.7453   C.3       1 RES1   0.0000
    48 C45      -1.2681    0.1015   -5.2326   C.3       1 RES1   0.0000
    49 C46      -0.6224   -1.2429   -4.9008   C.3       1 RES1   0.0000
    50 C47      -1.6669   -2.2928   -4.5332   C.3       1 RES1   0.0000
    51 C48      -1.0495   -3.6513   -4.2367   C.3       1 RES1   0.0000
    52 C49       1.3617    0.5737   -2.8246   C.ar      1 RES1   0.0000
    53 O1        0.2347    0.7320   -2.2732   O.2       1 RES1   0.0000
    54 C50       2.4457   -0.0669   -2.1137   C.ar      1 RES1   0.0000
    55 N3        2.1460   -0.4117   -0.8585   N.ar      1 RES1   0.0000
    56 C51       3.0608   -1.0315   -0.1263   C.ar      1 RES1   0.0000
    57 C52       2.6333   -1.4649    1.1788   C.ar      1 RES1   0.0000
    58 N4        1.3753   -1.1849    1.5086   N.ar      1 RES1   0.0000
    59 C53       0.9195   -1.6259    2.6852   C.ar      1 RES1   0.0000
    60 C54      -0.4715   -1.3262    2.9309   C.ar      1 RES1   0.0000
    61 O2       -1.1675   -0.7611    2.0388   O.2       1 RES1   0.0000
    62 H1       -4.4915    1.4081   -0.0851   H         1 RES1   0.0000
    63 H2       -4.4351    2.1530    1.5172   H         1 RES1   0.0000
    64 H3       -5.9317    1.4585    0.9213   H         1 RES1   0.0000
    65 H4       -3.3936   -0.1375    1.5083   H         1 RES1   0.0000
    66 H5       -4.9597   -0.8059    0.9560   H         1 RES1   0.0000
    67 H6       -6.0501    0.0346    2.9971   H         1 RES1   0.0000
    68 H7       -4.5256    0.6363    3.6010   H         1 RES1   0.0000
    69 H8       -5.4028   -2.2405    3.1018   H         1 RES1   0.0000
    70 H9       -5.0982   -1.4859    4.6522   H         1 RES1   0.0000
    71 H10      -2.9874   -2.1627    2.5493   H         1 RES1   0.0000
    72 H11      -3.3582   -3.1025    3.9995   H         1 RES1   0.0000
    73 H12      -2.5656   -1.2973    5.4480   H         1 RES1   0.0000
    74 H13      -2.4264   -0.2013    4.0528   H         1 RES1   0.0000
    75 H14      -1.4577   -4.5715    5.8199   H         1 RES1   0.0000
    76 H15      -2.5938   -5.0241    7.9492   H         1 RES1   0.0000
    77 H16      -2.6494   -3.3141    9.7353   H         1 RES1   0.0000
    78 H17      -1.5991   -1.1385    9.3442   H         1 RES1   0.0000
    79 H18      -0.4624   -0.6505    7.1959   H         1 RES1   0.0000
    80 H19       1.5489   -5.3289    4.9618   H         1 RES1   0.0000
    81 H20       2.6672   -6.5803    6.7513   H         1 RES1   0.0000
    82 H21       3.5582   -5.4011    8.7386   H         1 RES1   0.0000
    83 H22       3.2709   -2.9735    8.9346   H         1 RES1   0.0000
    84 H23       2.1230   -1.6968    7.1466   H         1 RES1   0.0000
    85 H24       3.6759   -3.1915    3.9167   H         1 RES1   0.0000
    86 H25       5.5026   -3.0280    2.1331   H         1 RES1   0.0000
    87 H26       6.2189   -2.3076   -0.0974   H         1 RES1   0.0000
    88 H27       5.6550   -1.1591   -2.3191   H         1 RES1   0.0000
    89 H28       6.2454    1.3978   -3.6256   H         1 RES1   0.0000
    90 H29       8.3560    0.9849   -4.8227   H         1 RES1   0.0000
    91 H30       8.4506   -0.6776   -6.6552   H         1 RES1   0.0000
    92 H31       6.4138   -1.8734   -7.3086   H         1 RES1   0.0000
    93 H32       4.2804   -1.4632   -6.1129   H         1 RES1   0.0000
    94 H33       3.6444    3.3550   -5.2088   H         1 RES1   0.0000
    95 H34       3.9377    4.3863   -7.4061   H         1 RES1   0.0000
    96 H35       3.5235    3.0954   -9.4747   H         1 RES1   0.0000
    97 H36       2.7474    0.7758   -9.3085   H         1 RES1   0.0000
    98 H37       2.4175   -0.2846   -7.0950   H         1 RES1   0.0000
    99 H38       1.0945    2.6967   -5.1476   H         1 RES1   0.0000
   100 H39      -0.0583    2.1985   -3.8784   H         1 RES1   0.0000
   101 H40       0.3319    0.7340   -6.5239   H         1 RES1   0.0000
   102 H41      -0.8717    1.9783   -6.1907   H         1 RES1   0.0000
   103 H42      -2.0013   -0.0629   -6.0232   H         1 RES1   0.0000
   104 H43      -1.8051    0.4773   -4.3574   H         1 RES1   0.0000
   105 H44       0.0760   -1.1302   -4.0676   H         1 RES1   0.0000
   106 H45      -0.0587   -1.5927   -5.7659   H         1 RES1   0.0000
   107 H46      -2.3652   -2.4069   -5.3602   H         1 RES1   0.0000
   108 H47      -2.2396   -1.9438   -3.6681   H         1 RES1   0.0000
   109 H48      -0.5151   -4.0209   -5.1064   H         1 RES1   0.0000
   110 H49      -1.8175   -4.3768   -3.9875   H         1 RES1   0.0000
   111 H50      -0.3473   -3.6035   -3.4043   H         1 RES1   0.0000
   112 O3       -1.8985    1.6393   -0.8253   O.3       1 RES1   0.0000
   113 H51      -2.2099    1.4760   -1.7291   H         1 RES1   0.0000
   114 H52      -1.7669    2.5953   -0.7575   H         1 RES1   0.0000
   115 O4        1.5759    2.0695    0.1004   O.3       1 RES1   0.0000
   116 H53       2.4612    2.1355    0.4838   H         1 RES1   0.0000
   117 H54       1.5331    2.7708   -0.5626   H         1 RES1   0.0000
   118 O5       -0.7453    1.8598    1.7728   O.3       1 RES1   0.0000
   119 H55      -0.2784    2.0241    2.6036   H         1 RES1   0.0000
   120 H56      -1.6878    1.8619    2.0029   H         1 RES1   0.0000
   121 O6       -2.2935   -1.0828   -0.8220   O.3       1 RES1   0.0000
   122 H57      -2.4677   -1.6993   -1.5477   H         1 RES1   0.0000
   123 H58      -3.0829   -1.0888   -0.2540   H         1 RES1   0.0000
   124 O7        0.3352   -2.4079   -1.1161   O.3       1 RES1   0.0000
   125 H59       0.8000   -3.1513   -0.7084   H         1 RES1   0.0000
   126 H60       0.4706   -2.5101   -2.0727   H         1 RES1   0.0000
@<TRIPOS>BOND
     1     1    53    1
     2     1    55    1
     3     1    58    1
     4     1    61    1
     5     1   112    1
     6     1   115    1
     7     1   118    1
     8     1   121    1
     9     1   124    1
    10     2     3    1
    11     2    62    1
    12     2    63    1
    13     2    64    1
    14     3     4    1
    15     3    65    1
    16     3    66    1
    17     4     5    1
    18     4    67    1
    19     4    68    1
    20     5     6    1
    21     5    69    1
    22     5    70    1
    23     6     7    1
    24     6    71    1
    25     6    72    1
    26     7     8    1
    27     7    73    1
    28     7    74    1
    29     8     9    1
    30     8    60    1
    31     9    10    1
    32     9    16    2
    33    10    11    1
    34    10    15    2
    35    11    12    2
    36    11    75    1
    37    12    13    1
    38    12    76    1
    39    13    14    2
    40    13    77    1
    41    14    15    1
    42    14    78    1
    43    15    79    1
    44    16    17    1
    45    16    23    1
    46    17    18    1
    47    17    22    2
    48    18    19    2
    49    18    80    1
    50    19    20    1
    51    19    81    1
    52    20    21    2
    53    20    82    1
    54    21    22    1
    55    21    83    1
    56    22    84    1
    57    23    24    1
    58    23    59    2
    59    24    25    2
    60    24    85    1
    61    25    26    1
    62    25    57    1
    63    26    27    2
    64    26    86    1
    65    27    28    1
    66    27    87    1
    67    28    29    1
    68    28    56    2
    69    29    30    2
    70    29    88    1
    71    30    31    1
    72    30    54    1
    73    31    32    1
    74    31    38    2
    75    32    33    1
    76    32    37    2
    77    33    34    2
    78    33    89    1
    79    34    35    1
    80    34    90    1
    81    35    36    2
    82    35    91    1
    83    36    37    1
    84    36    92    1
    85    37    93    1
    86    38    39    1
    87    38    45    1
    88    39    40    1
    89    39    44    2
    90    40    41    2
    91    40    94    1
    92    41    42    1
    93    41    95    1
    94    42    43    2
    95    42    96    1
    96    43    44    1
    97    43    97    1
    98    44    98    1
    99    45    46    1
   100    45    52    1
   101    46    47    1
   102    46    99    1
   103    46   100    1
   104    47    48    1
   105    47   101    1
   106    47   102    1
   107    48    49    1
   108    48   103    1
   109    48   104    1
   110    49    50    1
   111    49   105    1
   112    49   106    1
   113    50    51    1
   114    50   107    1
   115    50   108    1
   116    51   109    1
   117    51   110    1
   118    51   111    1
   119    52    53    2
   120    52    54    1
   121    54    55    2
   122    55    56    1
   123    56    57    1
   124    57    58    2
   125    58    59    1
   126    59    60    1
   127    60    61    2
   128   112   113    1
   129   112   114    1
   130   115   116    1
   131   115   117    1
   132   118   119    1
   133   118   120    1
   134   121   122    1
   135   121   123    1
   136   124   125    1
   137   124   126    1
@<TRIPOS>SUBSTRUCTURE
     1 RES1      126 GROUP             0 ****  ****    0  
