@<TRIPOS>MOLECULE
am_c3_9H2O_c0_0_nunpairedes_0_charge_3 Charge: 3 Unpaired_Electrons: 7 XTB_Unpaired_Electrons: 0 XTB_Charge: 3
   394   399     1     0     0
SMALL
NoCharges
****
Generated from Architector

@<TRIPOS>ATOM
     1 Gd1      -0.1888    0.0430    0.0482   Gd        1 RES1   0.0000
     2 C1       -6.1301   -1.5330    7.6128   C.3       1 RES1   0.0000
     3 C2       -6.7730   -0.2043    7.2379   C.3       1 RES1   0.0000
     4 C3       -5.8682    0.6838    6.3803   C.3       1 RES1   0.0000
     5 C4       -4.5493    1.0532    7.0797   C.3       1 RES1   0.0000
     6 C5       -3.3195    0.3270    6.5293   C.3       1 RES1   0.0000
     7 C6       -2.8687    0.8849    5.1806   C.3       1 RES1   0.0000
     8 C7       -1.6472    0.1593    4.6100   C.3       1 RES1   0.0000
     9 C8       -1.8892   -1.2767    4.1385   C.3       1 RES1   0.0000
    10 N1       -2.9270   -1.4174    3.1115   N.am      1 RES1   0.0000
    11 C9       -4.1672   -2.0272    3.5668   C.3       1 RES1   0.0000
    12 C10      -3.8826   -3.4472    4.1001   C.3       1 RES1   0.0000
    13 C11      -4.9088   -4.5102    3.7130   C.3       1 RES1   0.0000
    14 C12      -6.2029   -4.4710    4.5235   C.3       1 RES1   0.0000
    15 C13      -7.1806   -3.3558    4.1476   C.3       1 RES1   0.0000
    16 C14      -7.6918   -3.4691    2.7109   C.3       1 RES1   0.0000
    17 C15      -8.7439   -2.4103    2.3904   C.3       1 RES1   0.0000
    18 C16      -9.2511   -2.5292    0.9606   C.3       1 RES1   0.0000
    19 C17      -2.5840   -1.2407    1.8377   C.2       1 RES1   0.0000
    20 O1       -1.3953   -1.0278    1.5190   O.2       1 RES1   0.0000
    21 C18      -3.5972   -1.3566    0.6681   C.3       1 RES1   0.0000
    22 C19      -3.6233   -2.8425    0.2518   C.3       1 RES1   0.0000
    23 C20      -4.6885   -3.2792   -0.7554   C.3       1 RES1   0.0000
    24 C21      -4.5882   -4.7790   -1.0286   C.3       1 RES1   0.0000
    25 O2       -3.0457   -0.5588   -0.3902   O.3       1 RES1   0.0000
    26 C22      -3.8698    0.4441   -1.0062   C.3       1 RES1   0.0000
    27 C23      -4.5266   -0.1174   -2.2687   C.3       1 RES1   0.0000
    28 C24      -3.5089   -0.5938   -3.2999   C.3       1 RES1   0.0000
    29 C25      -4.2076   -1.1579   -4.5300   C.3       1 RES1   0.0000
    30 C26      -2.9537    1.6788   -1.1519   C.2       1 RES1   0.0000
    31 O3       -1.8508    1.5898   -0.5714   O.2       1 RES1   0.0000
    32 N2       -3.3298    2.8245   -1.7246   N.am      1 RES1   0.0000
    33 C27      -4.6094    3.1007   -2.3637   C.3       1 RES1   0.0000
    34 C28      -4.6202    2.8232   -3.8773   C.3       1 RES1   0.0000
    35 C29      -5.7595    3.5410   -4.6050   C.3       1 RES1   0.0000
    36 C30      -7.1209    2.8526   -4.4946   C.3       1 RES1   0.0000
    37 C31      -8.2364    3.7189   -5.0865   C.3       1 RES1   0.0000
    38 C32      -8.5856    4.9040   -4.1865   C.3       1 RES1   0.0000
    39 C33      -9.7863    5.7085   -4.6889   C.3       1 RES1   0.0000
    40 C34      -9.4710    6.5576   -5.9141   C.3       1 RES1   0.0000
    41 C35      -2.4111    3.9629   -1.5158   C.3       1 RES1   0.0000
    42 C36      -2.3858    5.0875   -2.5558   C.3       1 RES1   0.0000
    43 C37      -3.1845    6.3580   -2.2088   C.3       1 RES1   0.0000
    44 C38      -2.2983    7.5631   -1.8693   C.3       1 RES1   0.0000
    45 C39      -1.7462    7.5728   -0.4436   C.3       1 RES1   0.0000
    46 C40      -2.8079    7.7552    0.6443   C.3       1 RES1   0.0000
    47 C41      -3.5804    9.0696    0.5778   C.3       1 RES1   0.0000
    48 C42      -4.6931    9.1097    1.6204   C.3       1 RES1   0.0000
    49 H1       -6.8111   -2.1275    8.2132   H         1 RES1   0.0000
    50 H2       -5.2263   -1.3812    8.1943   H         1 RES1   0.0000
    51 H3       -5.8824   -2.1063    6.7221   H         1 RES1   0.0000
    52 H4       -7.0349    0.3420    8.1437   H         1 RES1   0.0000
    53 H5       -7.6993   -0.3951    6.6924   H         1 RES1   0.0000
    54 H6       -6.4195    1.5934    6.1311   H         1 RES1   0.0000
    55 H7       -5.6633    0.1720    5.4353   H         1 RES1   0.0000
    56 H8       -4.6449    0.8268    8.1398   H         1 RES1   0.0000
    57 H9       -4.3710    2.1264    6.9978   H         1 RES1   0.0000
    58 H10      -3.5317   -0.7374    6.4410   H         1 RES1   0.0000
    59 H11      -2.4989    0.4425    7.2407   H         1 RES1   0.0000
    60 H12      -2.6001    1.9340    5.3243   H         1 RES1   0.0000
    61 H13      -3.6967    0.8620    4.4702   H         1 RES1   0.0000
    62 H14      -0.8930    0.1083    5.3987   H         1 RES1   0.0000
    63 H15      -1.2156    0.7195    3.7781   H         1 RES1   0.0000
    64 H16      -2.1877   -1.8822    4.9903   H         1 RES1   0.0000
    65 H17      -0.9512   -1.6574    3.7258   H         1 RES1   0.0000
    66 H18      -4.8726   -2.0631    2.7419   H         1 RES1   0.0000
    67 H19      -4.5943   -1.3959    4.3490   H         1 RES1   0.0000
    68 H20      -3.8004   -3.4302    5.1872   H         1 RES1   0.0000
    69 H21      -2.9171   -3.7609    3.6946   H         1 RES1   0.0000
    70 H22      -4.4463   -5.4848    3.8768   H         1 RES1   0.0000
    71 H23      -5.1385   -4.4346    2.6514   H         1 RES1   0.0000
    72 H24      -5.9533   -4.3897    5.5828   H         1 RES1   0.0000
    73 H25      -6.7219   -5.4204    4.3871   H         1 RES1   0.0000
    74 H26      -6.7320   -2.3728    4.2995   H         1 RES1   0.0000
    75 H27      -8.0360   -3.4199    4.8232   H         1 RES1   0.0000
    76 H28      -8.1219   -4.4618    2.5608   H         1 RES1   0.0000
    77 H29      -6.8657   -3.3642    1.9995   H         1 RES1   0.0000
    78 H30      -8.3158   -1.4169    2.5499   H         1 RES1   0.0000
    79 H31      -9.5797   -2.5188    3.0806   H         1 RES1   0.0000
    80 H32      -8.4353   -2.4370    0.2459   H         1 RES1   0.0000
    81 H33      -9.9812   -1.7542    0.7507   H         1 RES1   0.0000
    82 H34      -9.7275   -3.4916    0.8085   H         1 RES1   0.0000
    83 H35      -4.5886   -0.9807    0.9380   H         1 RES1   0.0000
    84 H36      -2.6345   -3.0442   -0.1726   H         1 RES1   0.0000
    85 H37      -3.7360   -3.4481    1.1530   H         1 RES1   0.0000
    86 H38      -4.5399   -2.7619   -1.7030   H         1 RES1   0.0000
    87 H39      -5.6883   -3.0454   -0.3832   H         1 RES1   0.0000
    88 H40      -3.5777   -5.0460   -1.3300   H         1 RES1   0.0000
    89 H41      -5.2690   -5.0611   -1.8316   H         1 RES1   0.0000
    90 H42      -4.8428   -5.3599   -0.1435   H         1 RES1   0.0000
    91 H43      -4.6561    0.7618   -0.3018   H         1 RES1   0.0000
    92 H44      -5.1703   -0.9491   -1.9781   H         1 RES1   0.0000
    93 H45      -5.1845    0.6291   -2.6994   H         1 RES1   0.0000
    94 H46      -2.8675   -1.3569   -2.8474   H         1 RES1   0.0000
    95 H47      -2.8642    0.2411   -3.5848   H         1 RES1   0.0000
    96 H48      -4.7444   -2.0706   -4.2866   H         1 RES1   0.0000
    97 H49      -3.4962   -1.3843   -5.3179   H         1 RES1   0.0000
    98 H50      -4.9271   -0.4433   -4.9236   H         1 RES1   0.0000
    99 H51      -4.8105    4.1589   -2.2027   H         1 RES1   0.0000
   100 H52      -5.3920    2.5310   -1.8645   H         1 RES1   0.0000
   101 H53      -4.7057    1.7604   -4.0887   H         1 RES1   0.0000
   102 H54      -3.6765    3.1520   -4.3069   H         1 RES1   0.0000
   103 H55      -5.4979    3.6040   -5.6618   H         1 RES1   0.0000
   104 H56      -5.8444    4.5582   -4.2246   H         1 RES1   0.0000
   105 H57      -7.3557    2.6410   -3.4491   H         1 RES1   0.0000
   106 H58      -7.0886    1.8994   -5.0266   H         1 RES1   0.0000
   107 H59      -9.1305    3.1070   -5.2214   H         1 RES1   0.0000
   108 H60      -7.9229    4.0738   -6.0699   H         1 RES1   0.0000
   109 H61      -7.7233    5.5726   -4.1061   H         1 RES1   0.0000
   110 H62      -8.8081    4.5239   -3.1829   H         1 RES1   0.0000
   111 H63     -10.1190    6.3635   -3.8805   H         1 RES1   0.0000
   112 H64     -10.6058    5.0248   -4.9205   H         1 RES1   0.0000
   113 H65      -8.6306    7.2203   -5.7191   H         1 RES1   0.0000
   114 H66     -10.3297    7.1724   -6.1624   H         1 RES1   0.0000
   115 H67      -9.2365    5.9356   -6.7735   H         1 RES1   0.0000
   116 H68      -1.4157    3.5186   -1.4565   H         1 RES1   0.0000
   117 H69      -2.6436    4.3973   -0.5407   H         1 RES1   0.0000
   118 H70      -2.7166    4.7253   -3.5238   H         1 RES1   0.0000
   119 H71      -1.3374    5.3711   -2.6760   H         1 RES1   0.0000
   120 H72      -3.7911    6.6324   -3.0714   H         1 RES1   0.0000
   121 H73      -3.8750    6.1696   -1.3860   H         1 RES1   0.0000
   122 H74      -2.8749    8.4715   -2.0280   H         1 RES1   0.0000
   123 H75      -1.4668    7.6017   -2.5785   H         1 RES1   0.0000
   124 H76      -1.0291    8.3868   -0.3687   H         1 RES1   0.0000
   125 H77      -1.2136    6.6319   -0.2627   H         1 RES1   0.0000
   126 H78      -2.3147    7.7037    1.6167   H         1 RES1   0.0000
   127 H79      -3.5287    6.9380    0.5969   H         1 RES1   0.0000
   128 H80      -4.0272    9.1908   -0.4083   H         1 RES1   0.0000
   129 H81      -2.9038    9.9079    0.7384   H         1 RES1   0.0000
   130 H82      -5.3279    8.2284    1.5388   H         1 RES1   0.0000
   131 H83      -5.3156    9.9879    1.4760   H         1 RES1   0.0000
   132 H84      -4.2873    9.1499    2.6288   H         1 RES1   0.0000
   133 C43       1.5512   -6.2047   -7.3271   C.3       1 RES1   0.0000
   134 C44       2.9961   -6.5119   -6.9559   C.3       1 RES1   0.0000
   135 C45       3.5935   -5.5036   -5.9736   C.3       1 RES1   0.0000
   136 C46       3.6774   -4.0850   -6.5573   C.3       1 RES1   0.0000
   137 C47       2.6058   -3.1217   -6.0434   C.3       1 RES1   0.0000
   138 C48       2.9639   -2.5669   -4.6672   C.3       1 RES1   0.0000
   139 C49       1.9317   -1.5800   -4.1183   C.3       1 RES1   0.0000
   140 C50       0.5646   -2.1828   -3.7915   C.3       1 RES1   0.0000
   141 N3        0.6642   -3.1894   -2.7378   N.am      1 RES1   0.0000
   142 C51       0.5041   -4.5591   -3.1898   C.3       1 RES1   0.0000
   143 C52      -0.9479   -4.7716   -3.6714   C.3       1 RES1   0.0000
   144 C53      -1.5656   -6.1266   -3.3222   C.3       1 RES1   0.0000
   145 C54      -1.0468   -7.3002   -4.1539   C.3       1 RES1   0.0000
   146 C55       0.3485   -7.7976   -3.7730   C.3       1 RES1   0.0000
   147 C56       0.3858   -8.4139   -2.3751   C.3       1 RES1   0.0000
   148 C57       1.8079   -8.7324   -1.9230   C.3       1 RES1   0.0000
   149 C58       1.8445   -9.1614   -0.4622   C.3       1 RES1   0.0000
   150 C59       0.7105   -2.7479   -1.4913   C.2       1 RES1   0.0000
   151 O4        0.5534   -1.5236   -1.2657   O.2       1 RES1   0.0000
   152 C60       1.0151   -3.6520   -0.2691   C.3       1 RES1   0.0000
   153 C61      -0.0651   -4.7503   -0.0763   C.3       1 RES1   0.0000
   154 C62      -0.4815   -5.0115    1.3723   C.3       1 RES1   0.0000
   155 C63      -1.4884   -6.1518    1.4714   C.3       1 RES1   0.0000
   156 O5        1.1099   -2.7798    0.8531   O.3       1 RES1   0.0000
   157 C64       2.3687   -2.6943    1.5394   C.3       1 RES1   0.0000
   158 C65       2.3819   -3.6332    2.7579   C.3       1 RES1   0.0000
   159 C66       1.3687   -3.2504    3.8338   C.3       1 RES1   0.0000
   160 C67       1.4155   -4.2131    5.0121   C.3       1 RES1   0.0000
   161 C68       2.5612   -1.1862    1.8327   C.2       1 RES1   0.0000
   162 O6        1.7230   -0.4105    1.3212   O.2       1 RES1   0.0000
   163 N4        3.6128   -0.7047    2.4978   N.am      1 RES1   0.0000
   164 C69       4.6655   -1.4382    3.1807   C.3       1 RES1   0.0000
   165 C70       4.5207   -1.4509    4.7107   C.3       1 RES1   0.0000
   166 C71       5.7898   -2.0063    5.3677   C.3       1 RES1   0.0000
   167 C72       5.8590   -3.5335    5.3689   C.3       1 RES1   0.0000
   168 C73       7.2471   -4.0507    5.7614   C.3       1 RES1   0.0000
   169 C74       8.2732   -3.9139    4.6357   C.3       1 RES1   0.0000
   170 C75       9.6554   -4.4576    5.0059   C.3       1 RES1   0.0000
   171 C76      10.3532   -3.6351    6.0840   C.3       1 RES1   0.0000
   172 C77       3.6375    0.7512    2.6960   C.3       1 RES1   0.0000
   173 C78       4.9857    1.4914    2.8294   C.3       1 RES1   0.0000
   174 C79       6.1323    1.2476    1.8275   C.3       1 RES1   0.0000
   175 C80       6.9104    2.5311    1.4684   C.3       1 RES1   0.0000
   176 C81       6.5199    3.1715    0.1331   C.3       1 RES1   0.0000
   177 C82       6.9982    2.3728   -1.0880   C.3       1 RES1   0.0000
   178 C83       8.2908    2.8971   -1.7117   C.3       1 RES1   0.0000
   179 C84       8.7672    1.9630   -2.8205   C.3       1 RES1   0.0000
   180 H85       1.1807   -6.9363   -8.0399   H         1 RES1   0.0000
   181 H86       1.4654   -5.2228   -7.7860   H         1 RES1   0.0000
   182 H87       0.9139   -6.2394   -6.4444   H         1 RES1   0.0000
   183 H88       3.6048   -6.5203   -7.8602   H         1 RES1   0.0000
   184 H89       3.0462   -7.5111   -6.5205   H         1 RES1   0.0000
   185 H90       4.5929   -5.8481   -5.7049   H         1 RES1   0.0000
   186 H91       3.0028   -5.5040   -5.0536   H         1 RES1   0.0000
   187 H92       3.5987   -4.1553   -7.6402   H         1 RES1   0.0000
   188 H93       4.6513   -3.6490   -6.3358   H         1 RES1   0.0000
   189 H94       1.6454   -3.6331   -6.0079   H         1 RES1   0.0000
   190 H95       2.5060   -2.2884   -6.7414   H         1 RES1   0.0000
   191 H96       3.9160   -2.0359   -4.7482   H         1 RES1   0.0000
   192 H97       3.1231   -3.3837   -3.9604   H         1 RES1   0.0000
   193 H98       1.7775   -0.7972   -4.8642   H         1 RES1   0.0000
   194 H99       2.3312   -1.1262   -3.2136   H         1 RES1   0.0000
   195 H100      0.1565   -2.6534   -4.6802   H         1 RES1   0.0000
   196 H101     -0.1132   -1.3881   -3.4580   H         1 RES1   0.0000
   197 H102      0.7577   -5.2391   -2.3866   H         1 RES1   0.0000
   198 H103      1.1990   -4.7269   -4.0110   H         1 RES1   0.0000
   199 H104     -0.9969   -4.6448   -4.7529   H         1 RES1   0.0000
   200 H105     -1.5680   -3.9920   -3.2169   H         1 RES1   0.0000
   201 H106     -2.6421   -6.0505   -3.4939   H         1 RES1   0.0000
   202 H107     -1.4238   -6.3277   -2.2612   H         1 RES1   0.0000
   203 H108     -1.0632   -7.0162   -5.2080   H         1 RES1   0.0000
   204 H109     -1.7377   -8.1356   -4.0357   H         1 RES1   0.0000
   205 H110      1.0768   -6.9873   -3.8333   H         1 RES1   0.0000
   206 H111      0.6543   -8.5505   -4.5000   H         1 RES1   0.0000
   207 H112     -0.2169   -9.3236   -2.3635   H         1 RES1   0.0000
   208 H113     -0.0588   -7.7262   -1.6493   H         1 RES1   0.0000
   209 H114      2.4334   -7.8447   -2.0587   H         1 RES1   0.0000
   210 H115      2.2210   -9.5220   -2.5500   H         1 RES1   0.0000
   211 H116      1.4745   -8.3656    0.1836   H         1 RES1   0.0000
   212 H117      2.8592   -9.4010   -0.1592   H         1 RES1   0.0000
   213 H118      1.2243  -10.0395   -0.3076   H         1 RES1   0.0000
   214 H119      1.9908   -4.1220   -0.4446   H         1 RES1   0.0000
   215 H120     -0.9460   -4.4650   -0.6521   H         1 RES1   0.0000
   216 H121      0.3113   -5.6928   -0.4780   H         1 RES1   0.0000
   217 H122     -0.9005   -4.0993    1.7952   H         1 RES1   0.0000
   218 H123      0.3885   -5.2897    1.9632   H         1 RES1   0.0000
   219 H124     -2.3676   -5.9625    0.8628   H         1 RES1   0.0000
   220 H125     -1.8050   -6.2776    2.5031   H         1 RES1   0.0000
   221 H126     -1.0477   -7.0898    1.1440   H         1 RES1   0.0000
   222 H127      3.1761   -2.9915    0.8503   H         1 RES1   0.0000
   223 H128      2.1631   -4.6369    2.3896   H         1 RES1   0.0000
   224 H129      3.3706   -3.6845    3.2057   H         1 RES1   0.0000
   225 H130      0.3755   -3.2610    3.3855   H         1 RES1   0.0000
   226 H131      1.5757   -2.2345    4.1740   H         1 RES1   0.0000
   227 H132      1.1630   -5.2201    4.6923   H         1 RES1   0.0000
   228 H133      0.7072   -3.9156    5.7804   H         1 RES1   0.0000
   229 H134      2.4123   -4.2341    5.4480   H         1 RES1   0.0000
   230 H135      5.6068   -0.9475    2.9364   H         1 RES1   0.0000
   231 H136      4.7256   -2.4470    2.7838   H         1 RES1   0.0000
   232 H137      3.6570   -2.0398    5.0188   H         1 RES1   0.0000
   233 H138      4.3568   -0.4311    5.0588   H         1 RES1   0.0000
   234 H139      5.8486   -1.6580    6.4014   H         1 RES1   0.0000
   235 H140      6.6543   -1.5944    4.8433   H         1 RES1   0.0000
   236 H141      5.6040   -3.9288    4.3823   H         1 RES1   0.0000
   237 H142      5.1231   -3.9166    6.0779   H         1 RES1   0.0000
   238 H143      7.1667   -5.1060    6.0315   H         1 RES1   0.0000
   239 H144      7.5930   -3.5082    6.6412   H         1 RES1   0.0000
   240 H145      8.3817   -2.8623    4.3560   H         1 RES1   0.0000
   241 H146      7.9052   -4.4517    3.7566   H         1 RES1   0.0000
   242 H147     10.2723   -4.4575    4.1040   H         1 RES1   0.0000
   243 H148      9.5684   -5.4931    5.3396   H         1 RES1   0.0000
   244 H149     10.3582   -2.5791    5.8209   H         1 RES1   0.0000
   245 H150     11.3832   -3.9623    6.1898   H         1 RES1   0.0000
   246 H151      9.8655   -3.7499    7.0479   H         1 RES1   0.0000
   247 H152      3.0734    0.9631    3.6136   H         1 RES1   0.0000
   248 H153      3.0641    1.1731    1.8671   H         1 RES1   0.0000
   249 H154      5.3752    1.3386    3.8345   H         1 RES1   0.0000
   250 H155      4.7039    2.5426    2.7641   H         1 RES1   0.0000
   251 H156      5.7514    0.7859    0.9247   H         1 RES1   0.0000
   252 H157      6.8456    0.5552    2.2719   H         1 RES1   0.0000
   253 H158      7.9751    2.3113    1.4387   H         1 RES1   0.0000
   254 H159      6.7704    3.2574    2.2700   H         1 RES1   0.0000
   255 H160      6.9522    4.1660    0.0830   H         1 RES1   0.0000
   256 H161      5.4331    3.2932    0.1187   H         1 RES1   0.0000
   257 H162      6.2421    2.3927   -1.8791   H         1 RES1   0.0000
   258 H163      7.1540    1.3304   -0.8068   H         1 RES1   0.0000
   259 H164      9.0695    2.9848   -0.9538   H         1 RES1   0.0000
   260 H165      8.1092    3.8922   -2.1235   H         1 RES1   0.0000
   261 H166      9.0629    0.9965   -2.4146   H         1 RES1   0.0000
   262 H167      9.6253    2.3873   -3.3312   H         1 RES1   0.0000
   263 H168      7.9780    1.7956   -3.5548   H         1 RES1   0.0000
   264 C85       2.7395    4.8415   -8.7256   C.3       1 RES1   0.0000
   265 C86       2.0435    6.1786   -8.4976   C.3       1 RES1   0.0000
   266 C87       0.9534    6.1137   -7.4267   C.3       1 RES1   0.0000
   267 C88      -0.2450    5.2446   -7.8447   C.3       1 RES1   0.0000
   268 C89      -0.3577    3.9121   -7.0981   C.3       1 RES1   0.0000
   269 C90      -0.9232    4.0788   -5.6879   C.3       1 RES1   0.0000
   270 C91      -1.1242    2.7433   -4.9651   C.3       1 RES1   0.0000
   271 C92       0.1269    1.8965   -4.7463   C.3       1 RES1   0.0000
   272 N5        1.0277    2.4426   -3.7326   N.am      1 RES1   0.0000
   273 C93       2.1455    3.2095   -4.2625   C.3       1 RES1   0.0000
   274 C94       3.1139    2.3004   -5.0479   C.3       1 RES1   0.0000
   275 C95       4.6051    2.4758   -4.7344   C.3       1 RES1   0.0000
   276 C96       5.2998    3.5419   -5.5806   C.3       1 RES1   0.0000
   277 C97       4.9052    4.9758   -5.2328   C.3       1 RES1   0.0000
   278 C98       5.5098    5.4425   -3.9090   C.3       1 RES1   0.0000
   279 C99       5.1119    6.8823   -3.5948   C.3       1 RES1   0.0000
   280 C100      5.6172    7.3385   -2.2331   C.3       1 RES1   0.0000
   281 C101      0.8615    2.0018   -2.4857   C.2       1 RES1   0.0000
   282 O7       -0.0604    1.2132   -2.1970   O.2       1 RES1   0.0000
   283 C102      1.9199    2.2078   -1.3794   C.3       1 RES1   0.0000
   284 C103      2.7259    0.9184   -1.6683   C.3       1 RES1   0.0000
   285 C104      4.0128    0.6216   -0.9178   C.3       1 RES1   0.0000
   286 C105      4.6920   -0.6426   -1.4529   C.3       1 RES1   0.0000
   287 O8        1.3228    2.0968   -0.0752   O.3       1 RES1   0.0000
   288 C106      0.8021    3.2961    0.5694   C.3       1 RES1   0.0000
   289 C107      1.9173    4.1231    1.2444   C.3       1 RES1   0.0000
   290 C108      2.1131    3.9250    2.7461   C.3       1 RES1   0.0000
   291 C109      3.0570    4.9774    3.3243   C.3       1 RES1   0.0000
   292 C110     -0.3456    2.7646    1.4802   C.2       1 RES1   0.0000
   293 O9       -0.3965    1.5311    1.6442   O.2       1 RES1   0.0000
   294 N6       -1.3451    3.5432    1.9213   N.am      1 RES1   0.0000
   295 C111     -1.2253    4.8996    2.4253   C.3       1 RES1   0.0000
   296 C112     -1.2175    4.8958    3.9664   C.3       1 RES1   0.0000
   297 C113     -1.5245    6.2607    4.5802   C.3       1 RES1   0.0000
   298 C114     -0.3203    7.2007    4.5901   C.3       1 RES1   0.0000
   299 C115     -0.6780    8.5817    5.1424   C.3       1 RES1   0.0000
   300 C116     -1.5401    9.3965    4.1790   C.3       1 RES1   0.0000
   301 C117     -1.6945   10.8567    4.6034   C.3       1 RES1   0.0000
   302 C118     -2.5086   11.0252    5.8798   C.3       1 RES1   0.0000
   303 C119     -2.6166    2.8044    2.1239   C.3       1 RES1   0.0000
   304 C120     -3.8496    3.3951    2.8081   C.3       1 RES1   0.0000
   305 C121     -4.5118    4.6214    2.1729   C.3       1 RES1   0.0000
   306 C122     -6.0456    4.5822    2.2953   C.3       1 RES1   0.0000
   307 C123     -6.7289    4.0441    1.0336   C.3       1 RES1   0.0000
   308 C124     -6.7259    5.0411   -0.1285   C.3       1 RES1   0.0000
   309 C125     -7.6335    6.2537    0.0740   C.3       1 RES1   0.0000
   310 C126     -7.3831    7.3164   -0.9903   C.3       1 RES1   0.0000
   311 H169      3.4993    4.9400   -9.4964   H         1 RES1   0.0000
   312 H170      2.0350    4.0798   -9.0507   H         1 RES1   0.0000
   313 H171      3.2267    4.5070   -7.8108   H         1 RES1   0.0000
   314 H172      1.5965    6.5205   -9.4318   H         1 RES1   0.0000
   315 H173      2.7882    6.9205   -8.2034   H         1 RES1   0.0000
   316 H174      0.6121    7.1298   -7.2276   H         1 RES1   0.0000
   317 H175      1.3918    5.7382   -6.4993   H         1 RES1   0.0000
   318 H176     -0.1619    5.0351   -8.9105   H         1 RES1   0.0000
   319 H177     -1.1773    5.7948   -7.6963   H         1 RES1   0.0000
   320 H178      0.6235    3.4395   -7.0571   H         1 RES1   0.0000
   321 H179     -1.0237    3.2526   -7.6605   H         1 RES1   0.0000
   322 H180     -1.8973    4.5672   -5.7796   H         1 RES1   0.0000
   323 H181     -0.2974    4.7471   -5.0925   H         1 RES1   0.0000
   324 H182     -1.8198    2.1392   -5.5516   H         1 RES1   0.0000
   325 H183     -1.5517    2.9112   -3.9770   H         1 RES1   0.0000
   326 H184      0.6775    1.7811   -5.6752   H         1 RES1   0.0000
   327 H185     -0.1911    0.9129   -4.3897   H         1 RES1   0.0000
   328 H186      2.6612    3.7301   -3.4571   H         1 RES1   0.0000
   329 H187      1.7190    3.9632   -4.9265   H         1 RES1   0.0000
   330 H188      2.9733    2.4485   -6.1193   H         1 RES1   0.0000
   331 H189      2.8520    1.2622   -4.8362   H         1 RES1   0.0000
   332 H190      5.1037    1.5231   -4.9303   H         1 RES1   0.0000
   333 H191      4.7428    2.7035   -3.6761   H         1 RES1   0.0000
   334 H192      5.0885    3.3452   -6.6337   H         1 RES1   0.0000
   335 H193      6.3775    3.4491   -5.4439   H         1 RES1   0.0000
   336 H194      3.8188    5.0750   -5.1889   H         1 RES1   0.0000
   337 H195      5.2577    5.6351   -6.0263   H         1 RES1   0.0000
   338 H196      6.5986    5.3711   -3.9659   H         1 RES1   0.0000
   339 H197      5.1857    4.7927   -3.0882   H         1 RES1   0.0000
   340 H198      4.0220    6.9670   -3.6298   H         1 RES1   0.0000
   341 H199      5.5167    7.5361   -4.3678   H         1 RES1   0.0000
   342 H200      5.2382    6.6925   -1.4417   H         1 RES1   0.0000
   343 H201      5.2924    8.3553   -2.0327   H         1 RES1   0.0000
   344 H202      6.7028    7.3155   -2.2035   H         1 RES1   0.0000
   345 H203      2.5044    3.1275   -1.4544   H         1 RES1   0.0000
   346 H204      2.0210    0.1029   -1.4500   H         1 RES1   0.0000
   347 H205      2.9445    0.9221   -2.7362   H         1 RES1   0.0000
   348 H206      3.7676    0.4751    0.1266   H         1 RES1   0.0000
   349 H207      4.6942    1.4588   -1.0184   H         1 RES1   0.0000
   350 H208      4.0324   -1.5046   -1.3762   H         1 RES1   0.0000
   351 H209      5.5916   -0.8517   -0.8808   H         1 RES1   0.0000
   352 H210      4.9838   -0.5273   -2.4929   H         1 RES1   0.0000
   353 H211      0.3127    3.8987   -0.2085   H         1 RES1   0.0000
   354 H212      2.8563    3.9037    0.7325   H         1 RES1   0.0000
   355 H213      1.7032    5.1797    1.0796   H         1 RES1   0.0000
   356 H214      2.4884    2.9325    2.9615   H         1 RES1   0.0000
   357 H215      1.1537    4.0073    3.2452   H         1 RES1   0.0000
   358 H216      4.0073    5.0139    2.7890   H         1 RES1   0.0000
   359 H217      3.2561    4.7739    4.3739   H         1 RES1   0.0000
   360 H218      2.5984    5.9608    3.2675   H         1 RES1   0.0000
   361 H219     -2.0693    5.4889    2.0680   H         1 RES1   0.0000
   362 H220     -0.3093    5.3480    2.0459   H         1 RES1   0.0000
   363 H221     -0.2549    4.5504    4.3456   H         1 RES1   0.0000
   364 H222     -1.9589    4.1835    4.3173   H         1 RES1   0.0000
   365 H223     -1.8509    6.1109    5.6106   H         1 RES1   0.0000
   366 H224     -2.3546    6.7259    4.0477   H         1 RES1   0.0000
   367 H225      0.0780    7.3089    3.5783   H         1 RES1   0.0000
   368 H226      0.4652    6.7622    5.2102   H         1 RES1   0.0000
   369 H227      0.2440    9.1317    5.3416   H         1 RES1   0.0000
   370 H228     -1.2051    8.4549    6.0894   H         1 RES1   0.0000
   371 H229     -2.5322    8.9441    4.1078   H         1 RES1   0.0000
   372 H230     -1.0831    9.3631    3.1846   H         1 RES1   0.0000
   373 H231     -2.1873   11.3970    3.7923   H         1 RES1   0.0000
   374 H232     -0.7056   11.2984    4.7412   H         1 RES1   0.0000
   375 H233     -3.4881   10.5641    5.7748   H         1 RES1   0.0000
   376 H234     -2.6505   12.0801    6.0907   H         1 RES1   0.0000
   377 H235     -2.0037   10.5764    6.7303   H         1 RES1   0.0000
   378 H236     -2.3800    1.8782    2.6507   H         1 RES1   0.0000
   379 H237     -2.9230    2.5210    1.1142   H         1 RES1   0.0000
   380 H238     -3.6662    3.5956    3.8579   H         1 RES1   0.0000
   381 H239     -4.5650    2.5674    2.7777   H         1 RES1   0.0000
   382 H240     -4.2370    4.6753    1.1223   H         1 RES1   0.0000
   383 H241     -4.1557    5.5197    2.6694   H         1 RES1   0.0000
   384 H242     -6.4219    5.5821    2.4978   H         1 RES1   0.0000
   385 H243     -6.3191    3.9657    3.1549   H         1 RES1   0.0000
   386 H244     -7.7571    3.7837    1.2704   H         1 RES1   0.0000
   387 H245     -6.2063    3.1300    0.7280   H         1 RES1   0.0000
   388 H246     -7.0375    4.5227   -1.0377   H         1 RES1   0.0000
   389 H247     -5.7072    5.4015   -0.2923   H         1 RES1   0.0000
   390 H248     -7.4562    6.6966    1.0534   H         1 RES1   0.0000
   391 H249     -8.6754    5.9392    0.0422   H         1 RES1   0.0000
   392 H250     -6.3340    7.6102   -1.0090   H         1 RES1   0.0000
   393 H251     -7.9726    8.2040   -0.7794   H         1 RES1   0.0000
   394 H252     -7.6586    6.9551   -1.9789   H         1 RES1   0.0000
@<TRIPOS>BOND
     1     1    20    1
     2     1    25    1
     3     1    31    1
     4     1   151    1
     5     1   156    1
     6     1   162    1
     7     1   282    1
     8     1   287    1
     9     1   293    1
    10     2     3    1
    11     2    49    1
    12     2    50    1
    13     2    51    1
    14     3     4    1
    15     3    52    1
    16     3    53    1
    17     4     5    1
    18     4    54    1
    19     4    55    1
    20     5     6    1
    21     5    56    1
    22     5    57    1
    23     6     7    1
    24     6    58    1
    25     6    59    1
    26     7     8    1
    27     7    60    1
    28     7    61    1
    29     8     9    1
    30     8    62    1
    31     8    63    1
    32     9    10    1
    33     9    64    1
    34     9    65    1
    35    10    11    1
    36    10    19    1
    37    11    12    1
    38    11    66    1
    39    11    67    1
    40    12    13    1
    41    12    68    1
    42    12    69    1
    43    13    14    1
    44    13    70    1
    45    13    71    1
    46    14    15    1
    47    14    72    1
    48    14    73    1
    49    15    16    1
    50    15    74    1
    51    15    75    1
    52    16    17    1
    53    16    76    1
    54    16    77    1
    55    17    18    1
    56    17    78    1
    57    17    79    1
    58    18    80    1
    59    18    81    1
    60    18    82    1
    61    19    20    2
    62    19    21    1
    63    21    22    1
    64    21    25    1
    65    21    83    1
    66    22    23    1
    67    22    84    1
    68    22    85    1
    69    23    24    1
    70    23    86    1
    71    23    87    1
    72    24    88    1
    73    24    89    1
    74    24    90    1
    75    25    26    1
    76    26    27    1
    77    26    30    1
    78    26    91    1
    79    27    28    1
    80    27    92    1
    81    27    93    1
    82    28    29    1
    83    28    94    1
    84    28    95    1
    85    29    96    1
    86    29    97    1
    87    29    98    1
    88    30    31    2
    89    30    32    1
    90    32    33    1
    91    32    41    1
    92    33    34    1
    93    33    99    1
    94    33   100    1
    95    34    35    1
    96    34   101    1
    97    34   102    1
    98    35    36    1
    99    35   103    1
   100    35   104    1
   101    36    37    1
   102    36   105    1
   103    36   106    1
   104    37    38    1
   105    37   107    1
   106    37   108    1
   107    38    39    1
   108    38   109    1
   109    38   110    1
   110    39    40    1
   111    39   111    1
   112    39   112    1
   113    40   113    1
   114    40   114    1
   115    40   115    1
   116    41    42    1
   117    41   116    1
   118    41   117    1
   119    42    43    1
   120    42   118    1
   121    42   119    1
   122    43    44    1
   123    43   120    1
   124    43   121    1
   125    44    45    1
   126    44   122    1
   127    44   123    1
   128    45    46    1
   129    45   124    1
   130    45   125    1
   131    46    47    1
   132    46   126    1
   133    46   127    1
   134    47    48    1
   135    47   128    1
   136    47   129    1
   137    48   130    1
   138    48   131    1
   139    48   132    1
   140   133   134    1
   141   133   180    1
   142   133   181    1
   143   133   182    1
   144   134   135    1
   145   134   183    1
   146   134   184    1
   147   135   136    1
   148   135   185    1
   149   135   186    1
   150   136   137    1
   151   136   187    1
   152   136   188    1
   153   137   138    1
   154   137   189    1
   155   137   190    1
   156   138   139    1
   157   138   191    1
   158   138   192    1
   159   139   140    1
   160   139   193    1
   161   139   194    1
   162   140   141    1
   163   140   195    1
   164   140   196    1
   165   141   142    1
   166   141   150    1
   167   142   143    1
   168   142   197    1
   169   142   198    1
   170   143   144    1
   171   143   199    1
   172   143   200    1
   173   144   145    1
   174   144   201    1
   175   144   202    1
   176   145   146    1
   177   145   203    1
   178   145   204    1
   179   146   147    1
   180   146   205    1
   181   146   206    1
   182   147   148    1
   183   147   207    1
   184   147   208    1
   185   148   149    1
   186   148   209    1
   187   148   210    1
   188   149   211    1
   189   149   212    1
   190   149   213    1
   191   150   151    2
   192   150   152    1
   193   152   153    1
   194   152   156    1
   195   152   214    1
   196   153   154    1
   197   153   215    1
   198   153   216    1
   199   154   155    1
   200   154   217    1
   201   154   218    1
   202   155   219    1
   203   155   220    1
   204   155   221    1
   205   156   157    1
   206   157   158    1
   207   157   161    1
   208   157   222    1
   209   158   159    1
   210   158   223    1
   211   158   224    1
   212   159   160    1
   213   159   225    1
   214   159   226    1
   215   160   227    1
   216   160   228    1
   217   160   229    1
   218   161   162    2
   219   161   163    1
   220   163   164    1
   221   163   172    1
   222   164   165    1
   223   164   230    1
   224   164   231    1
   225   165   166    1
   226   165   232    1
   227   165   233    1
   228   166   167    1
   229   166   234    1
   230   166   235    1
   231   167   168    1
   232   167   236    1
   233   167   237    1
   234   168   169    1
   235   168   238    1
   236   168   239    1
   237   169   170    1
   238   169   240    1
   239   169   241    1
   240   170   171    1
   241   170   242    1
   242   170   243    1
   243   171   244    1
   244   171   245    1
   245   171   246    1
   246   172   173    1
   247   172   247    1
   248   172   248    1
   249   173   174    1
   250   173   249    1
   251   173   250    1
   252   174   175    1
   253   174   251    1
   254   174   252    1
   255   175   176    1
   256   175   253    1
   257   175   254    1
   258   176   177    1
   259   176   255    1
   260   176   256    1
   261   177   178    1
   262   177   257    1
   263   177   258    1
   264   178   179    1
   265   178   259    1
   266   178   260    1
   267   179   261    1
   268   179   262    1
   269   179   263    1
   270   264   265    1
   271   264   311    1
   272   264   312    1
   273   264   313    1
   274   265   266    1
   275   265   314    1
   276   265   315    1
   277   266   267    1
   278   266   316    1
   279   266   317    1
   280   267   268    1
   281   267   318    1
   282   267   319    1
   283   268   269    1
   284   268   320    1
   285   268   321    1
   286   269   270    1
   287   269   322    1
   288   269   323    1
   289   270   271    1
   290   270   324    1
   291   270   325    1
   292   271   272    1
   293   271   326    1
   294   271   327    1
   295   272   273    1
   296   272   281    1
   297   273   274    1
   298   273   328    1
   299   273   329    1
   300   274   275    1
   301   274   330    1
   302   274   331    1
   303   275   276    1
   304   275   332    1
   305   275   333    1
   306   276   277    1
   307   276   334    1
   308   276   335    1
   309   277   278    1
   310   277   336    1
   311   277   337    1
   312   278   279    1
   313   278   338    1
   314   278   339    1
   315   279   280    1
   316   279   340    1
   317   279   341    1
   318   280   342    1
   319   280   343    1
   320   280   344    1
   321   281   282    2
   322   281   283    1
   323   283   284    1
   324   283   287    1
   325   283   345    1
   326   284   285    1
   327   284   346    1
   328   284   347    1
   329   285   286    1
   330   285   348    1
   331   285   349    1
   332   286   350    1
   333   286   351    1
   334   286   352    1
   335   287   288    1
   336   288   289    1
   337   288   292    1
   338   288   353    1
   339   289   290    1
   340   289   354    1
   341   289   355    1
   342   290   291    1
   343   290   356    1
   344   290   357    1
   345   291   358    1
   346   291   359    1
   347   291   360    1
   348   292   293    2
   349   292   294    1
   350   294   295    1
   351   294   303    1
   352   295   296    1
   353   295   361    1
   354   295   362    1
   355   296   297    1
   356   296   363    1
   357   296   364    1
   358   297   298    1
   359   297   365    1
   360   297   366    1
   361   298   299    1
   362   298   367    1
   363   298   368    1
   364   299   300    1
   365   299   369    1
   366   299   370    1
   367   300   301    1
   368   300   371    1
   369   300   372    1
   370   301   302    1
   371   301   373    1
   372   301   374    1
   373   302   375    1
   374   302   376    1
   375   302   377    1
   376   303   304    1
   377   303   378    1
   378   303   379    1
   379   304   305    1
   380   304   380    1
   381   304   381    1
   382   305   306    1
   383   305   382    1
   384   305   383    1
   385   306   307    1
   386   306   384    1
   387   306   385    1
   388   307   308    1
   389   307   386    1
   390   307   387    1
   391   308   309    1
   392   308   388    1
   393   308   389    1
   394   309   310    1
   395   309   390    1
   396   309   391    1
   397   310   392    1
   398   310   393    1
   399   310   394    1
@<TRIPOS>SUBSTRUCTURE
     1 RES1      394 GROUP             0 ****  ****    0  
