@<TRIPOS>MOLECULE
am_c3_9H2O_c0_0_nunpairedes_0_charge_3 Charge: 3 Unpaired_Electrons: 3 XTB_Unpaired_Electrons: 0 XTB_Charge: 3
   343   351     1     0     0
SMALL
NoCharges
****
Generated from Architector

@<TRIPOS>ATOM
     1 Nd1      -0.4774    0.5218    0.2833   Nd        1 RES1   0.0000
     2 C1        5.7861    1.8836   -6.1916   C.3       1 RES1   0.0000
     3 C2        5.0433    0.6921   -6.7907   C.3       1 RES1   0.0000
     4 C3        5.1726   -0.5904   -5.9444   C.3       1 RES1   0.0000
     5 C4        3.9581   -1.5217   -6.1216   C.3       1 RES1   0.0000
     6 C5        4.1569   -3.0509   -6.1615   C.3       1 RES1   0.0000
     7 C6        4.1864   -3.8319   -4.8379   C.3       1 RES1   0.0000
     8 C7        2.8811   -3.8145   -4.0234   C.3       1 RES1   0.0000
     9 C8        1.7372   -4.7509   -4.4624   C.3       1 RES1   0.0000
    10 C9        0.5579   -4.7231   -3.4459   C.3       1 RES1   0.0000
    11 C10      -0.8828   -4.7509   -4.0126   C.3       1 RES1   0.0000
    12 C11      -2.0135   -4.0412   -3.1986   C.3       1 RES1   0.0000
    13 C12      -1.6793   -2.5792   -2.8282   C.3       1 RES1   0.0000
    14 N1       -2.7444   -1.6496   -2.4134   N.am      1 RES1   0.0000
    15 C13      -3.5896   -1.0869   -3.4555   C.3       1 RES1   0.0000
    16 C14      -2.9097    0.0328   -4.2751   C.3       1 RES1   0.0000
    17 C15      -2.7644    1.4262   -3.6184   C.3       1 RES1   0.0000
    18 C16      -2.5638    2.6409   -4.5826   C.3       1 RES1   0.0000
    19 C17      -1.2502    3.4894   -4.6577   C.3       1 RES1   0.0000
    20 C18      -0.4113    3.7258   -3.3851   C.3       1 RES1   0.0000
    21 C19       1.1027    3.9812   -3.6013   C.3       1 RES1   0.0000
    22 C20       1.9857    3.4674   -2.4336   C.3       1 RES1   0.0000
    23 C21       3.0887    2.4543   -2.7756   C.3       1 RES1   0.0000
    24 C22       3.6724    1.8601   -1.4866   C.3       1 RES1   0.0000
    25 C23       4.8546    0.9100   -1.7047   C.3       1 RES1   0.0000
    26 C24       5.5357    0.5203   -0.3940   C.3       1 RES1   0.0000
    27 C25      -2.6210   -1.0376   -1.2396   C.2       1 RES1   0.0000
    28 O1       -1.6775   -1.2728   -0.4641   O.2       1 RES1   0.0000
    29 C26      -3.6646   -0.0315   -0.7503   C.3       1 RES1   0.0000
    30 O2       -3.1069    0.5073    0.4428   O.3       1 RES1   0.0000
    31 C27      -3.7309    1.6905    0.9249   C.3       1 RES1   0.0000
    32 C28      -5.1199    1.4449    1.5340   C.3       1 RES1   0.0000
    33 C29      -5.6707    2.7409    2.1477   C.3       1 RES1   0.0000
    34 C30      -4.5703    3.8106    2.2244   C.3       1 RES1   0.0000
    35 N2       -3.3239    3.2537    2.7220   N.am      1 RES1   0.0000
    36 C31      -2.9148    3.5399    4.0979   C.3       1 RES1   0.0000
    37 C32      -1.6790    4.4052    4.3158   C.3       1 RES1   0.0000
    38 C33      -1.8626    5.8841    3.9809   C.3       1 RES1   0.0000
    39 C34      -1.2267    6.8112    5.0218   C.3       1 RES1   0.0000
    40 C35       0.2991    6.7569    5.1217   C.3       1 RES1   0.0000
    41 C36       0.9954    7.0579    3.8015   C.3       1 RES1   0.0000
    42 C37      -2.8034    2.2507    2.0136   C.2       1 RES1   0.0000
    43 O3       -1.6860    1.7419    2.2168   O.2       1 RES1   0.0000
    44 H1        5.6689    2.7600   -6.8267   H         1 RES1   0.0000
    45 H2        6.8480    1.6741   -6.1014   H         1 RES1   0.0000
    46 H3        5.3989    2.1264   -5.2024   H         1 RES1   0.0000
    47 H4        5.4310    0.5096   -7.7941   H         1 RES1   0.0000
    48 H5        3.9906    0.9640   -6.8987   H         1 RES1   0.0000
    49 H6        5.2516   -0.3010   -4.8937   H         1 RES1   0.0000
    50 H7        6.1004   -1.0911   -6.2105   H         1 RES1   0.0000
    51 H8        3.4953   -1.2608   -7.0756   H         1 RES1   0.0000
    52 H9        3.2693   -1.2520   -5.3221   H         1 RES1   0.0000
    53 H10       5.0854   -3.2566   -6.6944   H         1 RES1   0.0000
    54 H11       3.3488   -3.4708   -6.7643   H         1 RES1   0.0000
    55 H12       4.9785   -3.4325   -4.2008   H         1 RES1   0.0000
    56 H13       4.4519   -4.8639   -5.0692   H         1 RES1   0.0000
    57 H14       2.5247   -2.7879   -4.0468   H         1 RES1   0.0000
    58 H15       3.1450   -4.0604   -2.9904   H         1 RES1   0.0000
    59 H16       2.1294   -5.7640   -4.5481   H         1 RES1   0.0000
    60 H17       1.3879   -4.4530   -5.4513   H         1 RES1   0.0000
    61 H18       0.6725   -3.8106   -2.8747   H         1 RES1   0.0000
    62 H19       0.6859   -5.5520   -2.7542   H         1 RES1   0.0000
    63 H20      -1.1994   -5.7909   -4.1186   H         1 RES1   0.0000
    64 H21      -0.8545   -4.3307   -5.0171   H         1 RES1   0.0000
    65 H22      -2.2480   -4.6077   -2.2933   H         1 RES1   0.0000
    66 H23      -2.9089   -4.0780   -3.8274   H         1 RES1   0.0000
    67 H24      -1.1900   -2.1290   -3.6902   H         1 RES1   0.0000
    68 H25      -1.0046   -2.5988   -1.9783   H         1 RES1   0.0000
    69 H26      -4.5284   -0.7396   -3.0276   H         1 RES1   0.0000
    70 H27      -3.8085   -1.9104   -4.1346   H         1 RES1   0.0000
    71 H28      -3.4907    0.1144   -5.1973   H         1 RES1   0.0000
    72 H29      -1.9302   -0.3500   -4.5318   H         1 RES1   0.0000
    73 H30      -1.9575    1.3869   -2.8805   H         1 RES1   0.0000
    74 H31      -3.7090    1.6222   -3.1008   H         1 RES1   0.0000
    75 H32      -3.3711    3.3307   -4.3347   H         1 RES1   0.0000
    76 H33      -2.7751    2.3174   -5.6067   H         1 RES1   0.0000
    77 H34      -1.5528    4.4586   -5.0482   H         1 RES1   0.0000
    78 H35      -0.6015    3.0717   -5.4160   H         1 RES1   0.0000
    79 H36      -0.5164    2.8655   -2.7260   H         1 RES1   0.0000
    80 H37      -0.8010    4.6034   -2.8687   H         1 RES1   0.0000
    81 H38       1.2460    5.0589   -3.7032   H         1 RES1   0.0000
    82 H39       1.4325    3.5322   -4.5366   H         1 RES1   0.0000
    83 H40       1.3472    2.9904   -1.6770   H         1 RES1   0.0000
    84 H41       2.4895    4.3137   -1.9618   H         1 RES1   0.0000
    85 H42       3.8823    2.9463   -3.3394   H         1 RES1   0.0000
    86 H43       2.6944    1.6483   -3.3959   H         1 RES1   0.0000
    87 H44       2.8718    1.3297   -0.9480   H         1 RES1   0.0000
    88 H45       4.0082    2.6766   -0.8427   H         1 RES1   0.0000
    89 H46       5.5959    1.3839   -2.3503   H         1 RES1   0.0000
    90 H47       4.5092    0.0014   -2.2087   H         1 RES1   0.0000
    91 H48       5.8869    1.4001    0.1416   H         1 RES1   0.0000
    92 H49       6.4088   -0.0983   -0.5868   H         1 RES1   0.0000
    93 H50       4.8536   -0.0273    0.2550   H         1 RES1   0.0000
    94 H51      -4.6057   -0.5589   -0.5368   H         1 RES1   0.0000
    95 H52      -3.8365    0.7669   -1.4758   H         1 RES1   0.0000
    96 H53      -3.8065    2.4035    0.0929   H         1 RES1   0.0000
    97 H54      -5.0362    0.6495    2.2751   H         1 RES1   0.0000
    98 H55      -5.7957    1.0937    0.7568   H         1 RES1   0.0000
    99 H56      -6.0689    2.5421    3.1416   H         1 RES1   0.0000
   100 H57      -6.4900    3.1375    1.5435   H         1 RES1   0.0000
   101 H58      -4.8844    4.6386    2.8574   H         1 RES1   0.0000
   102 H59      -4.3964    4.2165    1.2235   H         1 RES1   0.0000
   103 H60      -2.7359    2.5840    4.5868   H         1 RES1   0.0000
   104 H61      -3.7622    4.0164    4.5893   H         1 RES1   0.0000
   105 H62      -0.8289    3.9614    3.7970   H         1 RES1   0.0000
   106 H63      -1.4655    4.3430    5.3826   H         1 RES1   0.0000
   107 H64      -2.9279    6.1191    3.9523   H         1 RES1   0.0000
   108 H65      -1.4526    6.1101    2.9970   H         1 RES1   0.0000
   109 H66      -1.6497    6.5803    6.0012   H         1 RES1   0.0000
   110 H67      -1.5171    7.8347    4.7789   H         1 RES1   0.0000
   111 H68       0.6337    5.7899    5.5087   H         1 RES1   0.0000
   112 H69       0.6016    7.5058    5.8522   H         1 RES1   0.0000
   113 H70       0.8625    6.2348    3.1015   H         1 RES1   0.0000
   114 H71       2.0595    7.2024    3.9670   H         1 RES1   0.0000
   115 H72       0.5947    7.9665    3.3556   H         1 RES1   0.0000
   116 C38      -6.3601   -2.7375    7.4361   C.3       1 RES1   0.0000
   117 C39      -5.1164   -2.2855    8.1904   C.3       1 RES1   0.0000
   118 C40      -4.0290   -3.3602    8.1703   C.3       1 RES1   0.0000
   119 C41      -2.7005   -2.8799    8.7583   C.3       1 RES1   0.0000
   120 C42      -1.6505   -3.9919    8.8752   C.3       1 RES1   0.0000
   121 C43      -1.0974   -4.4788    7.5329   C.3       1 RES1   0.0000
   122 C44      -0.1333   -3.4848    6.8677   C.3       1 RES1   0.0000
   123 C45       1.3467   -3.8630    7.0032   C.3       1 RES1   0.0000
   124 C46       2.2430   -3.2429    5.9233   C.3       1 RES1   0.0000
   125 C47       2.1594   -1.7165    5.9025   C.3       1 RES1   0.0000
   126 C48       2.7450   -1.0665    4.6330   C.3       1 RES1   0.0000
   127 C49       1.6798   -0.4189    3.7349   C.3       1 RES1   0.0000
   128 N3        1.7723    1.0359    3.5299   N.am      1 RES1   0.0000
   129 C50       2.0568    1.8883    4.6764   C.3       1 RES1   0.0000
   130 C51       1.2236    1.5519    5.9109   C.3       1 RES1   0.0000
   131 C52      -0.2925    1.5644    5.6997   C.3       1 RES1   0.0000
   132 C53      -0.9742    0.6344    6.7035   C.3       1 RES1   0.0000
   133 C54      -2.4929    0.5563    6.5664   C.3       1 RES1   0.0000
   134 C55      -3.0013    0.0374    5.2211   C.3       1 RES1   0.0000
   135 C56      -2.4494   -1.3251    4.8117   C.3       1 RES1   0.0000
   136 C57      -2.8313   -1.6609    3.3661   C.3       1 RES1   0.0000
   137 C58      -4.2242   -2.2848    3.2770   C.3       1 RES1   0.0000
   138 C59      -4.7779   -2.3950    1.8480   C.3       1 RES1   0.0000
   139 C60      -4.7195   -3.7815    1.1965   C.3       1 RES1   0.0000
   140 C61      -5.6439   -3.8453   -0.0163   C.3       1 RES1   0.0000
   141 C62       1.5671    1.4829    2.3033   C.2       1 RES1   0.0000
   142 O4        1.4484    0.7210    1.3170   O.2       1 RES1   0.0000
   143 C63       1.4289    2.9718    1.9763   C.3       1 RES1   0.0000
   144 O5        0.5707    2.9872    0.8376   O.3       1 RES1   0.0000
   145 C64      -0.2129    4.1609    0.7075   C.3       1 RES1   0.0000
   146 C65       0.5483    5.3905    0.2241   C.3       1 RES1   0.0000
   147 C66      -0.4425    6.5422    0.2368   C.3       1 RES1   0.0000
   148 C67      -1.6439    6.2384   -0.6512   C.3       1 RES1   0.0000
   149 N4       -2.0638    4.8400   -0.7089   N.am      1 RES1   0.0000
   150 C68      -3.1482    4.5031   -1.6475   C.3       1 RES1   0.0000
   151 C69      -4.0187    5.6364   -2.1873   C.3       1 RES1   0.0000
   152 C70      -5.2806    5.9250   -1.3624   C.3       1 RES1   0.0000
   153 C71      -6.4630    6.2476   -2.2821   C.3       1 RES1   0.0000
   154 C72      -6.9929    4.9825   -2.9668   C.3       1 RES1   0.0000
   155 C73      -7.9656    4.2055   -2.0850   C.3       1 RES1   0.0000
   156 C74      -1.3307    3.8276   -0.2662   C.2       1 RES1   0.0000
   157 O6       -1.5605    2.6329   -0.5544   O.2       1 RES1   0.0000
   158 H73      -7.1235   -1.9657    7.4561   H         1 RES1   0.0000
   159 H74      -6.7743   -3.6332    7.8879   H         1 RES1   0.0000
   160 H75      -6.1229   -2.9617    6.3977   H         1 RES1   0.0000
   161 H76      -5.3799   -2.0574    9.2239   H         1 RES1   0.0000
   162 H77      -4.7354   -1.3644    7.7418   H         1 RES1   0.0000
   163 H78      -3.8770   -3.6857    7.1368   H         1 RES1   0.0000
   164 H79      -4.3755   -4.2231    8.7416   H         1 RES1   0.0000
   165 H80      -2.8848   -2.4865    9.7600   H         1 RES1   0.0000
   166 H81      -2.3131   -2.0585    8.1489   H         1 RES1   0.0000
   167 H82      -2.1116   -4.8356    9.3937   H         1 RES1   0.0000
   168 H83      -0.8212   -3.6390    9.4938   H         1 RES1   0.0000
   169 H84      -1.9379   -4.6749    6.8655   H         1 RES1   0.0000
   170 H85      -0.5911   -5.4302    7.6969   H         1 RES1   0.0000
   171 H86      -0.2915   -2.5078    7.3233   H         1 RES1   0.0000
   172 H87      -0.3899   -3.3936    5.8104   H         1 RES1   0.0000
   173 H88       1.4650   -4.9453    6.9368   H         1 RES1   0.0000
   174 H89       1.7015   -3.5659    7.9911   H         1 RES1   0.0000
   175 H90       1.9565   -3.6351    4.9436   H         1 RES1   0.0000
   176 H91       3.2707   -3.5553    6.1116   H         1 RES1   0.0000
   177 H92       2.6583   -1.3444    6.7974   H         1 RES1   0.0000
   178 H93       1.1049   -1.4582    5.9747   H         1 RES1   0.0000
   179 H94       3.2619   -1.8326    4.0560   H         1 RES1   0.0000
   180 H95       3.5000   -0.3338    4.9018   H         1 RES1   0.0000
   181 H96       0.6800   -0.6167    4.1360   H         1 RES1   0.0000
   182 H97       1.7170   -0.8619    2.7396   H         1 RES1   0.0000
   183 H98       1.9067    2.9284    4.3955   H         1 RES1   0.0000
   184 H99       3.1123    1.7636    4.9405   H         1 RES1   0.0000
   185 H100      1.4844    2.2796    6.6773   H         1 RES1   0.0000
   186 H101      1.5315    0.5804    6.2789   H         1 RES1   0.0000
   187 H102     -0.5480    1.2696    4.6780   H         1 RES1   0.0000
   188 H103     -0.6613    2.5754    5.8610   H         1 RES1   0.0000
   189 H104     -0.7421    0.9886    7.7084   H         1 RES1   0.0000
   190 H105     -0.5570   -0.3691    6.6150   H         1 RES1   0.0000
   191 H106     -2.9167    1.5448    6.7582   H         1 RES1   0.0000
   192 H107     -2.8593   -0.1033    7.3516   H         1 RES1   0.0000
   193 H108     -2.7388    0.7375    4.4261   H         1 RES1   0.0000
   194 H109     -4.0905   -0.0113    5.2756   H         1 RES1   0.0000
   195 H110     -2.8052   -2.0924    5.5030   H         1 RES1   0.0000
   196 H111     -1.3626   -1.3092    4.8868   H         1 RES1   0.0000
   197 H112     -2.0930   -2.3389    2.9460   H         1 RES1   0.0000
   198 H113     -2.7830   -0.7470    2.7554   H         1 RES1   0.0000
   199 H114     -4.2200   -3.2741    3.7370   H         1 RES1   0.0000
   200 H115     -4.9055   -1.6716    3.8690   H         1 RES1   0.0000
   201 H116     -4.2240   -1.7040    1.2120   H         1 RES1   0.0000
   202 H117     -5.8296   -2.0991    1.8764   H         1 RES1   0.0000
   203 H118     -5.0218   -4.5346    1.9201   H         1 RES1   0.0000
   204 H119     -3.6943   -4.0102    0.8896   H         1 RES1   0.0000
   205 H120     -6.6610   -3.5752    0.2601   H         1 RES1   0.0000
   206 H121     -5.6824   -4.8446   -0.4396   H         1 RES1   0.0000
   207 H122     -5.3102   -3.1605   -0.7944   H         1 RES1   0.0000
   208 H123      2.4086    3.4019    1.7218   H         1 RES1   0.0000
   209 H124      0.9779    3.5469    2.7912   H         1 RES1   0.0000
   210 H125     -0.7050    4.3854    1.6680   H         1 RES1   0.0000
   211 H126      0.9083    5.2253   -0.7912   H         1 RES1   0.0000
   212 H127      1.3954    5.5921    0.8809   H         1 RES1   0.0000
   213 H128      0.0205    7.4462   -0.1510   H         1 RES1   0.0000
   214 H129     -0.7565    6.7578    1.2571   H         1 RES1   0.0000
   215 H130     -1.3877    6.5273   -1.6765   H         1 RES1   0.0000
   216 H131     -2.4972    6.8313   -0.3175   H         1 RES1   0.0000
   217 H132     -3.8007    3.7784   -1.1503   H         1 RES1   0.0000
   218 H133     -2.6890    3.9764   -2.4829   H         1 RES1   0.0000
   219 H134     -4.3302    5.3254   -3.1856   H         1 RES1   0.0000
   220 H135     -3.4561    6.5538   -2.3281   H         1 RES1   0.0000
   221 H136     -5.1060    6.7540   -0.6741   H         1 RES1   0.0000
   222 H137     -5.5478    5.0450   -0.7709   H         1 RES1   0.0000
   223 H138     -6.1478    6.9772   -3.0297   H         1 RES1   0.0000
   224 H139     -7.2626    6.7057   -1.6994   H         1 RES1   0.0000
   225 H140     -6.1605    4.3246   -3.2313   H         1 RES1   0.0000
   226 H141     -7.4966    5.2501   -3.8952   H         1 RES1   0.0000
   227 H142     -8.8247    4.8269   -1.8438   H         1 RES1   0.0000
   228 H143     -7.4998    3.8937   -1.1487   H         1 RES1   0.0000
   229 H144     -8.3161    3.3139   -2.6024   H         1 RES1   0.0000
   230 C75      -6.2979    2.4055   -6.2602   C.3       1 RES1   0.0000
   231 C76      -5.4864    2.0904   -7.5148   C.3       1 RES1   0.0000
   232 C77      -4.7153    3.3058   -8.0305   C.3       1 RES1   0.0000
   233 C78      -3.8501    2.9489   -9.2366   C.3       1 RES1   0.0000
   234 C79      -3.2028    4.1518   -9.9256   C.3       1 RES1   0.0000
   235 C80      -2.2919    5.0087   -9.0429   C.3       1 RES1   0.0000
   236 C81      -1.2401    4.2234   -8.2615   C.3       1 RES1   0.0000
   237 C82      -0.2405    3.4772   -9.1435   C.3       1 RES1   0.0000
   238 C83       0.8313    2.7597   -8.3177   C.3       1 RES1   0.0000
   239 C84       0.2937    1.5598   -7.5338   C.3       1 RES1   0.0000
   240 C85       1.1710    1.1803   -6.3210   C.3       1 RES1   0.0000
   241 C86       0.3423    0.9269   -5.0378   C.3       1 RES1   0.0000
   242 N5        0.5274   -0.3593   -4.3599   N.am      1 RES1   0.0000
   243 C87       0.5448   -1.5046   -5.2858   C.3       1 RES1   0.0000
   244 C88      -0.4424   -1.3828   -6.4824   C.3       1 RES1   0.0000
   245 C89      -1.4493   -2.5221   -6.6130   C.3       1 RES1   0.0000
   246 C90      -2.5984   -2.1718   -7.5596   C.3       1 RES1   0.0000
   247 C91      -3.5045   -3.3745   -7.8391   C.3       1 RES1   0.0000
   248 C92      -4.3585   -3.8292   -6.6537   C.3       1 RES1   0.0000
   249 C93      -5.4989   -2.8553   -6.3648   C.3       1 RES1   0.0000
   250 C94      -6.2250   -3.1481   -5.0515   C.3       1 RES1   0.0000
   251 C95      -7.1815   -2.0151   -4.6600   C.3       1 RES1   0.0000
   252 C96      -7.4054   -1.9105   -3.1508   C.3       1 RES1   0.0000
   253 C97      -8.1121   -0.6076   -2.7702   C.3       1 RES1   0.0000
   254 C98      -8.0432   -0.3313   -1.2727   C.3       1 RES1   0.0000
   255 C99       0.5876   -0.3183   -3.0118   C.2       1 RES1   0.0000
   256 O7        0.0360    0.5821   -2.3360   O.2       1 RES1   0.0000
   257 C100      1.5118   -1.2393   -2.2263   C.3       1 RES1   0.0000
   258 O8        1.1931   -1.2545   -0.8318   O.3       1 RES1   0.0000
   259 C101      1.0765   -2.5850   -0.3251   C.3       1 RES1   0.0000
   260 C102      2.4168   -3.3012   -0.0598   C.3       1 RES1   0.0000
   261 C103      2.1107   -4.7695    0.2879   C.3       1 RES1   0.0000
   262 C104      0.6134   -4.9723    0.5487   C.3       1 RES1   0.0000
   263 N6        0.0964   -3.9100    1.3968   N.am      1 RES1   0.0000
   264 C105     -0.1253   -4.2666    2.8054   C.3       1 RES1   0.0000
   265 C106     -1.4491   -4.9114    3.2699   C.3       1 RES1   0.0000
   266 C107     -1.7713   -6.3558    2.8448   C.3       1 RES1   0.0000
   267 C108     -2.0826   -7.2926    4.0244   C.3       1 RES1   0.0000
   268 C109     -3.2596   -6.9452    4.9426   C.3       1 RES1   0.0000
   269 C110     -4.6324   -7.0511    4.2982   C.3       1 RES1   0.0000
   270 C111      0.2780   -2.6487    0.9802   C.2       1 RES1   0.0000
   271 O9       -0.0861   -1.6195    1.5710   O.2       1 RES1   0.0000
   272 H145     -6.9049    1.5496   -5.9647   H         1 RES1   0.0000
   273 H146     -6.9657    3.2442   -6.4469   H         1 RES1   0.0000
   274 H147     -5.6419    2.6706   -5.4291   H         1 RES1   0.0000
   275 H148     -6.1611    1.7381   -8.2965   H         1 RES1   0.0000
   276 H149     -4.7868    1.2736   -7.3048   H         1 RES1   0.0000
   277 H150     -4.0954    3.7086   -7.2257   H         1 RES1   0.0000
   278 H151     -5.4279    4.0810   -8.3121   H         1 RES1   0.0000
   279 H152     -4.4787    2.4459   -9.9734   H         1 RES1   0.0000
   280 H153     -3.0819    2.2356   -8.9290   H         1 RES1   0.0000
   281 H154     -3.9901    4.7947  -10.3233   H         1 RES1   0.0000
   282 H155     -2.6312    3.7869  -10.7796   H         1 RES1   0.0000
   283 H156     -2.9054    5.5701   -8.3351   H         1 RES1   0.0000
   284 H157     -1.7867    5.7377   -9.6779   H         1 RES1   0.0000
   285 H158     -1.7499    3.5211   -7.6021   H         1 RES1   0.0000
   286 H159     -0.6920    4.9261   -7.6271   H         1 RES1   0.0000
   287 H160      0.2627    4.1940   -9.7912   H         1 RES1   0.0000
   288 H161     -0.7551    2.7643   -9.7878   H         1 RES1   0.0000
   289 H162      1.2554    3.4810   -7.6160   H         1 RES1   0.0000
   290 H163      1.6265    2.4311   -8.9865   H         1 RES1   0.0000
   291 H164      0.1906    0.7210   -8.2201   H         1 RES1   0.0000
   292 H165     -0.7097    1.8072   -7.1853   H         1 RES1   0.0000
   293 H166      1.8467    2.0128   -6.1149   H         1 RES1   0.0000
   294 H167      1.8057    0.3367   -6.5760   H         1 RES1   0.0000
   295 H168     -0.7082    1.0438   -5.2819   H         1 RES1   0.0000
   296 H169      0.6011    1.6528   -4.2784   H         1 RES1   0.0000
   297 H170      0.3595   -2.4228   -4.7394   H         1 RES1   0.0000
   298 H171      1.5373   -1.5949   -5.7152   H         1 RES1   0.0000
   299 H172      0.1361   -1.3622   -7.4031   H         1 RES1   0.0000
   300 H173     -1.0088   -0.4601   -6.4616   H         1 RES1   0.0000
   301 H174     -1.8680   -2.7564   -5.6391   H         1 RES1   0.0000
   302 H175     -0.9476   -3.4068   -7.0058   H         1 RES1   0.0000
   303 H176     -2.1865   -1.8303   -8.5089   H         1 RES1   0.0000
   304 H177     -3.1856   -1.3476   -7.1472   H         1 RES1   0.0000
   305 H178     -2.8777   -4.2029   -8.1681   H         1 RES1   0.0000
   306 H179     -4.1704   -3.1258   -8.6666   H         1 RES1   0.0000
   307 H180     -3.7389   -3.9402   -5.7603   H         1 RES1   0.0000
   308 H181     -4.7689   -4.8136   -6.8801   H         1 RES1   0.0000
   309 H182     -6.1989   -2.8746   -7.1984   H         1 RES1   0.0000
   310 H183     -5.1001   -1.8404   -6.3114   H         1 RES1   0.0000
   311 H184     -5.4733   -3.2574   -4.2629   H         1 RES1   0.0000
   312 H185     -6.7455   -4.1025   -5.1193   H         1 RES1   0.0000
   313 H186     -8.1355   -2.1208   -5.1756   H         1 RES1   0.0000
   314 H187     -6.7414   -1.0660   -4.9795   H         1 RES1   0.0000
   315 H188     -6.4270   -1.9323   -2.6573   H         1 RES1   0.0000
   316 H189     -7.9705   -2.7614   -2.7723   H         1 RES1   0.0000
   317 H190     -9.1542   -0.6394   -3.0877   H         1 RES1   0.0000
   318 H191     -7.6412    0.2195   -3.3101   H         1 RES1   0.0000
   319 H192     -7.0033   -0.2870   -0.9443   H         1 RES1   0.0000
   320 H193     -8.5395   -1.1137   -0.7068   H         1 RES1   0.0000
   321 H194     -8.5270    0.6132   -1.0391   H         1 RES1   0.0000
   322 H195      2.5114   -0.7969   -2.3482   H         1 RES1   0.0000
   323 H196      1.5372   -2.2431   -2.6308   H         1 RES1   0.0000
   324 H197      0.5463   -3.1808   -1.0709   H         1 RES1   0.0000
   325 H198      2.9414   -2.8086    0.7615   H         1 RES1   0.0000
   326 H199      3.0495   -3.2246   -0.9470   H         1 RES1   0.0000
   327 H200      2.6678   -5.0526    1.1780   H         1 RES1   0.0000
   328 H201      2.4255   -5.4422   -0.5066   H         1 RES1   0.0000
   329 H202      0.4444   -5.9183    1.0538   H         1 RES1   0.0000
   330 H203      0.0538   -5.0006   -0.3862   H         1 RES1   0.0000
   331 H204     -0.0033   -3.3390    3.3688   H         1 RES1   0.0000
   332 H205      0.6966   -4.9416    3.0704   H         1 RES1   0.0000
   333 H206     -2.2832   -4.2624    3.0076   H         1 RES1   0.0000
   334 H207     -1.3511   -4.9145    4.3593   H         1 RES1   0.0000
   335 H208     -0.9249   -6.7900    2.3132   H         1 RES1   0.0000
   336 H209     -2.6158   -6.3612    2.1523   H         1 RES1   0.0000
   337 H210     -1.1909   -7.3837    4.6489   H         1 RES1   0.0000
   338 H211     -2.2815   -8.2744    3.5969   H         1 RES1   0.0000
   339 H212     -3.1403   -5.9397    5.3508   H         1 RES1   0.0000
   340 H213     -3.2209   -7.6391    5.7833   H         1 RES1   0.0000
   341 H214     -4.7312   -6.3493    3.4771   H         1 RES1   0.0000
   342 H215     -5.4034   -6.8191    5.0273   H         1 RES1   0.0000
   343 H216     -4.8075   -8.0533    3.9229   H         1 RES1   0.0000
@<TRIPOS>BOND
     1     1    28    1
     2     1    30    1
     3     1    43    1
     4     1   142    1
     5     1   144    1
     6     1   157    1
     7     1   256    1
     8     1   258    1
     9     1   271    1
    10     2     3    1
    11     2    44    1
    12     2    45    1
    13     2    46    1
    14     3     4    1
    15     3    47    1
    16     3    48    1
    17     4     5    1
    18     4    49    1
    19     4    50    1
    20     5     6    1
    21     5    51    1
    22     5    52    1
    23     6     7    1
    24     6    53    1
    25     6    54    1
    26     7     8    1
    27     7    55    1
    28     7    56    1
    29     8     9    1
    30     8    57    1
    31     8    58    1
    32     9    10    1
    33     9    59    1
    34     9    60    1
    35    10    11    1
    36    10    61    1
    37    10    62    1
    38    11    12    1
    39    11    63    1
    40    11    64    1
    41    12    13    1
    42    12    65    1
    43    12    66    1
    44    13    14    1
    45    13    67    1
    46    13    68    1
    47    14    15    1
    48    14    27    1
    49    15    16    1
    50    15    69    1
    51    15    70    1
    52    16    17    1
    53    16    71    1
    54    16    72    1
    55    17    18    1
    56    17    73    1
    57    17    74    1
    58    18    19    1
    59    18    75    1
    60    18    76    1
    61    19    20    1
    62    19    77    1
    63    19    78    1
    64    20    21    1
    65    20    79    1
    66    20    80    1
    67    21    22    1
    68    21    81    1
    69    21    82    1
    70    22    23    1
    71    22    83    1
    72    22    84    1
    73    23    24    1
    74    23    85    1
    75    23    86    1
    76    24    25    1
    77    24    87    1
    78    24    88    1
    79    25    26    1
    80    25    89    1
    81    25    90    1
    82    26    91    1
    83    26    92    1
    84    26    93    1
    85    27    28    2
    86    27    29    1
    87    29    30    1
    88    29    94    1
    89    29    95    1
    90    30    31    1
    91    31    32    1
    92    31    42    1
    93    31    96    1
    94    32    33    1
    95    32    97    1
    96    32    98    1
    97    33    34    1
    98    33    99    1
    99    33   100    1
   100    34    35    1
   101    34   101    1
   102    34   102    1
   103    35    36    1
   104    35    42    1
   105    36    37    1
   106    36   103    1
   107    36   104    1
   108    37    38    1
   109    37   105    1
   110    37   106    1
   111    38    39    1
   112    38   107    1
   113    38   108    1
   114    39    40    1
   115    39   109    1
   116    39   110    1
   117    40    41    1
   118    40   111    1
   119    40   112    1
   120    41   113    1
   121    41   114    1
   122    41   115    1
   123    42    43    2
   124   116   117    1
   125   116   158    1
   126   116   159    1
   127   116   160    1
   128   117   118    1
   129   117   161    1
   130   117   162    1
   131   118   119    1
   132   118   163    1
   133   118   164    1
   134   119   120    1
   135   119   165    1
   136   119   166    1
   137   120   121    1
   138   120   167    1
   139   120   168    1
   140   121   122    1
   141   121   169    1
   142   121   170    1
   143   122   123    1
   144   122   171    1
   145   122   172    1
   146   123   124    1
   147   123   173    1
   148   123   174    1
   149   124   125    1
   150   124   175    1
   151   124   176    1
   152   125   126    1
   153   125   177    1
   154   125   178    1
   155   126   127    1
   156   126   179    1
   157   126   180    1
   158   127   128    1
   159   127   181    1
   160   127   182    1
   161   128   129    1
   162   128   141    1
   163   129   130    1
   164   129   183    1
   165   129   184    1
   166   130   131    1
   167   130   185    1
   168   130   186    1
   169   131   132    1
   170   131   187    1
   171   131   188    1
   172   132   133    1
   173   132   189    1
   174   132   190    1
   175   133   134    1
   176   133   191    1
   177   133   192    1
   178   134   135    1
   179   134   193    1
   180   134   194    1
   181   135   136    1
   182   135   195    1
   183   135   196    1
   184   136   137    1
   185   136   197    1
   186   136   198    1
   187   137   138    1
   188   137   199    1
   189   137   200    1
   190   138   139    1
   191   138   201    1
   192   138   202    1
   193   139   140    1
   194   139   203    1
   195   139   204    1
   196   140   205    1
   197   140   206    1
   198   140   207    1
   199   141   142    2
   200   141   143    1
   201   143   144    1
   202   143   208    1
   203   143   209    1
   204   144   145    1
   205   145   146    1
   206   145   156    1
   207   145   210    1
   208   146   147    1
   209   146   211    1
   210   146   212    1
   211   147   148    1
   212   147   213    1
   213   147   214    1
   214   148   149    1
   215   148   215    1
   216   148   216    1
   217   149   150    1
   218   149   156    1
   219   150   151    1
   220   150   217    1
   221   150   218    1
   222   151   152    1
   223   151   219    1
   224   151   220    1
   225   152   153    1
   226   152   221    1
   227   152   222    1
   228   153   154    1
   229   153   223    1
   230   153   224    1
   231   154   155    1
   232   154   225    1
   233   154   226    1
   234   155   227    1
   235   155   228    1
   236   155   229    1
   237   156   157    2
   238   230   231    1
   239   230   272    1
   240   230   273    1
   241   230   274    1
   242   231   232    1
   243   231   275    1
   244   231   276    1
   245   232   233    1
   246   232   277    1
   247   232   278    1
   248   233   234    1
   249   233   279    1
   250   233   280    1
   251   234   235    1
   252   234   281    1
   253   234   282    1
   254   235   236    1
   255   235   283    1
   256   235   284    1
   257   236   237    1
   258   236   285    1
   259   236   286    1
   260   237   238    1
   261   237   287    1
   262   237   288    1
   263   238   239    1
   264   238   289    1
   265   238   290    1
   266   239   240    1
   267   239   291    1
   268   239   292    1
   269   240   241    1
   270   240   293    1
   271   240   294    1
   272   241   242    1
   273   241   295    1
   274   241   296    1
   275   242   243    1
   276   242   255    1
   277   243   244    1
   278   243   297    1
   279   243   298    1
   280   244   245    1
   281   244   299    1
   282   244   300    1
   283   245   246    1
   284   245   301    1
   285   245   302    1
   286   246   247    1
   287   246   303    1
   288   246   304    1
   289   247   248    1
   290   247   305    1
   291   247   306    1
   292   248   249    1
   293   248   307    1
   294   248   308    1
   295   249   250    1
   296   249   309    1
   297   249   310    1
   298   250   251    1
   299   250   311    1
   300   250   312    1
   301   251   252    1
   302   251   313    1
   303   251   314    1
   304   252   253    1
   305   252   315    1
   306   252   316    1
   307   253   254    1
   308   253   317    1
   309   253   318    1
   310   254   319    1
   311   254   320    1
   312   254   321    1
   313   255   256    2
   314   255   257    1
   315   257   258    1
   316   257   322    1
   317   257   323    1
   318   258   259    1
   319   259   260    1
   320   259   270    1
   321   259   324    1
   322   260   261    1
   323   260   325    1
   324   260   326    1
   325   261   262    1
   326   261   327    1
   327   261   328    1
   328   262   263    1
   329   262   329    1
   330   262   330    1
   331   263   264    1
   332   263   270    1
   333   264   265    1
   334   264   331    1
   335   264   332    1
   336   265   266    1
   337   265   333    1
   338   265   334    1
   339   266   267    1
   340   266   335    1
   341   266   336    1
   342   267   268    1
   343   267   337    1
   344   267   338    1
   345   268   269    1
   346   268   339    1
   347   268   340    1
   348   269   341    1
   349   269   342    1
   350   269   343    1
   351   270   271    2
@<TRIPOS>SUBSTRUCTURE
     1 RES1      343 GROUP             0 ****  ****    0  
