@<TRIPOS>MOLECULE
am_c3_9H2O_c0_0_nunpairedes_0_charge_3 Charge: 3 Unpaired_Electrons: 3 XTB_Unpaired_Electrons: 0 XTB_Charge: 3
   344   347     1     0     0
SMALL
NoCharges
****
Generated from Architector

@<TRIPOS>ATOM
     1 Nd1      -0.0714    0.0632   -0.0509   Nd        1 RES1   0.0000
     2 C1        4.5518   -1.5928    4.1457   C.3       1 RES1   0.0000
     3 C2        4.5440   -0.3960    5.1024   C.3       1 RES1   0.0000
     4 C3        4.0781   -0.6738    6.5439   C.3       1 RES1   0.0000
     5 C4        2.9934   -1.7377    6.7216   C.3       1 RES1   0.0000
     6 C5        1.7222   -1.5366    5.8822   C.3       1 RES1   0.0000
     7 C6        1.3420   -2.8397    5.1786   C.3       1 RES1   0.0000
     8 C7        0.2617   -2.6659    4.1064   C.3       1 RES1   0.0000
     9 C8        0.3887   -3.7884    3.0724   C.3       1 RES1   0.0000
    10 N1       -0.8174   -4.0212    2.2911   N.am      1 RES1   0.0000
    11 C9       -1.5105   -5.2675    2.5480   C.3       1 RES1   0.0000
    12 C10      -1.1190   -3.1381    1.3354   C.2       1 RES1   0.0000
    13 O1       -0.4128   -2.1279    1.1634   O.2       1 RES1   0.0000
    14 C11      -2.3177   -3.4722    0.4406   C.3       1 RES1   0.0000
    15 C12      -1.8439   -4.4772   -0.6471   C.3       1 RES1   0.0000
    16 C13      -0.4246   -4.1945   -1.1440   C.3       1 RES1   0.0000
    17 C14      -0.0626   -5.0029   -2.3931   C.3       1 RES1   0.0000
    18 C15      -0.0545   -6.5208   -2.2008   C.3       1 RES1   0.0000
    19 C16       1.1371   -7.0673   -1.4106   C.3       1 RES1   0.0000
    20 C17       0.9766   -7.0711    0.1056   C.3       1 RES1   0.0000
    21 C18      -2.9311   -2.2112   -0.1650   C.2       1 RES1   0.0000
    22 O2       -2.2641   -1.1692   -0.3246   O.2       1 RES1   0.0000
    23 N2       -4.2291   -2.2125   -0.5073   N.am      1 RES1   0.0000
    24 C19      -4.7829   -0.9121   -0.8507   C.3       1 RES1   0.0000
    25 C20      -5.1616   -3.3326   -0.4929   C.3       1 RES1   0.0000
    26 C21      -5.2609   -4.1492   -1.7930   C.3       1 RES1   0.0000
    27 C22      -5.9308   -3.4919   -3.0014   C.3       1 RES1   0.0000
    28 C23      -6.0887   -4.5298   -4.1292   C.3       1 RES1   0.0000
    29 C24      -6.3144   -3.9459   -5.5391   C.3       1 RES1   0.0000
    30 C25      -5.0460   -3.9853   -6.4005   C.3       1 RES1   0.0000
    31 C26      -5.2681   -3.4319   -7.8082   C.3       1 RES1   0.0000
    32 C27      -3.9948   -3.4409   -8.6473   C.3       1 RES1   0.0000
    33 H1        5.3160   -1.4594    3.3788   H         1 RES1   0.0000
    34 H2        3.5867   -1.7034    3.6474   H         1 RES1   0.0000
    35 H3        4.7856   -2.5160    4.6680   H         1 RES1   0.0000
    36 H4        3.8996    0.3649    4.6665   H         1 RES1   0.0000
    37 H5        5.5554    0.0182    5.1577   H         1 RES1   0.0000
    38 H6        3.7302    0.2707    6.9710   H         1 RES1   0.0000
    39 H7        4.9390   -0.9943    7.1337   H         1 RES1   0.0000
    40 H8        2.7366   -1.7734    7.7801   H         1 RES1   0.0000
    41 H9        3.4265   -2.7090    6.4831   H         1 RES1   0.0000
    42 H10       1.8869   -0.7720    5.1240   H         1 RES1   0.0000
    43 H11       0.8985   -1.1998    6.5154   H         1 RES1   0.0000
    44 H12       1.0189   -3.5651    5.9284   H         1 RES1   0.0000
    45 H13       2.2364   -3.2446    4.6964   H         1 RES1   0.0000
    46 H14       0.3821   -1.6979    3.6086   H         1 RES1   0.0000
    47 H15      -0.7281   -2.6818    4.5629   H         1 RES1   0.0000
    48 H16       0.6375   -4.7239    3.5705   H         1 RES1   0.0000
    49 H17       1.2004   -3.5332    2.3861   H         1 RES1   0.0000
    50 H18      -1.2158   -5.6336    3.5282   H         1 RES1   0.0000
    51 H19      -1.2489   -6.0212    1.8040   H         1 RES1   0.0000
    52 H20      -2.5906   -5.1474    2.5645   H         1 RES1   0.0000
    53 H21      -3.0823   -3.9759    1.0379   H         1 RES1   0.0000
    54 H22      -2.5413   -4.4335   -1.4837   H         1 RES1   0.0000
    55 H23      -1.8954   -5.4911   -0.2462   H         1 RES1   0.0000
    56 H24       0.2921   -4.4540   -0.3655   H         1 RES1   0.0000
    57 H25      -0.3218   -3.1216   -1.3561   H         1 RES1   0.0000
    58 H26       0.9311   -4.6906   -2.7203   H         1 RES1   0.0000
    59 H27      -0.7548   -4.7675   -3.2069   H         1 RES1   0.0000
    60 H28      -0.0362   -6.9686   -3.1961   H         1 RES1   0.0000
    61 H29      -0.9838   -6.8424   -1.7342   H         1 RES1   0.0000
    62 H30       2.0305   -6.5046   -1.6835   H         1 RES1   0.0000
    63 H31       1.2959   -8.0973   -1.7263   H         1 RES1   0.0000
    64 H32       0.9806   -6.0669    0.5228   H         1 RES1   0.0000
    65 H33       1.7988   -7.6183    0.5594   H         1 RES1   0.0000
    66 H34       0.0522   -7.5705    0.3867   H         1 RES1   0.0000
    67 H35      -4.7127   -0.2531    0.0147   H         1 RES1   0.0000
    68 H36      -4.2227   -0.4265   -1.6488   H         1 RES1   0.0000
    69 H37      -5.8192   -1.0219   -1.1470   H         1 RES1   0.0000
    70 H38      -6.1445   -2.9284   -0.2456   H         1 RES1   0.0000
    71 H39      -4.8960   -4.0164    0.3143   H         1 RES1   0.0000
    72 H40      -5.8336   -5.0422   -1.5374   H         1 RES1   0.0000
    73 H41      -4.2697   -4.4806   -2.0995   H         1 RES1   0.0000
    74 H42      -5.3431   -2.6465   -3.3562   H         1 RES1   0.0000
    75 H43      -6.9137   -3.1112   -2.7234   H         1 RES1   0.0000
    76 H44      -6.9223   -5.1866   -3.8776   H         1 RES1   0.0000
    77 H45      -5.1951   -5.1593   -4.1687   H         1 RES1   0.0000
    78 H46      -6.6787   -2.9179   -5.4650   H         1 RES1   0.0000
    79 H47      -7.0898   -4.5163   -6.0554   H         1 RES1   0.0000
    80 H48      -4.6967   -5.0185   -6.4793   H         1 RES1   0.0000
    81 H49      -4.2555   -3.4135   -5.9075   H         1 RES1   0.0000
    82 H50      -5.6565   -2.4121   -7.7451   H         1 RES1   0.0000
    83 H51      -6.0202   -4.0440   -8.3078   H         1 RES1   0.0000
    84 H52      -3.2248   -2.7998   -8.2208   H         1 RES1   0.0000
    85 H53      -4.2059   -3.0868   -9.6516   H         1 RES1   0.0000
    86 H54      -3.5910   -4.4466   -8.7273   H         1 RES1   0.0000
    87 C28      -4.2973   -3.8117    4.4921   C.3       1 RES1   0.0000
    88 C29      -3.9733   -4.2560    5.9148   C.3       1 RES1   0.0000
    89 C30      -2.9580   -3.3635    6.6325   C.3       1 RES1   0.0000
    90 C31      -3.3836   -1.8945    6.7638   C.3       1 RES1   0.0000
    91 C32      -2.8721   -0.9957    5.6328   C.3       1 RES1   0.0000
    92 C33      -3.4004    0.4282    5.7824   C.3       1 RES1   0.0000
    93 C34      -2.7942    1.4044    4.7734   C.3       1 RES1   0.0000
    94 C35      -3.3650    1.2636    3.3600   C.3       1 RES1   0.0000
    95 N3       -3.1414    2.4716    2.5721   N.am      1 RES1   0.0000
    96 C36      -3.8623    3.6446    3.0353   C.3       1 RES1   0.0000
    97 C37      -2.2839    2.4413    1.5452   C.2       1 RES1   0.0000
    98 O3       -1.7560    1.3679    1.1923   O.2       1 RES1   0.0000
    99 C38      -1.9943    3.7882    0.8647   C.3       1 RES1   0.0000
   100 C39      -3.0964    4.1609   -0.1627   C.3       1 RES1   0.0000
   101 C40      -3.7717    2.9713   -0.8417   C.3       1 RES1   0.0000
   102 C41      -4.8772    3.4348   -1.7911   C.3       1 RES1   0.0000
   103 C42      -6.1092    4.0313   -1.1045   C.3       1 RES1   0.0000
   104 C43      -6.9992    3.0192   -0.3724   C.3       1 RES1   0.0000
   105 C44      -6.6710    2.7927    1.0987   C.3       1 RES1   0.0000
   106 C45      -0.5625    3.8385    0.3021   C.2       1 RES1   0.0000
   107 O4        0.1066    2.8040    0.1229   O.2       1 RES1   0.0000
   108 N4       -0.0036    5.0575    0.1352   N.am      1 RES1   0.0000
   109 C46       1.4445    5.1324    0.0959   C.3       1 RES1   0.0000
   110 C47      -0.6080    6.3876    0.1555   C.3       1 RES1   0.0000
   111 C48      -0.8133    7.1124   -1.2000   C.3       1 RES1   0.0000
   112 C49       0.3711    7.2735   -2.1723   C.3       1 RES1   0.0000
   113 C50      -0.0820    7.9226   -3.4926   C.3       1 RES1   0.0000
   114 C51       0.9396    7.9013   -4.6472   C.3       1 RES1   0.0000
   115 C52       1.1871    6.4873   -5.1991   C.3       1 RES1   0.0000
   116 C53       1.3309    6.4198   -6.7219   C.3       1 RES1   0.0000
   117 C54       1.4619    4.9843   -7.2258   C.3       1 RES1   0.0000
   118 H55      -4.8276   -4.6038    3.9664   H         1 RES1   0.0000
   119 H56      -3.3820   -3.5738    3.9508   H         1 RES1   0.0000
   120 H57      -4.9355   -2.9317    4.5011   H         1 RES1   0.0000
   121 H58      -3.5722   -5.2719    5.8953   H         1 RES1   0.0000
   122 H59      -4.8963   -4.2832    6.4956   H         1 RES1   0.0000
   123 H60      -1.9936   -3.4161    6.1192   H         1 RES1   0.0000
   124 H61      -2.8075   -3.7754    7.6326   H         1 RES1   0.0000
   125 H62      -3.0035   -1.4938    7.7077   H         1 RES1   0.0000
   126 H63      -4.4740   -1.8437    6.8079   H         1 RES1   0.0000
   127 H64      -3.1726   -1.3944    4.6622   H         1 RES1   0.0000
   128 H65      -1.7781   -0.9630    5.6627   H         1 RES1   0.0000
   129 H66      -3.1611    0.7793    6.7900   H         1 RES1   0.0000
   130 H67      -4.4887    0.4296    5.6847   H         1 RES1   0.0000
   131 H68      -1.7110    1.2725    4.7477   H         1 RES1   0.0000
   132 H69      -2.9973    2.4138    5.1289   H         1 RES1   0.0000
   133 H70      -4.4429    1.0846    3.4110   H         1 RES1   0.0000
   134 H71      -2.8842    0.4346    2.8394   H         1 RES1   0.0000
   135 H72      -4.6081    3.3291    3.7629   H         1 RES1   0.0000
   136 H73      -4.3872    4.1462    2.2258   H         1 RES1   0.0000
   137 H74      -3.2030    4.3655    3.5234   H         1 RES1   0.0000
   138 H75      -2.0199    4.5490    1.6521   H         1 RES1   0.0000
   139 H76      -2.6507    4.8025   -0.9226   H         1 RES1   0.0000
   140 H77      -3.8709    4.7518    0.3293   H         1 RES1   0.0000
   141 H78      -4.2108    2.3010   -0.1022   H         1 RES1   0.0000
   142 H79      -3.0288    2.4070   -1.4052   H         1 RES1   0.0000
   143 H80      -5.1954    2.5820   -2.3928   H         1 RES1   0.0000
   144 H81      -4.4630    4.1785   -2.4773   H         1 RES1   0.0000
   145 H82      -6.7047    4.5116   -1.8843   H         1 RES1   0.0000
   146 H83      -5.8040    4.8186   -0.4155   H         1 RES1   0.0000
   147 H84      -6.9665    2.0672   -0.9021   H         1 RES1   0.0000
   148 H85      -8.0235    3.3856   -0.4194   H         1 RES1   0.0000
   149 H86      -5.7099    2.3014    1.2268   H         1 RES1   0.0000
   150 H87      -7.4322    2.1610    1.5507   H         1 RES1   0.0000
   151 H88      -6.6646    3.7386    1.6355   H         1 RES1   0.0000
   152 H89       1.8332    4.1279    0.0536   H         1 RES1   0.0000
   153 H90       1.7950    5.6189    1.0105   H         1 RES1   0.0000
   154 H91       1.8003    5.6892   -0.7656   H         1 RES1   0.0000
   155 H92       0.0433    7.0082    0.7768   H         1 RES1   0.0000
   156 H93      -1.5802    6.3494    0.6458   H         1 RES1   0.0000
   157 H94      -1.1618    8.1124   -0.9354   H         1 RES1   0.0000
   158 H95      -1.6448    6.6441   -1.7290   H         1 RES1   0.0000
   159 H96       0.8158    6.3108   -2.4137   H         1 RES1   0.0000
   160 H97       1.1448    7.8975   -1.7254   H         1 RES1   0.0000
   161 H98      -0.3610    8.9592   -3.2962   H         1 RES1   0.0000
   162 H99      -0.9751    7.4041   -3.8521   H         1 RES1   0.0000
   163 H100      1.8802    8.3692   -4.3462   H         1 RES1   0.0000
   164 H101      0.5233    8.5130   -5.4532   H         1 RES1   0.0000
   165 H102      0.3303    5.8753   -4.9286   H         1 RES1   0.0000
   166 H103      2.0732    6.0485   -4.7321   H         1 RES1   0.0000
   167 H104      2.2031    6.9927   -7.0375   H         1 RES1   0.0000
   168 H105      0.4500    6.8678   -7.1871   H         1 RES1   0.0000
   169 H106      2.3442    4.4994   -6.8114   H         1 RES1   0.0000
   170 H107      1.5550    4.9761   -8.3081   H         1 RES1   0.0000
   171 H108      0.5841    4.3940   -6.9625   H         1 RES1   0.0000
   172 C55      -1.4546    5.5528    5.7782   C.3       1 RES1   0.0000
   173 C56      -1.9046    5.2029    7.1907   C.3       1 RES1   0.0000
   174 C57      -1.6793    3.7352    7.5588   C.3       1 RES1   0.0000
   175 C58      -0.2074    3.3249    7.7340   C.3       1 RES1   0.0000
   176 C59       0.3189    2.3146    6.7055   C.3       1 RES1   0.0000
   177 C60       0.7486    2.9418    5.3747   C.3       1 RES1   0.0000
   178 C61       1.5276    1.9390    4.5276   C.3       1 RES1   0.0000
   179 C62       2.1304    2.5818    3.2787   C.3       1 RES1   0.0000
   180 N5        3.1471    1.7564    2.6392   N.am      1 RES1   0.0000
   181 C63       4.5272    2.1095    2.8969   C.3       1 RES1   0.0000
   182 C64       2.7209    0.8202    1.7968   C.2       1 RES1   0.0000
   183 O5        1.5055    0.5532    1.7190   O.2       1 RES1   0.0000
   184 C65       3.7727    0.1572    0.8960   C.3       1 RES1   0.0000
   185 C66       4.3821    1.2370   -0.0414   C.3       1 RES1   0.0000
   186 C67       3.5319    2.4816   -0.3045   C.3       1 RES1   0.0000
   187 C68       4.1786    3.3788   -1.3733   C.3       1 RES1   0.0000
   188 C69       5.4423    4.1279   -0.9409   C.3       1 RES1   0.0000
   189 C70       5.2474    5.4566   -0.2094   C.3       1 RES1   0.0000
   190 C71       5.0768    5.3316    1.2980   C.3       1 RES1   0.0000
   191 C72       3.1098   -0.9845    0.1133   C.2       1 RES1   0.0000
   192 O6        1.9417   -0.8657   -0.3040   O.2       1 RES1   0.0000
   193 N6        3.7124   -2.1731   -0.0463   N.am      1 RES1   0.0000
   194 C73       2.7876   -3.2612   -0.3169   C.3       1 RES1   0.0000
   195 C74       5.1182   -2.5278    0.0424   C.3       1 RES1   0.0000
   196 C75       5.8079   -2.9443   -1.2820   C.3       1 RES1   0.0000
   197 C76       4.9817   -3.6540   -2.3563   C.3       1 RES1   0.0000
   198 C77       5.8205   -3.8359   -3.6278   C.3       1 RES1   0.0000
   199 C78       5.0552   -4.3850   -4.8420   C.3       1 RES1   0.0000
   200 C79       4.1528   -3.3605   -5.5412   C.3       1 RES1   0.0000
   201 C80       3.6305   -3.8911   -6.8788   C.3       1 RES1   0.0000
   202 C81       2.7227   -2.9072   -7.6082   C.3       1 RES1   0.0000
   203 H109     -1.8185    6.5393    5.5019   H         1 RES1   0.0000
   204 H110     -1.8499    4.8249    5.0691   H         1 RES1   0.0000
   205 H111     -0.3706    5.5553    5.7059   H         1 RES1   0.0000
   206 H112     -2.9718    5.4144    7.2833   H         1 RES1   0.0000
   207 H113     -1.3826    5.8418    7.9033   H         1 RES1   0.0000
   208 H114     -2.1364    3.1077    6.7948   H         1 RES1   0.0000
   209 H115     -2.2101    3.5391    8.4923   H         1 RES1   0.0000
   210 H116     -0.0843    2.8767    8.7217   H         1 RES1   0.0000
   211 H117      0.4212    4.2150    7.7145   H         1 RES1   0.0000
   212 H118      1.1852    1.8084    7.1421   H         1 RES1   0.0000
   213 H119     -0.4402    1.5483    6.5302   H         1 RES1   0.0000
   214 H120     -0.1232    3.2953    4.8196   H         1 RES1   0.0000
   215 H121      1.3958    3.7979    5.5863   H         1 RES1   0.0000
   216 H122      0.8667    1.1229    4.2259   H         1 RES1   0.0000
   217 H123      2.3220    1.5270    5.1522   H         1 RES1   0.0000
   218 H124      2.5972    3.5354    3.5250   H         1 RES1   0.0000
   219 H125      1.3393    2.7484    2.5409   H         1 RES1   0.0000
   220 H126      4.5816    2.5594    3.8844   H         1 RES1   0.0000
   221 H127      4.9038    2.8309    2.1731   H         1 RES1   0.0000
   222 H128      5.1873    1.2470    2.8947   H         1 RES1   0.0000
   223 H129      4.5752   -0.2521    1.5195   H         1 RES1   0.0000
   224 H130      4.5448    0.7555   -0.9987   H         1 RES1   0.0000
   225 H131      5.3560    1.5465    0.3396   H         1 RES1   0.0000
   226 H132      3.4164    3.0707    0.6043   H         1 RES1   0.0000
   227 H133      2.5404    2.1462   -0.6490   H         1 RES1   0.0000
   228 H134      3.4459    4.1025   -1.7310   H         1 RES1   0.0000
   229 H135      4.4607    2.7606   -2.2209   H         1 RES1   0.0000
   230 H136      6.0099    4.3324   -1.8507   H         1 RES1   0.0000
   231 H137      6.0572    3.4814   -0.3221   H         1 RES1   0.0000
   232 H138      4.3998    5.9943   -0.6340   H         1 RES1   0.0000
   233 H139      6.1397    6.0562   -0.3889   H         1 RES1   0.0000
   234 H140      4.1295    4.8710    1.5668   H         1 RES1   0.0000
   235 H141      5.1034    6.3161    1.7542   H         1 RES1   0.0000
   236 H142      5.8947    4.7528    1.7214   H         1 RES1   0.0000
   237 H143      1.9818   -3.2110    0.4174   H         1 RES1   0.0000
   238 H144      3.2957   -4.2141   -0.2372   H         1 RES1   0.0000
   239 H145      2.3200   -3.1753   -1.2951   H         1 RES1   0.0000
   240 H146      5.1915   -3.3399    0.7713   H         1 RES1   0.0000
   241 H147      5.6613   -1.6717    0.4412   H         1 RES1   0.0000
   242 H148      6.6418   -3.5849   -0.9994   H         1 RES1   0.0000
   243 H149      6.2521   -2.0726   -1.7545   H         1 RES1   0.0000
   244 H150      4.1007   -3.0627   -2.6057   H         1 RES1   0.0000
   245 H151      4.6542   -4.6353   -2.0154   H         1 RES1   0.0000
   246 H152      6.6445   -4.5178   -3.4105   H         1 RES1   0.0000
   247 H153      6.2606   -2.8782   -3.9122   H         1 RES1   0.0000
   248 H154      4.4640   -5.2557   -4.5472   H         1 RES1   0.0000
   249 H155      5.7922   -4.7244   -5.5762   H         1 RES1   0.0000
   250 H156      4.7378   -2.4568   -5.7344   H         1 RES1   0.0000
   251 H157      3.3136   -3.0923   -4.8887   H         1 RES1   0.0000
   252 H158      3.0905   -4.8243   -6.7098   H         1 RES1   0.0000
   253 H159      4.4845   -4.1108   -7.5207   H         1 RES1   0.0000
   254 H160      1.8330   -2.6842   -7.0181   H         1 RES1   0.0000
   255 H161      2.3951   -3.3336   -8.5511   H         1 RES1   0.0000
   256 H162      3.2513   -1.9824   -7.8341   H         1 RES1   0.0000
   257 C82       8.3080    2.4207    0.6078   C.3       1 RES1   0.0000
   258 C83       9.1142    1.1330    0.6589   C.3       1 RES1   0.0000
   259 C84       8.4352   -0.0385   -0.0541   C.3       1 RES1   0.0000
   260 C85       8.2214    0.1254   -1.5756   C.3       1 RES1   0.0000
   261 C86       6.7733    0.4824   -1.9307   C.3       1 RES1   0.0000
   262 C87       6.3894    0.2713   -3.4037   C.3       1 RES1   0.0000
   263 C88       4.9500   -0.2371   -3.6273   C.3       1 RES1   0.0000
   264 C89       3.8506    0.8324   -3.6299   C.3       1 RES1   0.0000
   265 N7        2.6715    0.4065   -4.3652   N.am      1 RES1   0.0000
   266 C90       2.8462    0.2124   -5.7889   C.3       1 RES1   0.0000
   267 C91       1.5044    0.2610   -3.7361   C.2       1 RES1   0.0000
   268 O7        1.3654    0.5138   -2.5210   O.2       1 RES1   0.0000
   269 C92       0.3208   -0.1658   -4.6014   C.3       1 RES1   0.0000
   270 C93      -0.2982    1.0950   -5.2775   C.3       1 RES1   0.0000
   271 C94      -1.4928    1.7007   -4.5385   C.3       1 RES1   0.0000
   272 C95      -1.9848    2.9882   -5.2098   C.3       1 RES1   0.0000
   273 C96      -1.7962    4.2572   -4.3631   C.3       1 RES1   0.0000
   274 C97      -0.8759    4.1652   -3.1408   C.3       1 RES1   0.0000
   275 C98       0.5686    3.6910   -3.3424   C.3       1 RES1   0.0000
   276 C99      -0.6786   -0.9806   -3.7882   C.2       1 RES1   0.0000
   277 O8       -0.5225   -1.1939   -2.5698   O.2       1 RES1   0.0000
   278 N8       -1.7329   -1.5142   -4.4123   N.am      1 RES1   0.0000
   279 C100     -2.5587   -2.3731   -3.5829   C.3       1 RES1   0.0000
   280 C101     -2.0976   -1.4513   -5.8182   C.3       1 RES1   0.0000
   281 C102     -3.2774   -0.5212   -6.1880   C.3       1 RES1   0.0000
   282 C103     -4.4705   -0.4584   -5.2298   C.3       1 RES1   0.0000
   283 C104     -5.5218    0.5364   -5.7464   C.3       1 RES1   0.0000
   284 C105     -6.9543    0.2183   -5.2985   C.3       1 RES1   0.0000
   285 C106     -7.2346    0.4519   -3.8131   C.3       1 RES1   0.0000
   286 C107     -8.6519    0.0059   -3.4498   C.3       1 RES1   0.0000
   287 C108     -9.0109    0.2822   -1.9959   C.3       1 RES1   0.0000
   288 H163      8.7743    3.1902    1.2169   H         1 RES1   0.0000
   289 H164      7.3059    2.2440    0.9996   H         1 RES1   0.0000
   290 H165      8.2408    2.7906   -0.4119   H         1 RES1   0.0000
   291 H166      9.2598    0.8496    1.7047   H         1 RES1   0.0000
   292 H167     10.0985    1.3047    0.2257   H         1 RES1   0.0000
   293 H168      7.4735   -0.2204    0.4400   H         1 RES1   0.0000
   294 H169      9.0501   -0.9232    0.1216   H         1 RES1   0.0000
   295 H170      8.4833   -0.8178   -2.0641   H         1 RES1   0.0000
   296 H171      8.8886    0.8922   -1.9675   H         1 RES1   0.0000
   297 H172      6.5834    1.5163   -1.6433   H         1 RES1   0.0000
   298 H173      6.1424   -0.1684   -1.3286   H         1 RES1   0.0000
   299 H174      7.0676   -0.4693   -3.8345   H         1 RES1   0.0000
   300 H175      6.5530    1.1932   -3.9636   H         1 RES1   0.0000
   301 H176      4.6971   -0.9842   -2.8736   H         1 RES1   0.0000
   302 H177      4.9360   -0.7404   -4.5943   H         1 RES1   0.0000
   303 H178      4.2165    1.7553   -4.0905   H         1 RES1   0.0000
   304 H179      3.4948    1.0277   -2.6223   H         1 RES1   0.0000
   305 H180      3.8510    0.5167   -6.0651   H         1 RES1   0.0000
   306 H181      2.1440    0.8035   -6.3751   H         1 RES1   0.0000
   307 H182      2.7351   -0.8366   -6.0530   H         1 RES1   0.0000
   308 H183      0.7008   -0.8253   -5.3883   H         1 RES1   0.0000
   309 H184     -0.5972    0.8430   -6.2970   H         1 RES1   0.0000
   310 H185      0.4863    1.8501   -5.3618   H         1 RES1   0.0000
   311 H186     -1.2210    1.9164   -3.5178   H         1 RES1   0.0000
   312 H187     -2.3117    0.9938   -4.5031   H         1 RES1   0.0000
   313 H188     -3.0503    2.8965   -5.4272   H         1 RES1   0.0000
   314 H189     -1.4717    3.1101   -6.1658   H         1 RES1   0.0000
   315 H190     -2.7697    4.5847   -3.9870   H         1 RES1   0.0000
   316 H191     -1.4476    5.0567   -5.0148   H         1 RES1   0.0000
   317 H192     -1.3508    3.5500   -2.3793   H         1 RES1   0.0000
   318 H193     -0.8322    5.1690   -2.7419   H         1 RES1   0.0000
   319 H194      0.7084    2.6485   -3.0777   H         1 RES1   0.0000
   320 H195      1.2385    4.2433   -2.6863   H         1 RES1   0.0000
   321 H196      0.9011    3.8432   -4.3637   H         1 RES1   0.0000
   322 H197     -1.9209   -3.1025   -3.0904   H         1 RES1   0.0000
   323 H198     -3.3020   -2.8821   -4.1882   H         1 RES1   0.0000
   324 H199     -3.0325   -1.7893   -2.7971   H         1 RES1   0.0000
   325 H200     -2.3382   -2.4805   -6.0994   H         1 RES1   0.0000
   326 H201     -1.2328   -1.1620   -6.4142   H         1 RES1   0.0000
   327 H202     -3.6446   -0.8755   -7.1502   H         1 RES1   0.0000
   328 H203     -2.9253    0.4957   -6.3529   H         1 RES1   0.0000
   329 H204     -4.1579   -0.1551   -4.2282   H         1 RES1   0.0000
   330 H205     -4.9470   -1.4318   -5.1543   H         1 RES1   0.0000
   331 H206     -5.5133    0.5178   -6.8384   H         1 RES1   0.0000
   332 H207     -5.2627    1.5509   -5.4331   H         1 RES1   0.0000
   333 H208     -7.1801   -0.8240   -5.5425   H         1 RES1   0.0000
   334 H209     -7.6462    0.8364   -5.8768   H         1 RES1   0.0000
   335 H210     -7.1178    1.5145   -3.5840   H         1 RES1   0.0000
   336 H211     -6.5096   -0.1027   -3.2099   H         1 RES1   0.0000
   337 H212     -8.7517   -1.0635   -3.6500   H         1 RES1   0.0000
   338 H213     -9.3617    0.5279   -4.0932   H         1 RES1   0.0000
   339 H214     -8.2890   -0.1728   -1.3177   H         1 RES1   0.0000
   340 H215     -9.9904   -0.1281   -1.7682   H         1 RES1   0.0000
   341 H216     -9.0409    1.3517   -1.8067   H         1 RES1   0.0000
   342 O9       -1.2237    1.1368   -1.5612   O.3       1 RES1   0.0000
   343 H217     -1.6810    0.2756   -1.5841   H         1 RES1   0.0000
   344 H218     -0.3452    0.9792   -1.9765   H         1 RES1   0.0000
@<TRIPOS>BOND
     1     1    13    1
     2     1    22    1
     3     1    98    1
     4     1   107    1
     5     1   183    1
     6     1   192    1
     7     1   268    1
     8     1   277    1
     9     1   342    1
    10     2     3    1
    11     2    33    1
    12     2    34    1
    13     2    35    1
    14     3     4    1
    15     3    36    1
    16     3    37    1
    17     4     5    1
    18     4    38    1
    19     4    39    1
    20     5     6    1
    21     5    40    1
    22     5    41    1
    23     6     7    1
    24     6    42    1
    25     6    43    1
    26     7     8    1
    27     7    44    1
    28     7    45    1
    29     8     9    1
    30     8    46    1
    31     8    47    1
    32     9    10    1
    33     9    48    1
    34     9    49    1
    35    10    11    1
    36    10    12    1
    37    11    50    1
    38    11    51    1
    39    11    52    1
    40    12    13    2
    41    12    14    1
    42    14    15    1
    43    14    21    1
    44    14    53    1
    45    15    16    1
    46    15    54    1
    47    15    55    1
    48    16    17    1
    49    16    56    1
    50    16    57    1
    51    17    18    1
    52    17    58    1
    53    17    59    1
    54    18    19    1
    55    18    60    1
    56    18    61    1
    57    19    20    1
    58    19    62    1
    59    19    63    1
    60    20    64    1
    61    20    65    1
    62    20    66    1
    63    21    22    2
    64    21    23    1
    65    23    24    1
    66    23    25    1
    67    24    67    1
    68    24    68    1
    69    24    69    1
    70    25    26    1
    71    25    70    1
    72    25    71    1
    73    26    27    1
    74    26    72    1
    75    26    73    1
    76    27    28    1
    77    27    74    1
    78    27    75    1
    79    28    29    1
    80    28    76    1
    81    28    77    1
    82    29    30    1
    83    29    78    1
    84    29    79    1
    85    30    31    1
    86    30    80    1
    87    30    81    1
    88    31    32    1
    89    31    82    1
    90    31    83    1
    91    32    84    1
    92    32    85    1
    93    32    86    1
    94    87    88    1
    95    87   118    1
    96    87   119    1
    97    87   120    1
    98    88    89    1
    99    88   121    1
   100    88   122    1
   101    89    90    1
   102    89   123    1
   103    89   124    1
   104    90    91    1
   105    90   125    1
   106    90   126    1
   107    91    92    1
   108    91   127    1
   109    91   128    1
   110    92    93    1
   111    92   129    1
   112    92   130    1
   113    93    94    1
   114    93   131    1
   115    93   132    1
   116    94    95    1
   117    94   133    1
   118    94   134    1
   119    95    96    1
   120    95    97    1
   121    96   135    1
   122    96   136    1
   123    96   137    1
   124    97    98    2
   125    97    99    1
   126    99   100    1
   127    99   106    1
   128    99   138    1
   129   100   101    1
   130   100   139    1
   131   100   140    1
   132   101   102    1
   133   101   141    1
   134   101   142    1
   135   102   103    1
   136   102   143    1
   137   102   144    1
   138   103   104    1
   139   103   145    1
   140   103   146    1
   141   104   105    1
   142   104   147    1
   143   104   148    1
   144   105   149    1
   145   105   150    1
   146   105   151    1
   147   106   107    2
   148   106   108    1
   149   108   109    1
   150   108   110    1
   151   109   152    1
   152   109   153    1
   153   109   154    1
   154   110   111    1
   155   110   155    1
   156   110   156    1
   157   111   112    1
   158   111   157    1
   159   111   158    1
   160   112   113    1
   161   112   159    1
   162   112   160    1
   163   113   114    1
   164   113   161    1
   165   113   162    1
   166   114   115    1
   167   114   163    1
   168   114   164    1
   169   115   116    1
   170   115   165    1
   171   115   166    1
   172   116   117    1
   173   116   167    1
   174   116   168    1
   175   117   169    1
   176   117   170    1
   177   117   171    1
   178   172   173    1
   179   172   203    1
   180   172   204    1
   181   172   205    1
   182   173   174    1
   183   173   206    1
   184   173   207    1
   185   174   175    1
   186   174   208    1
   187   174   209    1
   188   175   176    1
   189   175   210    1
   190   175   211    1
   191   176   177    1
   192   176   212    1
   193   176   213    1
   194   177   178    1
   195   177   214    1
   196   177   215    1
   197   178   179    1
   198   178   216    1
   199   178   217    1
   200   179   180    1
   201   179   218    1
   202   179   219    1
   203   180   181    1
   204   180   182    1
   205   181   220    1
   206   181   221    1
   207   181   222    1
   208   182   183    2
   209   182   184    1
   210   184   185    1
   211   184   191    1
   212   184   223    1
   213   185   186    1
   214   185   224    1
   215   185   225    1
   216   186   187    1
   217   186   226    1
   218   186   227    1
   219   187   188    1
   220   187   228    1
   221   187   229    1
   222   188   189    1
   223   188   230    1
   224   188   231    1
   225   189   190    1
   226   189   232    1
   227   189   233    1
   228   190   234    1
   229   190   235    1
   230   190   236    1
   231   191   192    2
   232   191   193    1
   233   193   194    1
   234   193   195    1
   235   194   237    1
   236   194   238    1
   237   194   239    1
   238   195   196    1
   239   195   240    1
   240   195   241    1
   241   196   197    1
   242   196   242    1
   243   196   243    1
   244   197   198    1
   245   197   244    1
   246   197   245    1
   247   198   199    1
   248   198   246    1
   249   198   247    1
   250   199   200    1
   251   199   248    1
   252   199   249    1
   253   200   201    1
   254   200   250    1
   255   200   251    1
   256   201   202    1
   257   201   252    1
   258   201   253    1
   259   202   254    1
   260   202   255    1
   261   202   256    1
   262   257   258    1
   263   257   288    1
   264   257   289    1
   265   257   290    1
   266   258   259    1
   267   258   291    1
   268   258   292    1
   269   259   260    1
   270   259   293    1
   271   259   294    1
   272   260   261    1
   273   260   295    1
   274   260   296    1
   275   261   262    1
   276   261   297    1
   277   261   298    1
   278   262   263    1
   279   262   299    1
   280   262   300    1
   281   263   264    1
   282   263   301    1
   283   263   302    1
   284   264   265    1
   285   264   303    1
   286   264   304    1
   287   265   266    1
   288   265   267    1
   289   266   305    1
   290   266   306    1
   291   266   307    1
   292   267   268    2
   293   267   269    1
   294   269   270    1
   295   269   276    1
   296   269   308    1
   297   270   271    1
   298   270   309    1
   299   270   310    1
   300   271   272    1
   301   271   311    1
   302   271   312    1
   303   272   273    1
   304   272   313    1
   305   272   314    1
   306   273   274    1
   307   273   315    1
   308   273   316    1
   309   274   275    1
   310   274   317    1
   311   274   318    1
   312   275   319    1
   313   275   320    1
   314   275   321    1
   315   276   277    2
   316   276   278    1
   317   278   279    1
   318   278   280    1
   319   279   322    1
   320   279   323    1
   321   279   324    1
   322   280   281    1
   323   280   325    1
   324   280   326    1
   325   281   282    1
   326   281   327    1
   327   281   328    1
   328   282   283    1
   329   282   329    1
   330   282   330    1
   331   283   284    1
   332   283   331    1
   333   283   332    1
   334   284   285    1
   335   284   333    1
   336   284   334    1
   337   285   286    1
   338   285   335    1
   339   285   336    1
   340   286   287    1
   341   286   337    1
   342   286   338    1
   343   287   339    1
   344   287   340    1
   345   287   341    1
   346   342   343    1
   347   342   344    1
@<TRIPOS>SUBSTRUCTURE
     1 RES1      344 GROUP             0 ****  ****    0  
