@<TRIPOS>MOLECULE
am_c3_9H2O_c0_0_nunpairedes_0_charge_3 Charge: 3 Unpaired_Electrons: 3 XTB_Unpaired_Electrons: 0 XTB_Charge: 3
   148   161     1     0     0
SMALL
NoCharges
****
Generated from Architector

@<TRIPOS>ATOM
     1 Nd1      -0.0507    0.0755    0.0009   Nd        1 RES1   0.0000
     2 C1       -0.3106    2.4598    6.2483   C.3       1 RES1   0.0000
     3 C2        0.1548    1.4269    5.2279   C.3       1 RES1   0.0000
     4 N1        0.5853    1.9589    3.9305   N.am      1 RES1   0.0000
     5 C3        0.0708    1.4274    2.7974   C.2       1 RES1   0.0000
     6 O1        0.7871    1.1576    1.8115   O.2       1 RES1   0.0000
     7 C4       -1.4190    1.1917    2.6463   C.ar      1 RES1   0.0000
     8 C5       -2.4388    1.6875    3.4548   C.ar      1 RES1   0.0000
     9 C6       -3.7431    1.2844    3.1984   C.ar      1 RES1   0.0000
    10 C7       -4.0020    0.3600    2.1990   C.ar      1 RES1   0.0000
    11 C8       -2.9478   -0.0421    1.3802   C.ar      1 RES1   0.0000
    12 C9       -3.1013   -1.0708    0.3173   C.ar      1 RES1   0.0000
    13 C10      -4.2391   -1.8760    0.2666   C.ar      1 RES1   0.0000
    14 C11      -4.3680   -2.7598   -0.7812   C.ar      1 RES1   0.0000
    15 C12      -3.3829   -2.8321   -1.7543   C.ar      1 RES1   0.0000
    16 C13      -2.2357   -2.0534   -1.6270   C.ar      1 RES1   0.0000
    17 C14      -1.0802   -1.8717   -2.6142   C.2       1 RES1   0.0000
    18 O2       -0.3568   -0.8821   -2.3448   O.2       1 RES1   0.0000
    19 N2       -0.8713   -2.6561   -3.6896   N.am      1 RES1   0.0000
    20 C15      -1.6146   -3.9062   -3.8799   C.3       1 RES1   0.0000
    21 C16      -2.8327   -3.7181   -4.7953   C.3       1 RES1   0.0000
    22 C17       0.0485   -2.3544   -4.7631   C.ar      1 RES1   0.0000
    23 C18       0.0074   -3.1113   -5.9456   C.ar      1 RES1   0.0000
    24 C19       0.8317   -2.8498   -7.0315   C.ar      1 RES1   0.0000
    25 C20       0.7159   -3.6476   -8.2893   C.3       1 RES1   0.0000
    26 C21       1.7611   -1.8245   -6.9367   C.ar      1 RES1   0.0000
    27 C22       1.8416   -1.0649   -5.7823   C.ar      1 RES1   0.0000
    28 C23       2.8700    0.0228   -5.7133   C.3       1 RES1   0.0000
    29 C24       0.9913   -1.3261   -4.7068   C.ar      1 RES1   0.0000
    30 N3       -2.1150   -1.2151   -0.5755   N.ar      1 RES1   0.0000
    31 N4       -1.7225    0.4427    1.5784   N.ar      1 RES1   0.0000
    32 C25       1.7675    2.7604    3.8627   C.ar      1 RES1   0.0000
    33 C26       2.5826    2.9680    4.9762   C.ar      1 RES1   0.0000
    34 C27       3.6440    3.8634    4.9260   C.ar      1 RES1   0.0000
    35 C28       4.4628    4.1545    6.1398   C.3       1 RES1   0.0000
    36 C29       3.9428    4.5002    3.7261   C.ar      1 RES1   0.0000
    37 C30       3.1641    4.2876    2.5982   C.ar      1 RES1   0.0000
    38 C31       3.4929    4.9339    1.2863   C.3       1 RES1   0.0000
    39 C32       2.0589    3.4507    2.6865   C.ar      1 RES1   0.0000
    40 H1       -0.5301    1.9421    7.1798   H         1 RES1   0.0000
    41 H2       -1.2148    2.9713    5.9304   H         1 RES1   0.0000
    42 H3        0.4514    3.2115    6.4385   H         1 RES1   0.0000
    43 H4       -0.6237    0.6871    5.0279   H         1 RES1   0.0000
    44 H5        1.0036    0.8720    5.6462   H         1 RES1   0.0000
    45 H6       -2.2128    2.3637    4.2591   H         1 RES1   0.0000
    46 H7       -4.5489    1.6364    3.8238   H         1 RES1   0.0000
    47 H8       -5.0015   -0.0106    2.0653   H         1 RES1   0.0000
    48 H9       -5.0068   -1.8182    1.0130   H         1 RES1   0.0000
    49 H10      -5.2422   -3.3802   -0.8838   H         1 RES1   0.0000
    50 H11      -3.5677   -3.4798   -2.5838   H         1 RES1   0.0000
    51 H12      -1.8797   -4.3100   -2.9010   H         1 RES1   0.0000
    52 H13      -0.9375   -4.6424   -4.3205   H         1 RES1   0.0000
    53 H14      -3.5016   -2.9350   -4.4422   H         1 RES1   0.0000
    54 H15      -3.3718   -4.6600   -4.8670   H         1 RES1   0.0000
    55 H16      -2.5368   -3.4280   -5.8007   H         1 RES1   0.0000
    56 H17      -0.6672   -3.9341   -6.0969   H         1 RES1   0.0000
    57 H18      -0.0510   -4.4124   -8.2133   H         1 RES1   0.0000
    58 H19       1.6612   -4.1301   -8.5309   H         1 RES1   0.0000
    59 H20       0.4691   -3.0013   -9.1306   H         1 RES1   0.0000
    60 H21       2.4090   -1.6244   -7.7764   H         1 RES1   0.0000
    61 H22       3.1890    0.2933   -6.7163   H         1 RES1   0.0000
    62 H23       3.7397   -0.3346   -5.1632   H         1 RES1   0.0000
    63 H24       2.4886    0.9117   -5.2159   H         1 RES1   0.0000
    64 H25       1.0852   -0.7103   -3.8279   H         1 RES1   0.0000
    65 H26       2.4098    2.4458    5.9029   H         1 RES1   0.0000
    66 H27       4.1035    3.6014    7.0013   H         1 RES1   0.0000
    67 H28       4.4280    5.2177    6.3717   H         1 RES1   0.0000
    68 H29       5.5074    3.9023    5.9705   H         1 RES1   0.0000
    69 H30       4.7888    5.1709    3.6911   H         1 RES1   0.0000
    70 H31       4.3659    5.5732    1.3777   H         1 RES1   0.0000
    71 H32       2.6602    5.5351    0.9229   H         1 RES1   0.0000
    72 H33       3.6991    4.1684    0.5369   H         1 RES1   0.0000
    73 H34       1.4338    3.3393    1.8119   H         1 RES1   0.0000
    74 C33       0.1113   -5.8092    3.4299   C.3       1 RES1   0.0000
    75 C34       1.0883   -4.6336    3.3544   C.3       1 RES1   0.0000
    76 N5        0.3551   -3.3678    3.2614   N.am      1 RES1   0.0000
    77 C35       0.3443   -2.6328    2.1432   C.2       1 RES1   0.0000
    78 O3       -0.2995   -1.5725    2.0109   O.2       1 RES1   0.0000
    79 C36       1.1358   -2.9725    0.8913   C.ar      1 RES1   0.0000
    80 C37       1.2975   -4.2244    0.3101   C.ar      1 RES1   0.0000
    81 C38       2.0061   -4.3207   -0.8779   C.ar      1 RES1   0.0000
    82 C39       2.5448   -3.1867   -1.4570   C.ar      1 RES1   0.0000
    83 C40       2.2921   -1.9552   -0.8614   C.ar      1 RES1   0.0000
    84 C41       2.7330   -0.6854   -1.5015   C.ar      1 RES1   0.0000
    85 C42       3.8948   -0.5487   -2.2573   C.ar      1 RES1   0.0000
    86 C43       4.1378    0.6801   -2.8511   C.ar      1 RES1   0.0000
    87 C44       3.2140    1.7142   -2.7476   C.ar      1 RES1   0.0000
    88 C45       2.0561    1.4968   -2.0111   C.ar      1 RES1   0.0000
    89 C46       0.9113    2.4443   -1.7015   C.2       1 RES1   0.0000
    90 O4        0.3709    2.2338   -0.5962   O.2       1 RES1   0.0000
    91 N6        0.4819    3.4006   -2.5375   N.am      1 RES1   0.0000
    92 C47       0.8128    3.3483   -3.9614   C.3       1 RES1   0.0000
    93 C48       1.6924    4.5089   -4.4210   C.3       1 RES1   0.0000
    94 C49      -0.4501    4.4095   -2.1088   C.ar      1 RES1   0.0000
    95 C50      -1.0993    5.2239   -3.0437   C.ar      1 RES1   0.0000
    96 C51      -1.9599    6.2401   -2.6464   C.ar      1 RES1   0.0000
    97 C52      -2.5725    7.1582   -3.6514   C.3       1 RES1   0.0000
    98 C53      -2.2463    6.4042   -1.2952   C.ar      1 RES1   0.0000
    99 C54      -1.6309    5.6027   -0.3489   C.ar      1 RES1   0.0000
   100 C55      -1.9434    5.7396    1.1102   C.3       1 RES1   0.0000
   101 C56      -0.7104    4.6415   -0.7584   C.ar      1 RES1   0.0000
   102 N7        1.8776    0.3282   -1.3776   N.ar      1 RES1   0.0000
   103 N8        1.5818   -1.8648    0.2704   N.ar      1 RES1   0.0000
   104 C57      -0.3580   -2.9800    4.4538   C.ar      1 RES1   0.0000
   105 C58       0.0086   -3.5313    5.6868   C.ar      1 RES1   0.0000
   106 C59      -0.6502   -3.2022    6.8623   C.ar      1 RES1   0.0000
   107 C60      -0.2754   -3.8663    8.1451   C.3       1 RES1   0.0000
   108 C61      -1.6736   -2.2664    6.8203   C.ar      1 RES1   0.0000
   109 C62      -2.0730   -1.7121    5.6158   C.ar      1 RES1   0.0000
   110 C63      -3.2019   -0.7241    5.6254   C.3       1 RES1   0.0000
   111 C64      -1.4275   -2.0825    4.4355   C.ar      1 RES1   0.0000
   112 H35       0.6563   -6.7449    3.5286   H         1 RES1   0.0000
   113 H36      -0.5196   -5.8620    2.5428   H         1 RES1   0.0000
   114 H37      -0.5419   -5.7141    4.2961   H         1 RES1   0.0000
   115 H38       1.7670   -4.7214    2.5090   H         1 RES1   0.0000
   116 H39       1.7227   -4.6239    4.2419   H         1 RES1   0.0000
   117 H40       0.8651   -5.1039    0.7522   H         1 RES1   0.0000
   118 H41       2.1481   -5.2855   -1.3356   H         1 RES1   0.0000
   119 H42       3.1098   -3.2630   -2.3673   H         1 RES1   0.0000
   120 H43       4.5947   -1.3563   -2.3698   H         1 RES1   0.0000
   121 H44       5.0253    0.8405   -3.4423   H         1 RES1   0.0000
   122 H45       3.4129    2.6573   -3.2269   H         1 RES1   0.0000
   123 H46      -0.1260    3.3501   -4.5267   H         1 RES1   0.0000
   124 H47       1.2878    2.3849   -4.1583   H         1 RES1   0.0000
   125 H48       1.2309    5.4663   -4.1891   H         1 RES1   0.0000
   126 H49       1.8328    4.4537   -5.4987   H         1 RES1   0.0000
   127 H50       2.6682    4.4885   -3.9403   H         1 RES1   0.0000
   128 H51      -0.9444    5.1147   -4.1034   H         1 RES1   0.0000
   129 H52      -2.2424    6.9220   -4.6579   H         1 RES1   0.0000
   130 H53      -2.3004    8.1893   -3.4311   H         1 RES1   0.0000
   131 H54      -3.6589    7.1040   -3.6171   H         1 RES1   0.0000
   132 H55      -2.9382    7.1773   -0.9958   H         1 RES1   0.0000
   133 H56      -2.6637    6.5366    1.2717   H         1 RES1   0.0000
   134 H57      -1.0445    5.9600    1.6845   H         1 RES1   0.0000
   135 H58      -2.3609    4.8069    1.4939   H         1 RES1   0.0000
   136 H59      -0.2005    4.0927    0.0146   H         1 RES1   0.0000
   137 H60       0.8116   -4.2412    5.7932   H         1 RES1   0.0000
   138 H61       0.4999   -4.6101    7.9901   H         1 RES1   0.0000
   139 H62      -1.1385   -4.3614    8.5863   H         1 RES1   0.0000
   140 H63       0.0823   -3.1406    8.8724   H         1 RES1   0.0000
   141 H64      -2.1762   -1.9970    7.7360   H         1 RES1   0.0000
   142 H65      -3.7426   -0.8067    6.5641   H         1 RES1   0.0000
   143 H66      -3.8977   -0.8870    4.8053   H         1 RES1   0.0000
   144 H67      -2.8154    0.2918    5.5469   H         1 RES1   0.0000
   145 H68      -1.7803   -1.6681    3.5050   H         1 RES1   0.0000
   146 O5       -2.1158    1.5121   -1.4114   O.3       1 RES1   0.0000
   147 H69      -2.3436    2.4524   -1.3580   H         1 RES1   0.0000
   148 H70      -2.0822    1.3095   -2.3545   H         1 RES1   0.0000
@<TRIPOS>BOND
     1     1     6    1
     2     1    18    1
     3     1    30    1
     4     1    31    1
     5     1    78    1
     6     1    90    1
     7     1   102    1
     8     1   103    1
     9     1   146    1
    10     2     3    1
    11     2    40    1
    12     2    41    1
    13     2    42    1
    14     3     4    1
    15     3    43    1
    16     3    44    1
    17     4     5    1
    18     4    32    1
    19     5     6    2
    20     5     7    1
    21     7     8    1
    22     7    31    2
    23     8     9    2
    24     8    45    1
    25     9    10    1
    26     9    46    1
    27    10    11    2
    28    10    47    1
    29    11    12    1
    30    11    31    1
    31    12    13    1
    32    12    30    2
    33    13    14    2
    34    13    48    1
    35    14    15    1
    36    14    49    1
    37    15    16    2
    38    15    50    1
    39    16    17    1
    40    16    30    1
    41    17    18    2
    42    17    19    1
    43    19    20    1
    44    19    22    1
    45    20    21    1
    46    20    51    1
    47    20    52    1
    48    21    53    1
    49    21    54    1
    50    21    55    1
    51    22    23    1
    52    22    29    2
    53    23    24    2
    54    23    56    1
    55    24    25    1
    56    24    26    1
    57    25    57    1
    58    25    58    1
    59    25    59    1
    60    26    27    2
    61    26    60    1
    62    27    28    1
    63    27    29    1
    64    28    61    1
    65    28    62    1
    66    28    63    1
    67    29    64    1
    68    32    33    1
    69    32    39    2
    70    33    34    2
    71    33    65    1
    72    34    35    1
    73    34    36    1
    74    35    66    1
    75    35    67    1
    76    35    68    1
    77    36    37    2
    78    36    69    1
    79    37    38    1
    80    37    39    1
    81    38    70    1
    82    38    71    1
    83    38    72    1
    84    39    73    1
    85    74    75    1
    86    74   112    1
    87    74   113    1
    88    74   114    1
    89    75    76    1
    90    75   115    1
    91    75   116    1
    92    76    77    1
    93    76   104    1
    94    77    78    2
    95    77    79    1
    96    79    80    1
    97    79   103    2
    98    80    81    2
    99    80   117    1
   100    81    82    1
   101    81   118    1
   102    82    83    2
   103    82   119    1
   104    83    84    1
   105    83   103    1
   106    84    85    1
   107    84   102    2
   108    85    86    2
   109    85   120    1
   110    86    87    1
   111    86   121    1
   112    87    88    2
   113    87   122    1
   114    88    89    1
   115    88   102    1
   116    89    90    2
   117    89    91    1
   118    91    92    1
   119    91    94    1
   120    92    93    1
   121    92   123    1
   122    92   124    1
   123    93   125    1
   124    93   126    1
   125    93   127    1
   126    94    95    1
   127    94   101    2
   128    95    96    2
   129    95   128    1
   130    96    97    1
   131    96    98    1
   132    97   129    1
   133    97   130    1
   134    97   131    1
   135    98    99    2
   136    98   132    1
   137    99   100    1
   138    99   101    1
   139   100   133    1
   140   100   134    1
   141   100   135    1
   142   101   136    1
   143   104   105    1
   144   104   111    2
   145   105   106    2
   146   105   137    1
   147   106   107    1
   148   106   108    1
   149   107   138    1
   150   107   139    1
   151   107   140    1
   152   108   109    2
   153   108   141    1
   154   109   110    1
   155   109   111    1
   156   110   142    1
   157   110   143    1
   158   110   144    1
   159   111   145    1
   160   146   147    1
   161   146   148    1
@<TRIPOS>SUBSTRUCTURE
     1 RES1      148 GROUP             0 ****  ****    0  
