@<TRIPOS>MOLECULE
am_c3_9H2O_c0_0_nunpairedes_0_charge_3 Charge: 3 Unpaired_Electrons: 3 XTB_Unpaired_Electrons: 0 XTB_Charge: 3
   430   435     1     0     0
SMALL
NoCharges
****
Generated from Architector

@<TRIPOS>ATOM
     1 Nd1       0.0135    0.0742    0.1117   Nd        1 RES1   0.0000
     2 C1       -6.2120    5.1798    6.6803   C.3       1 RES1   0.0000
     3 C2       -6.3883    3.6656    6.6517   C.3       1 RES1   0.0000
     4 C3       -6.7466    3.1629    5.2545   C.3       1 RES1   0.0000
     5 C4       -6.9652    1.6509    5.2227   C.3       1 RES1   0.0000
     6 C5       -7.3183    1.1383    3.8270   C.3       1 RES1   0.0000
     7 C6       -7.4133   -0.3824    3.7686   C.3       1 RES1   0.0000
     8 C7       -7.9567   -0.9051    2.4398   C.3       1 RES1   0.0000
     9 C8       -7.1099   -0.5915    1.2032   C.3       1 RES1   0.0000
    10 C9       -5.6884   -1.1498    1.3007   C.3       1 RES1   0.0000
    11 C10      -5.0984   -1.6830   -0.0101   C.3       1 RES1   0.0000
    12 N1       -4.6276   -0.6687   -0.9581   N.am      1 RES1   0.0000
    13 C11      -5.4309   -0.3885   -2.1413   C.3       1 RES1   0.0000
    14 C12      -6.5903    0.5849   -1.9113   C.3       1 RES1   0.0000
    15 C13      -7.1574    1.1249   -3.2271   C.3       1 RES1   0.0000
    16 C14      -6.3331    2.2564   -3.8402   C.3       1 RES1   0.0000
    17 C15      -6.3253    3.5181   -2.9779   C.3       1 RES1   0.0000
    18 C16      -5.7336    4.7198   -3.7090   C.3       1 RES1   0.0000
    19 C17      -5.8002    5.9809   -2.8499   C.3       1 RES1   0.0000
    20 C18      -5.3114    7.2389   -3.5690   C.3       1 RES1   0.0000
    21 C19      -3.8337    7.2302   -3.9617   C.3       1 RES1   0.0000
    22 C20      -2.8942    7.1569   -2.7635   C.3       1 RES1   0.0000
    23 C21      -3.4023   -0.1840   -0.7832   C.2       1 RES1   0.0000
    24 O1       -2.6319   -0.5876    0.1065   O.2       1 RES1   0.0000
    25 C22      -2.8188    0.9100   -1.7027   C.3       1 RES1   0.0000
    26 C23      -1.9568    0.2457   -2.7707   C.3       1 RES1   0.0000
    27 O2       -1.9212    1.6712   -0.8947   O.3       1 RES1   0.0000
    28 C24      -2.6152    2.5571   -0.0069   C.3       1 RES1   0.0000
    29 C25      -2.5900    3.9728   -0.5857   C.3       1 RES1   0.0000
    30 C26      -2.0698    2.3586    1.4149   C.2       1 RES1   0.0000
    31 O3       -1.1827    1.4976    1.6029   O.2       1 RES1   0.0000
    32 N2       -2.5997    3.0414    2.4247   N.am      1 RES1   0.0000
    33 C27      -2.1786    2.6745    3.7786   C.3       1 RES1   0.0000
    34 C28      -2.7096    1.3083    4.2158   C.3       1 RES1   0.0000
    35 C29      -2.4340    1.0998    5.7060   C.3       1 RES1   0.0000
    36 C30      -2.6479   -0.3437    6.1530   C.3       1 RES1   0.0000
    37 C31      -4.1061   -0.7776    6.2129   C.3       1 RES1   0.0000
    38 C32      -4.1989   -2.2827    6.4376   C.3       1 RES1   0.0000
    39 C33      -5.6311   -2.7533    6.6664   C.3       1 RES1   0.0000
    40 C34      -5.7273   -4.2721    6.8059   C.3       1 RES1   0.0000
    41 C35      -5.4479   -5.0468    5.5172   C.3       1 RES1   0.0000
    42 C36      -6.4864   -4.7947    4.4304   C.3       1 RES1   0.0000
    43 C37      -3.6258    4.0807    2.3185   C.3       1 RES1   0.0000
    44 C38      -4.9724    3.5773    1.8000   C.3       1 RES1   0.0000
    45 C39      -6.0589    4.6451    1.7242   C.3       1 RES1   0.0000
    46 C40      -7.2840    4.0400    1.0385   C.3       1 RES1   0.0000
    47 C41      -8.3855    5.0557    0.7555   C.3       1 RES1   0.0000
    48 C42      -9.0205    5.6202    2.0230   C.3       1 RES1   0.0000
    49 C43      -9.8022    4.5766    2.8174   C.3       1 RES1   0.0000
    50 C44     -10.4690    5.2136    4.0332   C.3       1 RES1   0.0000
    51 C45     -11.3843    4.2637    4.8046   C.3       1 RES1   0.0000
    52 C46     -10.6342    3.1445    5.5170   C.3       1 RES1   0.0000
    53 H1       -5.9594    5.5158    7.6824   H         1 RES1   0.0000
    54 H2       -7.1321    5.6752    6.3787   H         1 RES1   0.0000
    55 H3       -5.4164    5.4919    6.0038   H         1 RES1   0.0000
    56 H4       -7.1776    3.3812    7.3495   H         1 RES1   0.0000
    57 H5       -5.4651    3.1830    6.9850   H         1 RES1   0.0000
    58 H6       -5.9379    3.4286    4.5668   H         1 RES1   0.0000
    59 H7       -7.6521    3.6694    4.9167   H         1 RES1   0.0000
    60 H8       -7.7700    1.3914    5.9121   H         1 RES1   0.0000
    61 H9       -6.0583    1.1542    5.5741   H         1 RES1   0.0000
    62 H10      -6.5560    1.4716    3.1183   H         1 RES1   0.0000
    63 H11      -8.2714    1.5683    3.5146   H         1 RES1   0.0000
    64 H12      -8.0810   -0.7242    4.5603   H         1 RES1   0.0000
    65 H13      -6.4277   -0.8091    3.9664   H         1 RES1   0.0000
    66 H14      -8.9531   -0.4901    2.2820   H         1 RES1   0.0000
    67 H15      -8.0612   -1.9891    2.5109   H         1 RES1   0.0000
    68 H16      -7.0915    0.4833    1.0267   H         1 RES1   0.0000
    69 H17      -7.6151   -1.0605    0.3575   H         1 RES1   0.0000
    70 H18      -5.7116   -2.0029    1.9801   H         1 RES1   0.0000
    71 H19      -5.0012   -0.4156    1.7236   H         1 RES1   0.0000
    72 H20      -5.8286   -2.3146   -0.5200   H         1 RES1   0.0000
    73 H21      -4.2268   -2.2787    0.2685   H         1 RES1   0.0000
    74 H22      -5.8345   -1.3392   -2.4985   H         1 RES1   0.0000
    75 H23      -4.7798    0.0022   -2.9210   H         1 RES1   0.0000
    76 H24      -6.2617    1.4140   -1.2856   H         1 RES1   0.0000
    77 H25      -7.3908    0.0794   -1.3812   H         1 RES1   0.0000
    78 H26      -8.1647    1.5000   -3.0379   H         1 RES1   0.0000
    79 H27      -7.2453    0.3090   -3.9469   H         1 RES1   0.0000
    80 H28      -6.7744    2.5048   -4.8050   H         1 RES1   0.0000
    81 H29      -5.3056    1.9306   -4.0309   H         1 RES1   0.0000
    82 H30      -5.7504    3.3518   -2.0610   H         1 RES1   0.0000
    83 H31      -7.3498    3.7530   -2.6852   H         1 RES1   0.0000
    84 H32      -6.2915    4.8888   -4.6304   H         1 RES1   0.0000
    85 H33      -4.6994    4.5017   -3.9841   H         1 RES1   0.0000
    86 H34      -5.2293    5.8302   -1.9300   H         1 RES1   0.0000
    87 H35      -6.8404    6.1415   -2.5593   H         1 RES1   0.0000
    88 H36      -5.4958    8.0974   -2.9199   H         1 RES1   0.0000
    89 H37      -5.9072    7.3771   -4.4724   H         1 RES1   0.0000
    90 H38      -3.6278    8.1506   -4.5088   H         1 RES1   0.0000
    91 H39      -3.6309    6.3986   -4.6392   H         1 RES1   0.0000
    92 H40      -3.1091    7.9625   -2.0660   H         1 RES1   0.0000
    93 H41      -1.8592    7.2519   -3.0845   H         1 RES1   0.0000
    94 H42      -3.0028    6.2114   -2.2382   H         1 RES1   0.0000
    95 H43      -3.5765    1.5726   -2.1324   H         1 RES1   0.0000
    96 H44      -1.6974    0.9458   -3.5601   H         1 RES1   0.0000
    97 H45      -2.4505   -0.6160   -3.2116   H         1 RES1   0.0000
    98 H46      -1.0304   -0.0748   -2.2613   H         1 RES1   0.0000
    99 H47      -3.6516    2.2103    0.0477   H         1 RES1   0.0000
   100 H48      -1.6735    4.4897   -0.3186   H         1 RES1   0.0000
   101 H49      -3.4454    4.5588   -0.2678   H         1 RES1   0.0000
   102 H50      -2.6419    3.8885   -1.6689   H         1 RES1   0.0000
   103 H51      -2.5374    3.4369    4.4682   H         1 RES1   0.0000
   104 H52      -1.0874    2.6679    3.8230   H         1 RES1   0.0000
   105 H53      -2.2172    0.5287    3.6279   H         1 RES1   0.0000
   106 H54      -3.7812    1.2503    4.0239   H         1 RES1   0.0000
   107 H55      -3.0723    1.7614    6.2930   H         1 RES1   0.0000
   108 H56      -1.3972    1.3748    5.9093   H         1 RES1   0.0000
   109 H57      -2.1986   -0.4780    7.1378   H         1 RES1   0.0000
   110 H58      -2.1311   -1.0085    5.4621   H         1 RES1   0.0000
   111 H59      -4.6015   -0.5316    5.2721   H         1 RES1   0.0000
   112 H60      -4.6175   -0.2498    7.0178   H         1 RES1   0.0000
   113 H61      -3.5897   -2.5554    7.3015   H         1 RES1   0.0000
   114 H62      -3.7784   -2.7879    5.5641   H         1 RES1   0.0000
   115 H63      -6.2692   -2.4102    5.8507   H         1 RES1   0.0000
   116 H64      -6.0054   -2.2950    7.5827   H         1 RES1   0.0000
   117 H65      -6.7275   -4.5291    7.1565   H         1 RES1   0.0000
   118 H66      -5.0168   -4.5964    7.5688   H         1 RES1   0.0000
   119 H67      -5.4433   -6.1107    5.7583   H         1 RES1   0.0000
   120 H68      -4.4537   -4.7961    5.1363   H         1 RES1   0.0000
   121 H69      -7.4824   -5.0010    4.8115   H         1 RES1   0.0000
   122 H70      -6.3083   -5.4417    3.5738   H         1 RES1   0.0000
   123 H71      -6.4616   -3.7619    4.0899   H         1 RES1   0.0000
   124 H72      -3.2451    4.9006    1.7076   H         1 RES1   0.0000
   125 H73      -3.7820    4.4835    3.3202   H         1 RES1   0.0000
   126 H74      -5.3115    2.7661    2.4449   H         1 RES1   0.0000
   127 H75      -4.8869    3.1788    0.7932   H         1 RES1   0.0000
   128 H76      -5.7082    5.5004    1.1438   H         1 RES1   0.0000
   129 H77      -6.3107    4.9958    2.7217   H         1 RES1   0.0000
   130 H78      -7.6778    3.2327    1.6561   H         1 RES1   0.0000
   131 H79      -6.9718    3.6005    0.0872   H         1 RES1   0.0000
   132 H80      -9.1583    4.5682    0.1577   H         1 RES1   0.0000
   133 H81      -7.9762    5.8747    0.1596   H         1 RES1   0.0000
   134 H82      -9.7017    6.4235    1.7412   H         1 RES1   0.0000
   135 H83      -8.2507    6.0588    2.6610   H         1 RES1   0.0000
   136 H84      -9.1331    3.7804    3.1460   H         1 RES1   0.0000
   137 H85     -10.5647    4.1275    2.1767   H         1 RES1   0.0000
   138 H86     -11.0601    6.0649    3.6917   H         1 RES1   0.0000
   139 H87      -9.6982    5.5999    4.7057   H         1 RES1   0.0000
   140 H88     -12.1172    3.8332    4.1191   H         1 RES1   0.0000
   141 H89     -11.9301    4.8473    5.5477   H         1 RES1   0.0000
   142 H90     -10.1740    2.4624    4.8062   H         1 RES1   0.0000
   143 H91     -11.3182    2.5710    6.1362   H         1 RES1   0.0000
   144 H92      -9.8590    3.5565    6.1594   H         1 RES1   0.0000
   145 C47       3.3072    8.8416   -2.5696   C.3       1 RES1   0.0000
   146 C48       3.1480    7.9216   -3.7753   C.3       1 RES1   0.0000
   147 C49       3.9595    6.6368   -3.6171   C.3       1 RES1   0.0000
   148 C50       3.8105    5.6950   -4.8130   C.3       1 RES1   0.0000
   149 C51       4.4783    4.3411   -4.5660   C.3       1 RES1   0.0000
   150 C52       4.0377    3.2752   -5.5672   C.3       1 RES1   0.0000
   151 C53       4.9521    2.0517   -5.5762   C.3       1 RES1   0.0000
   152 C54       5.0668    1.2916   -4.2529   C.3       1 RES1   0.0000
   153 C55       3.7856    0.5556   -3.8604   C.3       1 RES1   0.0000
   154 C56       4.0176   -0.6648   -2.9603   C.3       1 RES1   0.0000
   155 N3        4.2605   -0.3833   -1.5404   N.am      1 RES1   0.0000
   156 C57       5.5803   -0.7336   -1.0340   C.3       1 RES1   0.0000
   157 C58       6.7215    0.1808   -1.4727   C.3       1 RES1   0.0000
   158 C59       8.0179   -0.2249   -0.7618   C.3       1 RES1   0.0000
   159 C60       7.9557   -0.1990    0.7684   C.3       1 RES1   0.0000
   160 C61       7.5699    1.1677    1.3269   C.3       1 RES1   0.0000
   161 C62       7.4750    1.1967    2.8498   C.3       1 RES1   0.0000
   162 C63       7.1980    2.6168    3.3414   C.3       1 RES1   0.0000
   163 C64       7.1043    2.7444    4.8618   C.3       1 RES1   0.0000
   164 C65       5.9042    2.0427    5.4971   C.3       1 RES1   0.0000
   165 C66       4.5642    2.5857    5.0147   C.3       1 RES1   0.0000
   166 C67       3.2374   -0.0247   -0.7693   C.2       1 RES1   0.0000
   167 O4        2.0962    0.1675   -1.2447   O.2       1 RES1   0.0000
   168 C68       3.4447    0.2545    0.7426   C.3       1 RES1   0.0000
   169 C69       3.6315   -0.9482    1.6694   C.3       1 RES1   0.0000
   170 O5        2.2645    0.8927    1.2426   O.3       1 RES1   0.0000
   171 C70       2.3566    2.3079    1.4266   C.3       1 RES1   0.0000
   172 C71       1.5960    2.6431    2.7101   C.3       1 RES1   0.0000
   173 C72       1.6613    3.0083    0.2441   C.2       1 RES1   0.0000
   174 O6        0.6866    2.4184   -0.2557   O.2       1 RES1   0.0000
   175 N4        2.0600    4.2160   -0.1367   N.am      1 RES1   0.0000
   176 C73       1.3173    4.9410   -1.1745   C.3       1 RES1   0.0000
   177 C74       1.2929    4.2634   -2.5598   C.3       1 RES1   0.0000
   178 C75      -0.1280    3.8567   -2.9395   C.3       1 RES1   0.0000
   179 C76      -0.2768    3.1185   -4.2677   C.3       1 RES1   0.0000
   180 C77      -0.0753    3.9325   -5.5445   C.3       1 RES1   0.0000
   181 C78      -0.5059    3.0774   -6.7372   C.3       1 RES1   0.0000
   182 C79      -0.1241    3.6586   -8.0947   C.3       1 RES1   0.0000
   183 C80      -0.6141    2.7905   -9.2580   C.3       1 RES1   0.0000
   184 C81      -0.1580    1.3302   -9.2125   C.3       1 RES1   0.0000
   185 C82       1.3573    1.1727   -9.1696   C.3       1 RES1   0.0000
   186 C83       3.3081    4.8156    0.3275   C.3       1 RES1   0.0000
   187 C84       4.5020    4.2196   -0.4220   C.3       1 RES1   0.0000
   188 C85       5.8170    4.9027   -0.0690   C.3       1 RES1   0.0000
   189 C86       6.9676    4.2704   -0.8456   C.3       1 RES1   0.0000
   190 C87       8.2972    4.9782   -0.6031   C.3       1 RES1   0.0000
   191 C88       8.3356    6.3985   -1.1627   C.3       1 RES1   0.0000
   192 C89       8.1741    6.4530   -2.6800   C.3       1 RES1   0.0000
   193 C90       8.3062    7.8841   -3.1948   C.3       1 RES1   0.0000
   194 C91       8.3720    7.9803   -4.7188   C.3       1 RES1   0.0000
   195 C92       7.0648    7.6040   -5.4049   C.3       1 RES1   0.0000
   196 H93       2.7379    9.7563   -2.7103   H         1 RES1   0.0000
   197 H94       4.3519    9.1089   -2.4289   H         1 RES1   0.0000
   198 H95       2.9508    8.3572   -1.6599   H         1 RES1   0.0000
   199 H96       3.4716    8.4455   -4.6758   H         1 RES1   0.0000
   200 H97       2.0907    7.6708   -3.9031   H         1 RES1   0.0000
   201 H98       3.6290    6.1232   -2.7089   H         1 RES1   0.0000
   202 H99       5.0115    6.8901   -3.4799   H         1 RES1   0.0000
   203 H100      4.2447    6.1610   -5.6981   H         1 RES1   0.0000
   204 H101      2.7481    5.5439   -5.0242   H         1 RES1   0.0000
   205 H102      4.2328    4.0013   -3.5560   H         1 RES1   0.0000
   206 H103      5.5618    4.4597   -4.6189   H         1 RES1   0.0000
   207 H104      4.0515    3.7042   -6.5700   H         1 RES1   0.0000
   208 H105      3.0096    2.9780   -5.3511   H         1 RES1   0.0000
   209 H106      5.9538    2.3746   -5.8639   H         1 RES1   0.0000
   210 H107      4.6016    1.3565   -6.3407   H         1 RES1   0.0000
   211 H108      5.3801    1.9662   -3.4578   H         1 RES1   0.0000
   212 H109      5.8564    0.5517   -4.3903   H         1 RES1   0.0000
   213 H110      3.3240    0.1789   -4.7746   H         1 RES1   0.0000
   214 H111      3.0707    1.2285   -3.3878   H         1 RES1   0.0000
   215 H112      4.8769   -1.2234   -3.3357   H         1 RES1   0.0000
   216 H113      3.1344   -1.3056   -3.0137   H         1 RES1   0.0000
   217 H114      5.8193   -1.7523   -1.3580   H         1 RES1   0.0000
   218 H115      5.5498   -0.7173    0.0482   H         1 RES1   0.0000
   219 H116      6.4715    1.2183   -1.2545   H         1 RES1   0.0000
   220 H117      6.8898    0.1045   -2.5439   H         1 RES1   0.0000
   221 H118      8.8090    0.4493   -1.0926   H         1 RES1   0.0000
   222 H119      8.2924   -1.2327   -1.0807   H         1 RES1   0.0000
   223 H120      8.9441   -0.4634    1.1428   H         1 RES1   0.0000
   224 H121      7.2671   -0.9610    1.1447   H         1 RES1   0.0000
   225 H122      6.5995    1.4761    0.9252   H         1 RES1   0.0000
   226 H123      8.3103    1.9010    1.0040   H         1 RES1   0.0000
   227 H124      8.4090    0.8399    3.2831   H         1 RES1   0.0000
   228 H125      6.6805    0.5207    3.1747   H         1 RES1   0.0000
   229 H126      6.2786    2.9892    2.8795   H         1 RES1   0.0000
   230 H127      8.0102    3.2596    2.9971   H         1 RES1   0.0000
   231 H128      7.0632    3.8059    5.1143   H         1 RES1   0.0000
   232 H129      8.0151    2.3373    5.3020   H         1 RES1   0.0000
   233 H130      5.9680    2.1794    6.5767   H         1 RES1   0.0000
   234 H131      5.9525    0.9703    5.3050   H         1 RES1   0.0000
   235 H132      4.5063    3.6579    5.1863   H         1 RES1   0.0000
   236 H133      3.7475    2.1069    5.5512   H         1 RES1   0.0000
   237 H134      4.4334    2.4004    3.9498   H         1 RES1   0.0000
   238 H135      4.3058    0.9288    0.8470   H         1 RES1   0.0000
   239 H136      4.4722   -1.5780    1.4117   H         1 RES1   0.0000
   240 H137      2.7245   -1.5474    1.6545   H         1 RES1   0.0000
   241 H138      3.7878   -0.5730    2.6785   H         1 RES1   0.0000
   242 H139      3.4044    2.5959    1.5285   H         1 RES1   0.0000
   243 H140      0.5847    2.2452    2.6266   H         1 RES1   0.0000
   244 H141      1.5584    3.7159    2.8757   H         1 RES1   0.0000
   245 H142      2.0873    2.1806    3.5622   H         1 RES1   0.0000
   246 H143      1.7585    5.9343   -1.2531   H         1 RES1   0.0000
   247 H144      0.2905    5.0589   -0.8165   H         1 RES1   0.0000
   248 H145      1.9324    3.3810   -2.5480   H         1 RES1   0.0000
   249 H146      1.6845    4.9481   -3.3066   H         1 RES1   0.0000
   250 H147     -0.7471    4.7546   -2.9692   H         1 RES1   0.0000
   251 H148     -0.4899    3.1925   -2.1531   H         1 RES1   0.0000
   252 H149     -1.3040    2.7431   -4.3109   H         1 RES1   0.0000
   253 H150      0.3995    2.2579   -4.2797   H         1 RES1   0.0000
   254 H151      0.9695    4.2170   -5.6603   H         1 RES1   0.0000
   255 H152     -0.6683    4.8473   -5.5059   H         1 RES1   0.0000
   256 H153     -1.5890    2.9337   -6.7048   H         1 RES1   0.0000
   257 H154     -0.0387    2.0962   -6.6300   H         1 RES1   0.0000
   258 H155      0.9601    3.7688   -8.1504   H         1 RES1   0.0000
   259 H156     -0.5608    4.6537   -8.2015   H         1 RES1   0.0000
   260 H157     -0.2621    3.2363  -10.1891   H         1 RES1   0.0000
   261 H158     -1.7062    2.8083   -9.2809   H         1 RES1   0.0000
   262 H159     -0.5390    0.8309  -10.1049   H         1 RES1   0.0000
   263 H160     -0.6040    0.8268   -8.3511   H         1 RES1   0.0000
   264 H161      1.8114    1.6775  -10.0172   H         1 RES1   0.0000
   265 H162      1.6303    0.1206   -9.2126   H         1 RES1   0.0000
   266 H163      1.7737    1.5948   -8.2577   H         1 RES1   0.0000
   267 H164      3.4103    4.6934    1.4082   H         1 RES1   0.0000
   268 H165      3.2742    5.8879    0.1309   H         1 RES1   0.0000
   269 H166      4.3326    4.3396   -1.4933   H         1 RES1   0.0000
   270 H167      4.5733    3.1456   -0.2246   H         1 RES1   0.0000
   271 H168      6.0125    4.8298    1.0019   H         1 RES1   0.0000
   272 H169      5.7408    5.9586   -0.3213   H         1 RES1   0.0000
   273 H170      6.7336    4.2840   -1.9109   H         1 RES1   0.0000
   274 H171      7.0657    3.2270   -0.5446   H         1 RES1   0.0000
   275 H172      9.0940    4.3925   -1.0655   H         1 RES1   0.0000
   276 H173      8.4917    5.0127    0.4709   H         1 RES1   0.0000
   277 H174      9.2946    6.8441   -0.8975   H         1 RES1   0.0000
   278 H175      7.5618    7.0081   -0.6921   H         1 RES1   0.0000
   279 H176      7.1988    6.0566   -2.9676   H         1 RES1   0.0000
   280 H177      8.9398    5.8274   -3.1444   H         1 RES1   0.0000
   281 H178      9.2185    8.3156   -2.7804   H         1 RES1   0.0000
   282 H179      7.4661    8.4806   -2.8286   H         1 RES1   0.0000
   283 H180      9.1731    7.3348   -5.0845   H         1 RES1   0.0000
   284 H181      8.6251    9.0072   -4.9867   H         1 RES1   0.0000
   285 H182      6.8230    6.5568   -5.2398   H         1 RES1   0.0000
   286 H183      7.1420    7.7653   -6.4764   H         1 RES1   0.0000
   287 H184      6.2504    8.2182   -5.0274   H         1 RES1   0.0000
   288 C93      -1.7808   -6.8472    6.6033   C.3       1 RES1   0.0000
   289 C94      -0.2881   -6.5342    6.5892   C.3       1 RES1   0.0000
   290 C95       0.2850   -6.6131    5.1761   C.3       1 RES1   0.0000
   291 C96       1.7836   -6.3194    5.1153   C.3       1 RES1   0.0000
   292 C97       2.2987   -6.3831    3.6782   C.3       1 RES1   0.0000
   293 C98       3.7681   -5.9952    3.5434   C.3       1 RES1   0.0000
   294 C99       4.3846   -6.4499    2.2197   C.3       1 RES1   0.0000
   295 C100      3.6864   -5.9573    0.9488   C.3       1 RES1   0.0000
   296 C101      3.6559   -4.4314    0.8531   C.3       1 RES1   0.0000
   297 C102      3.8107   -3.8583   -0.5603   C.3       1 RES1   0.0000
   298 N5        2.6162   -3.8910   -1.4065   N.am      1 RES1   0.0000
   299 C103      2.6361   -4.7731   -2.5626   C.3       1 RES1   0.0000
   300 C104      2.3630   -6.2430   -2.2292   C.3       1 RES1   0.0000
   301 C105      2.0504   -7.0554   -3.4881   C.3       1 RES1   0.0000
   302 C106      0.7004   -6.7348   -4.1304   C.3       1 RES1   0.0000
   303 C107     -0.4902   -7.0253   -3.2185   C.3       1 RES1   0.0000
   304 C108     -1.8252   -6.8891   -3.9480   C.3       1 RES1   0.0000
   305 C109     -3.0018   -7.2547   -3.0439   C.3       1 RES1   0.0000
   306 C110     -4.3510   -7.2756   -3.7643   C.3       1 RES1   0.0000
   307 C111     -4.8225   -5.9339   -4.3265   C.3       1 RES1   0.0000
   308 C112     -5.0811   -4.8795   -3.2557   C.3       1 RES1   0.0000
   309 C113      1.6515   -3.0120   -1.1495   C.2       1 RES1   0.0000
   310 O7        1.7093   -2.2141   -0.1973   O.2       1 RES1   0.0000
   311 C114      0.3829   -2.9248   -2.0190   C.3       1 RES1   0.0000
   312 C115      0.5847   -2.0075   -3.2205   C.3       1 RES1   0.0000
   313 O8       -0.6225   -2.3527   -1.1748   O.3       1 RES1   0.0000
   314 C116     -1.1126   -3.3379   -0.2505   C.3       1 RES1   0.0000
   315 C117     -2.4372   -3.8590   -0.8075   C.3       1 RES1   0.0000
   316 C118     -1.0410   -2.8030    1.1852   C.2       1 RES1   0.0000
   317 O9       -0.5915   -1.6560    1.3876   O.2       1 RES1   0.0000
   318 N6       -1.3008   -3.6179    2.2058   N.am      1 RES1   0.0000
   319 C119     -1.1215   -3.0103    3.5283   C.3       1 RES1   0.0000
   320 C120      0.3461   -2.7651    3.9076   C.3       1 RES1   0.0000
   321 C121      0.4106   -1.7104    5.0138   C.3       1 RES1   0.0000
   322 C122      1.8082   -1.1808    5.3178   C.3       1 RES1   0.0000
   323 C123      2.7253   -2.1973    5.9861   C.3       1 RES1   0.0000
   324 C124      4.1285   -1.6319    6.1745   C.3       1 RES1   0.0000
   325 C125      5.0588   -2.6322    6.8541   C.3       1 RES1   0.0000
   326 C126      6.5091   -2.1532    6.9263   C.3       1 RES1   0.0000
   327 C127      7.1864   -1.9401    5.5711   C.3       1 RES1   0.0000
   328 C128      7.2105   -3.1891    4.6979   C.3       1 RES1   0.0000
   329 C129     -1.7726   -5.0028    2.1320   C.3       1 RES1   0.0000
   330 C130     -0.8423   -5.9800    1.4120   C.3       1 RES1   0.0000
   331 C131     -1.3175   -7.4289    1.4872   C.3       1 RES1   0.0000
   332 C132     -0.3422   -8.2965    0.6925   C.3       1 RES1   0.0000
   333 C133     -0.7945   -9.7433    0.5130   C.3       1 RES1   0.0000
   334 C134     -0.9894  -10.5108    1.8191   C.3       1 RES1   0.0000
   335 C135      0.2642  -10.5672    2.6883   C.3       1 RES1   0.0000
   336 C136      0.0237  -11.3902    3.9517   C.3       1 RES1   0.0000
   337 C137      1.2669  -11.5365    4.8292   C.3       1 RES1   0.0000
   338 C138      1.7386  -10.2155    5.4263   C.3       1 RES1   0.0000
   339 H185     -2.1694   -6.8118    7.6171   H         1 RES1   0.0000
   340 H186     -1.9650   -7.8423    6.2039   H         1 RES1   0.0000
   341 H187     -2.3357   -6.1269    6.0023   H         1 RES1   0.0000
   342 H188      0.2365   -7.2437    7.2307   H         1 RES1   0.0000
   343 H189     -0.1191   -5.5336    6.9959   H         1 RES1   0.0000
   344 H190     -0.2443   -5.8963    4.5404   H         1 RES1   0.0000
   345 H191      0.1002   -7.6115    4.7729   H         1 RES1   0.0000
   346 H192      2.3180   -7.0492    5.7240   H         1 RES1   0.0000
   347 H193      1.9830   -5.3307    5.5384   H         1 RES1   0.0000
   348 H194      1.6994   -5.7076    3.0607   H         1 RES1   0.0000
   349 H195      2.1591   -7.3976    3.2994   H         1 RES1   0.0000
   350 H196      4.3361   -6.4629    4.3482   H         1 RES1   0.0000
   351 H197      3.8656   -4.9135    3.6623   H         1 RES1   0.0000
   352 H198      4.3960   -7.5409    2.1995   H         1 RES1   0.0000
   353 H199      5.4221   -6.1132    2.1890   H         1 RES1   0.0000
   354 H200      2.6798   -6.3690    0.8871   H         1 RES1   0.0000
   355 H201      4.2561   -6.3563    0.1094   H         1 RES1   0.0000
   356 H202      4.5024   -4.0526    1.4273   H         1 RES1   0.0000
   357 H203      2.7484   -4.0317    1.3033   H         1 RES1   0.0000
   358 H204      4.6076   -4.3918   -1.0813   H         1 RES1   0.0000
   359 H205      4.0837   -2.8057   -0.4590   H         1 RES1   0.0000
   360 H206      3.6183   -4.6946   -3.0368   H         1 RES1   0.0000
   361 H207      1.8996   -4.4303   -3.2836   H         1 RES1   0.0000
   362 H208      1.5365   -6.3146   -1.5225   H         1 RES1   0.0000
   363 H209      3.2337   -6.6838   -1.7503   H         1 RES1   0.0000
   364 H210      2.0635   -8.1133   -3.2214   H         1 RES1   0.0000
   365 H211      2.8400   -6.8934   -4.2246   H         1 RES1   0.0000
   366 H212      0.6060   -7.3530   -5.0223   H         1 RES1   0.0000
   367 H213      0.6628   -5.6931   -4.4624   H         1 RES1   0.0000
   368 H214     -0.4879   -6.3427   -2.3612   H         1 RES1   0.0000
   369 H215     -0.4010   -8.0411   -2.8303   H         1 RES1   0.0000
   370 H216     -1.8259   -7.5519   -4.8134   H         1 RES1   0.0000
   371 H217     -1.9328   -5.8664   -4.3171   H         1 RES1   0.0000
   372 H218     -3.0454   -6.5713   -2.1917   H         1 RES1   0.0000
   373 H219     -2.8231   -8.2541   -2.6422   H         1 RES1   0.0000
   374 H220     -5.1042   -7.6467   -3.0658   H         1 RES1   0.0000
   375 H221     -4.2896   -7.9866   -4.5890   H         1 RES1   0.0000
   376 H222     -5.7521   -6.1112   -4.8674   H         1 RES1   0.0000
   377 H223     -4.0962   -5.5517   -5.0460   H         1 RES1   0.0000
   378 H224     -5.7522   -5.2686   -2.4936   H         1 RES1   0.0000
   379 H225     -5.5392   -3.9979   -3.6994   H         1 RES1   0.0000
   380 H226     -4.1554   -4.5752   -2.7765   H         1 RES1   0.0000
   381 H227      0.0443   -3.9106   -2.3564   H         1 RES1   0.0000
   382 H228     -0.3511   -1.8976   -3.7618   H         1 RES1   0.0000
   383 H229      1.3179   -2.4211   -3.9069   H         1 RES1   0.0000
   384 H230      0.9271   -1.0267   -2.8855   H         1 RES1   0.0000
   385 H231     -0.3875   -4.1555   -0.2333   H         1 RES1   0.0000
   386 H232     -3.0448   -4.3787   -0.0783   H         1 RES1   0.0000
   387 H233     -2.2273   -4.5518   -1.6209   H         1 RES1   0.0000
   388 H234     -3.0051   -3.0262   -1.2077   H         1 RES1   0.0000
   389 H235     -1.6069   -3.6350    4.2769   H         1 RES1   0.0000
   390 H236     -1.6327   -2.0422    3.5032   H         1 RES1   0.0000
   391 H237      0.8859   -2.3888    3.0347   H         1 RES1   0.0000
   392 H238      0.8175   -3.6915    4.2291   H         1 RES1   0.0000
   393 H239     -0.0286   -2.1090    5.9294   H         1 RES1   0.0000
   394 H240     -0.1892   -0.8591    4.6876   H         1 RES1   0.0000
   395 H241      1.7041   -0.3175    5.9797   H         1 RES1   0.0000
   396 H242      2.2626   -0.8283    4.3877   H         1 RES1   0.0000
   397 H243      2.7879   -3.0983    5.3737   H         1 RES1   0.0000
   398 H244      2.3096   -2.4800    6.9537   H         1 RES1   0.0000
   399 H245      4.0797   -0.7181    6.7699   H         1 RES1   0.0000
   400 H246      4.5263   -1.3674    5.1922   H         1 RES1   0.0000
   401 H247      5.0110   -3.5872    6.3272   H         1 RES1   0.0000
   402 H248      4.7040   -2.8076    7.8714   H         1 RES1   0.0000
   403 H249      7.0834   -2.8898    7.4900   H         1 RES1   0.0000
   404 H250      6.5448   -1.2134    7.4816   H         1 RES1   0.0000
   405 H251      8.2122   -1.6190    5.7567   H         1 RES1   0.0000
   406 H252      6.6928   -1.1306    5.0288   H         1 RES1   0.0000
   407 H253      7.6646   -4.0154    5.2369   H         1 RES1   0.0000
   408 H254      7.7927   -3.0089    3.7962   H         1 RES1   0.0000
   409 H255      6.2057   -3.4846    4.4033   H         1 RES1   0.0000
   410 H256     -2.7657   -5.0332    1.6771   H         1 RES1   0.0000
   411 H257     -1.8880   -5.3537    3.1591   H         1 RES1   0.0000
   412 H258      0.1584   -5.9069    1.8390   H         1 RES1   0.0000
   413 H259     -0.7739   -5.7625    0.3491   H         1 RES1   0.0000
   414 H260     -2.3143   -7.5105    1.0510   H         1 RES1   0.0000
   415 H261     -1.3714   -7.7562    2.5223   H         1 RES1   0.0000
   416 H262      0.6346   -8.2710    1.1781   H         1 RES1   0.0000
   417 H263     -0.2214   -7.8585   -0.3024   H         1 RES1   0.0000
   418 H264     -0.0440  -10.2552   -0.0926   H         1 RES1   0.0000
   419 H265     -1.7333   -9.7563   -0.0453   H         1 RES1   0.0000
   420 H266     -1.2883  -11.5300    1.5704   H         1 RES1   0.0000
   421 H267     -1.8064  -10.0663    2.3907   H         1 RES1   0.0000
   422 H268      0.5591   -9.5566    2.9737   H         1 RES1   0.0000
   423 H269      1.0848  -11.0093    2.1189   H         1 RES1   0.0000
   424 H270     -0.3188  -12.3848    3.6621   H         1 RES1   0.0000
   425 H271     -0.7757  -10.9258    4.5351   H         1 RES1   0.0000
   426 H272      2.0742  -11.9800    4.2427   H         1 RES1   0.0000
   427 H273      1.0329  -12.2250    5.6429   H         1 RES1   0.0000
   428 H274      2.1116   -9.5462    4.6547   H         1 RES1   0.0000
   429 H275      2.5430  -10.3891    6.1357   H         1 RES1   0.0000
   430 H276      0.9216   -9.7252    5.9515   H         1 RES1   0.0000
@<TRIPOS>BOND
     1     1    24    1
     2     1    27    1
     3     1    31    1
     4     1   167    1
     5     1   170    1
     6     1   174    1
     7     1   310    1
     8     1   313    1
     9     1   317    1
    10     2     3    1
    11     2    53    1
    12     2    54    1
    13     2    55    1
    14     3     4    1
    15     3    56    1
    16     3    57    1
    17     4     5    1
    18     4    58    1
    19     4    59    1
    20     5     6    1
    21     5    60    1
    22     5    61    1
    23     6     7    1
    24     6    62    1
    25     6    63    1
    26     7     8    1
    27     7    64    1
    28     7    65    1
    29     8     9    1
    30     8    66    1
    31     8    67    1
    32     9    10    1
    33     9    68    1
    34     9    69    1
    35    10    11    1
    36    10    70    1
    37    10    71    1
    38    11    12    1
    39    11    72    1
    40    11    73    1
    41    12    13    1
    42    12    23    1
    43    13    14    1
    44    13    74    1
    45    13    75    1
    46    14    15    1
    47    14    76    1
    48    14    77    1
    49    15    16    1
    50    15    78    1
    51    15    79    1
    52    16    17    1
    53    16    80    1
    54    16    81    1
    55    17    18    1
    56    17    82    1
    57    17    83    1
    58    18    19    1
    59    18    84    1
    60    18    85    1
    61    19    20    1
    62    19    86    1
    63    19    87    1
    64    20    21    1
    65    20    88    1
    66    20    89    1
    67    21    22    1
    68    21    90    1
    69    21    91    1
    70    22    92    1
    71    22    93    1
    72    22    94    1
    73    23    24    2
    74    23    25    1
    75    25    26    1
    76    25    27    1
    77    25    95    1
    78    26    96    1
    79    26    97    1
    80    26    98    1
    81    27    28    1
    82    28    29    1
    83    28    30    1
    84    28    99    1
    85    29   100    1
    86    29   101    1
    87    29   102    1
    88    30    31    2
    89    30    32    1
    90    32    33    1
    91    32    43    1
    92    33    34    1
    93    33   103    1
    94    33   104    1
    95    34    35    1
    96    34   105    1
    97    34   106    1
    98    35    36    1
    99    35   107    1
   100    35   108    1
   101    36    37    1
   102    36   109    1
   103    36   110    1
   104    37    38    1
   105    37   111    1
   106    37   112    1
   107    38    39    1
   108    38   113    1
   109    38   114    1
   110    39    40    1
   111    39   115    1
   112    39   116    1
   113    40    41    1
   114    40   117    1
   115    40   118    1
   116    41    42    1
   117    41   119    1
   118    41   120    1
   119    42   121    1
   120    42   122    1
   121    42   123    1
   122    43    44    1
   123    43   124    1
   124    43   125    1
   125    44    45    1
   126    44   126    1
   127    44   127    1
   128    45    46    1
   129    45   128    1
   130    45   129    1
   131    46    47    1
   132    46   130    1
   133    46   131    1
   134    47    48    1
   135    47   132    1
   136    47   133    1
   137    48    49    1
   138    48   134    1
   139    48   135    1
   140    49    50    1
   141    49   136    1
   142    49   137    1
   143    50    51    1
   144    50   138    1
   145    50   139    1
   146    51    52    1
   147    51   140    1
   148    51   141    1
   149    52   142    1
   150    52   143    1
   151    52   144    1
   152   145   146    1
   153   145   196    1
   154   145   197    1
   155   145   198    1
   156   146   147    1
   157   146   199    1
   158   146   200    1
   159   147   148    1
   160   147   201    1
   161   147   202    1
   162   148   149    1
   163   148   203    1
   164   148   204    1
   165   149   150    1
   166   149   205    1
   167   149   206    1
   168   150   151    1
   169   150   207    1
   170   150   208    1
   171   151   152    1
   172   151   209    1
   173   151   210    1
   174   152   153    1
   175   152   211    1
   176   152   212    1
   177   153   154    1
   178   153   213    1
   179   153   214    1
   180   154   155    1
   181   154   215    1
   182   154   216    1
   183   155   156    1
   184   155   166    1
   185   156   157    1
   186   156   217    1
   187   156   218    1
   188   157   158    1
   189   157   219    1
   190   157   220    1
   191   158   159    1
   192   158   221    1
   193   158   222    1
   194   159   160    1
   195   159   223    1
   196   159   224    1
   197   160   161    1
   198   160   225    1
   199   160   226    1
   200   161   162    1
   201   161   227    1
   202   161   228    1
   203   162   163    1
   204   162   229    1
   205   162   230    1
   206   163   164    1
   207   163   231    1
   208   163   232    1
   209   164   165    1
   210   164   233    1
   211   164   234    1
   212   165   235    1
   213   165   236    1
   214   165   237    1
   215   166   167    2
   216   166   168    1
   217   168   169    1
   218   168   170    1
   219   168   238    1
   220   169   239    1
   221   169   240    1
   222   169   241    1
   223   170   171    1
   224   171   172    1
   225   171   173    1
   226   171   242    1
   227   172   243    1
   228   172   244    1
   229   172   245    1
   230   173   174    2
   231   173   175    1
   232   175   176    1
   233   175   186    1
   234   176   177    1
   235   176   246    1
   236   176   247    1
   237   177   178    1
   238   177   248    1
   239   177   249    1
   240   178   179    1
   241   178   250    1
   242   178   251    1
   243   179   180    1
   244   179   252    1
   245   179   253    1
   246   180   181    1
   247   180   254    1
   248   180   255    1
   249   181   182    1
   250   181   256    1
   251   181   257    1
   252   182   183    1
   253   182   258    1
   254   182   259    1
   255   183   184    1
   256   183   260    1
   257   183   261    1
   258   184   185    1
   259   184   262    1
   260   184   263    1
   261   185   264    1
   262   185   265    1
   263   185   266    1
   264   186   187    1
   265   186   267    1
   266   186   268    1
   267   187   188    1
   268   187   269    1
   269   187   270    1
   270   188   189    1
   271   188   271    1
   272   188   272    1
   273   189   190    1
   274   189   273    1
   275   189   274    1
   276   190   191    1
   277   190   275    1
   278   190   276    1
   279   191   192    1
   280   191   277    1
   281   191   278    1
   282   192   193    1
   283   192   279    1
   284   192   280    1
   285   193   194    1
   286   193   281    1
   287   193   282    1
   288   194   195    1
   289   194   283    1
   290   194   284    1
   291   195   285    1
   292   195   286    1
   293   195   287    1
   294   288   289    1
   295   288   339    1
   296   288   340    1
   297   288   341    1
   298   289   290    1
   299   289   342    1
   300   289   343    1
   301   290   291    1
   302   290   344    1
   303   290   345    1
   304   291   292    1
   305   291   346    1
   306   291   347    1
   307   292   293    1
   308   292   348    1
   309   292   349    1
   310   293   294    1
   311   293   350    1
   312   293   351    1
   313   294   295    1
   314   294   352    1
   315   294   353    1
   316   295   296    1
   317   295   354    1
   318   295   355    1
   319   296   297    1
   320   296   356    1
   321   296   357    1
   322   297   298    1
   323   297   358    1
   324   297   359    1
   325   298   299    1
   326   298   309    1
   327   299   300    1
   328   299   360    1
   329   299   361    1
   330   300   301    1
   331   300   362    1
   332   300   363    1
   333   301   302    1
   334   301   364    1
   335   301   365    1
   336   302   303    1
   337   302   366    1
   338   302   367    1
   339   303   304    1
   340   303   368    1
   341   303   369    1
   342   304   305    1
   343   304   370    1
   344   304   371    1
   345   305   306    1
   346   305   372    1
   347   305   373    1
   348   306   307    1
   349   306   374    1
   350   306   375    1
   351   307   308    1
   352   307   376    1
   353   307   377    1
   354   308   378    1
   355   308   379    1
   356   308   380    1
   357   309   310    2
   358   309   311    1
   359   311   312    1
   360   311   313    1
   361   311   381    1
   362   312   382    1
   363   312   383    1
   364   312   384    1
   365   313   314    1
   366   314   315    1
   367   314   316    1
   368   314   385    1
   369   315   386    1
   370   315   387    1
   371   315   388    1
   372   316   317    2
   373   316   318    1
   374   318   319    1
   375   318   329    1
   376   319   320    1
   377   319   389    1
   378   319   390    1
   379   320   321    1
   380   320   391    1
   381   320   392    1
   382   321   322    1
   383   321   393    1
   384   321   394    1
   385   322   323    1
   386   322   395    1
   387   322   396    1
   388   323   324    1
   389   323   397    1
   390   323   398    1
   391   324   325    1
   392   324   399    1
   393   324   400    1
   394   325   326    1
   395   325   401    1
   396   325   402    1
   397   326   327    1
   398   326   403    1
   399   326   404    1
   400   327   328    1
   401   327   405    1
   402   327   406    1
   403   328   407    1
   404   328   408    1
   405   328   409    1
   406   329   330    1
   407   329   410    1
   408   329   411    1
   409   330   331    1
   410   330   412    1
   411   330   413    1
   412   331   332    1
   413   331   414    1
   414   331   415    1
   415   332   333    1
   416   332   416    1
   417   332   417    1
   418   333   334    1
   419   333   418    1
   420   333   419    1
   421   334   335    1
   422   334   420    1
   423   334   421    1
   424   335   336    1
   425   335   422    1
   426   335   423    1
   427   336   337    1
   428   336   424    1
   429   336   425    1
   430   337   338    1
   431   337   426    1
   432   337   427    1
   433   338   428    1
   434   338   429    1
   435   338   430    1
@<TRIPOS>SUBSTRUCTURE
     1 RES1      430 GROUP             0 ****  ****    0  
