@<TRIPOS>MOLECULE
am_c3_9H2O_c0_0_nunpairedes_0_charge_3 Charge: 3 Unpaired_Electrons: 3 XTB_Unpaired_Electrons: 0 XTB_Charge: 3
   358   363     1     0     0
SMALL
NoCharges
****
Generated from Architector

@<TRIPOS>ATOM
     1 Nd1      -0.0721    0.1199    0.3188   Nd        1 RES1   0.0000
     2 C1       -2.4781   -6.2198   -5.7962   C.3       1 RES1   0.0000
     3 C2       -3.5254   -7.1649   -5.2139   C.3       1 RES1   0.0000
     4 C3       -4.2073   -6.6308   -3.9483   C.3       1 RES1   0.0000
     5 C4       -5.3510   -5.6535   -4.2444   C.3       1 RES1   0.0000
     6 C5       -5.8860   -4.8739   -3.0276   C.3       1 RES1   0.0000
     7 C6       -5.2467   -3.4983   -2.8106   C.3       1 RES1   0.0000
     8 C7       -5.9828   -2.7029   -1.7306   C.3       1 RES1   0.0000
     9 C8       -5.1313   -1.7027   -0.9438   C.3       1 RES1   0.0000
    10 N1       -4.6625   -0.4570   -1.5748   N.am      1 RES1   0.0000
    11 C9       -5.5709    0.2882   -2.4395   C.3       1 RES1   0.0000
    12 C10      -6.1879    1.5956   -1.9125   C.3       1 RES1   0.0000
    13 C11      -7.2713    1.4783   -0.8434   C.3       1 RES1   0.0000
    14 C12      -6.7292    1.2331    0.5647   C.3       1 RES1   0.0000
    15 C13      -7.8287    1.0264    1.6162   C.3       1 RES1   0.0000
    16 C14      -8.3368   -0.4131    1.7736   C.3       1 RES1   0.0000
    17 C15      -8.9855   -1.0086    0.5250   C.3       1 RES1   0.0000
    18 C16      -9.7756   -2.2729    0.8325   C.3       1 RES1   0.0000
    19 C17      -3.4587   -0.0210   -1.2011   C.2       1 RES1   0.0000
    20 O1       -2.7642   -0.5766   -0.3323   O.2       1 RES1   0.0000
    21 C18      -2.8370    1.2476   -1.8035   C.3       1 RES1   0.0000
    22 C19      -1.9696    0.9865   -3.0312   C.3       1 RES1   0.0000
    23 O2       -1.9435    1.7553   -0.8110   O.3       1 RES1   0.0000
    24 C20      -2.5320    2.7278    0.0626   C.3       1 RES1   0.0000
    25 C21      -2.7069    4.0117   -0.7351   C.3       1 RES1   0.0000
    26 C22      -1.6177    2.7461    1.3064   C.2       1 RES1   0.0000
    27 O3       -1.1667    1.6153    1.6327   O.2       1 RES1   0.0000
    28 N2       -1.3266    3.8144    2.0333   N.am      1 RES1   0.0000
    29 C23      -1.8587    5.1691    1.9705   C.3       1 RES1   0.0000
    30 C24      -3.0684    5.3542    2.8955   C.3       1 RES1   0.0000
    31 C25      -4.3130    4.6382    2.3692   C.3       1 RES1   0.0000
    32 C26      -5.3981    4.3824    3.4213   C.3       1 RES1   0.0000
    33 C27      -5.1184    3.1404    4.2691   C.3       1 RES1   0.0000
    34 C28      -6.2807    2.8220    5.2088   C.3       1 RES1   0.0000
    35 C29      -6.0417    1.5781    6.0661   C.3       1 RES1   0.0000
    36 C30      -6.1522    0.2702    5.2894   C.3       1 RES1   0.0000
    37 C31      -0.4263    3.5775    3.1640   C.3       1 RES1   0.0000
    38 C32       1.0076    3.2936    2.7250   C.3       1 RES1   0.0000
    39 C33       1.8488    4.4904    2.2640   C.3       1 RES1   0.0000
    40 C34       3.2997    4.2868    2.7137   C.3       1 RES1   0.0000
    41 C35       4.3223    5.2355    2.0862   C.3       1 RES1   0.0000
    42 C36       4.7563    4.7757    0.6975   C.3       1 RES1   0.0000
    43 C37       5.9897    5.5049    0.1656   C.3       1 RES1   0.0000
    44 C38       5.7968    7.0058   -0.0110   C.3       1 RES1   0.0000
    45 H1       -2.0313   -6.6673   -6.6790   H         1 RES1   0.0000
    46 H2       -2.9137   -5.2704   -6.0961   H         1 RES1   0.0000
    47 H3       -1.6770   -6.0300   -5.0811   H         1 RES1   0.0000
    48 H4       -4.2808   -7.3734   -5.9716   H         1 RES1   0.0000
    49 H5       -3.0317   -8.1085   -4.9762   H         1 RES1   0.0000
    50 H6       -4.6116   -7.4729   -3.3828   H         1 RES1   0.0000
    51 H7       -3.4436   -6.1626   -3.3251   H         1 RES1   0.0000
    52 H8       -5.0429   -4.9467   -5.0164   H         1 RES1   0.0000
    53 H9       -6.1711   -6.2428   -4.6574   H         1 RES1   0.0000
    54 H10      -6.9566   -4.7099   -3.1596   H         1 RES1   0.0000
    55 H11      -5.7664   -5.4795   -2.1258   H         1 RES1   0.0000
    56 H12      -4.2068   -3.5950   -2.5289   H         1 RES1   0.0000
    57 H13      -5.2755   -2.9577   -3.7498   H         1 RES1   0.0000
    58 H14      -6.8694   -2.2347   -2.1565   H         1 RES1   0.0000
    59 H15      -6.3422   -3.4136   -0.9814   H         1 RES1   0.0000
    60 H16      -5.6879   -1.4151   -0.0483   H         1 RES1   0.0000
    61 H17      -4.2214   -2.2122   -0.6316   H         1 RES1   0.0000
    62 H18      -5.0574    0.5196   -3.3767   H         1 RES1   0.0000
    63 H19      -6.3883   -0.3874   -2.6792   H         1 RES1   0.0000
    64 H20      -5.4297    2.2863   -1.5458   H         1 RES1   0.0000
    65 H21      -6.6460    2.0542   -2.7904   H         1 RES1   0.0000
    66 H22      -7.8089    2.4287   -0.8223   H         1 RES1   0.0000
    67 H23      -7.9847    0.7110   -1.1287   H         1 RES1   0.0000
    68 H24      -6.0568    0.3747    0.5891   H         1 RES1   0.0000
    69 H25      -6.1398    2.1114    0.8497   H         1 RES1   0.0000
    70 H26      -7.4319    1.3351    2.5880   H         1 RES1   0.0000
    71 H27      -8.6693    1.6833    1.3830   H         1 RES1   0.0000
    72 H28      -7.5099   -1.0546    2.0967   H         1 RES1   0.0000
    73 H29      -9.0755   -0.4115    2.5792   H         1 RES1   0.0000
    74 H30      -9.6599   -0.2716    0.0870   H         1 RES1   0.0000
    75 H31      -8.2120   -1.2454   -0.2085   H         1 RES1   0.0000
    76 H32     -10.5866   -2.0585    1.5221   H         1 RES1   0.0000
    77 H33     -10.2050   -2.6746   -0.0807   H         1 RES1   0.0000
    78 H34      -9.1400   -3.0340    1.2782   H         1 RES1   0.0000
    79 H35      -3.6018    1.9743   -2.0690   H         1 RES1   0.0000
    80 H36      -1.1617    0.3022   -2.7493   H         1 RES1   0.0000
    81 H37      -2.5352    0.5475   -3.8437   H         1 RES1   0.0000
    82 H38      -1.5471    1.9305   -3.3769   H         1 RES1   0.0000
    83 H39      -3.5047    2.3415    0.4173   H         1 RES1   0.0000
    84 H40      -1.7340    4.4686   -0.8912   H         1 RES1   0.0000
    85 H41      -3.1220    3.7817   -1.7151   H         1 RES1   0.0000
    86 H42      -3.3972    4.7047   -0.2684   H         1 RES1   0.0000
    87 H43      -1.0550    5.8364    2.2821   H         1 RES1   0.0000
    88 H44      -2.1210    5.4531    0.9608   H         1 RES1   0.0000
    89 H45      -2.8276    4.9869    3.8918   H         1 RES1   0.0000
    90 H46      -3.2609    6.4228    2.9871   H         1 RES1   0.0000
    91 H47      -4.7426    5.2241    1.5540   H         1 RES1   0.0000
    92 H48      -4.0153    3.6681    1.9679   H         1 RES1   0.0000
    93 H49      -5.5101    5.2561    4.0635   H         1 RES1   0.0000
    94 H50      -6.3498    4.2339    2.9047   H         1 RES1   0.0000
    95 H51      -4.9522    2.2891    3.6025   H         1 RES1   0.0000
    96 H52      -4.2105    3.2849    4.8600   H         1 RES1   0.0000
    97 H53      -6.4470    3.6795    5.8625   H         1 RES1   0.0000
    98 H54      -7.1904    2.6830    4.6215   H         1 RES1   0.0000
    99 H55      -5.0551    1.6472    6.5292   H         1 RES1   0.0000
   100 H56      -6.7811    1.5632    6.8674   H         1 RES1   0.0000
   101 H57      -5.4021    0.2083    4.5026   H         1 RES1   0.0000
   102 H58      -6.0105   -0.5739    5.9605   H         1 RES1   0.0000
   103 H59      -7.1379    0.1790    4.8381   H         1 RES1   0.0000
   104 H60      -0.4563    4.4404    3.8266   H         1 RES1   0.0000
   105 H61      -0.7966    2.7055    3.7068   H         1 RES1   0.0000
   106 H62       1.4972    2.8530    3.5902   H         1 RES1   0.0000
   107 H63       0.9883    2.5444    1.9266   H         1 RES1   0.0000
   108 H64       1.8061    4.5796    1.1791   H         1 RES1   0.0000
   109 H65       1.4793    5.4246    2.6890   H         1 RES1   0.0000
   110 H66       3.3283    4.3969    3.7988   H         1 RES1   0.0000
   111 H67       3.5963    3.2598    2.4788   H         1 RES1   0.0000
   112 H68       3.9081    6.2414    2.0376   H         1 RES1   0.0000
   113 H69       5.2023    5.2723    2.7300   H         1 RES1   0.0000
   114 H70       4.9991    3.7084    0.7480   H         1 RES1   0.0000
   115 H71       3.9216    4.8966    0.0031   H         1 RES1   0.0000
   116 H72       6.8218    5.3331    0.8498   H         1 RES1   0.0000
   117 H73       6.2673    5.0688   -0.7979   H         1 RES1   0.0000
   118 H74       5.7050    7.5032    0.9505   H         1 RES1   0.0000
   119 H75       6.6565    7.4281   -0.5261   H         1 RES1   0.0000
   120 H76       4.9075    7.2228   -0.6003   H         1 RES1   0.0000
   121 C39       7.4078    3.2428   -8.1198   C.3       1 RES1   0.0000
   122 C40       6.8472    4.6326   -7.8413   C.3       1 RES1   0.0000
   123 C41       5.7943    4.6594   -6.7346   C.3       1 RES1   0.0000
   124 C42       6.3927    4.4703   -5.3428   C.3       1 RES1   0.0000
   125 C43       5.3243    4.3126   -4.2605   C.3       1 RES1   0.0000
   126 C44       4.4622    5.5624   -4.0888   C.3       1 RES1   0.0000
   127 C45       3.5226    5.4684   -2.8840   C.3       1 RES1   0.0000
   128 C46       2.3478    4.5153   -3.1270   C.3       1 RES1   0.0000
   129 N3        1.5223    4.2633   -1.9458   N.am      1 RES1   0.0000
   130 C47       0.8858    5.4453   -1.3468   C.3       1 RES1   0.0000
   131 C48       0.1101    6.3253   -2.3313   C.3       1 RES1   0.0000
   132 C49      -0.4997    7.5776   -1.6724   C.3       1 RES1   0.0000
   133 C50      -2.0052    7.5542   -1.3861   C.3       1 RES1   0.0000
   134 C51      -2.9389    7.8773   -2.5615   C.3       1 RES1   0.0000
   135 C52      -2.9789    6.8630   -3.7132   C.3       1 RES1   0.0000
   136 C53      -2.0747    7.2400   -4.8858   C.3       1 RES1   0.0000
   137 C54      -2.0585    6.1557   -5.9554   C.3       1 RES1   0.0000
   138 C55       1.3535    3.0577   -1.4042   C.2       1 RES1   0.0000
   139 O4        0.5120    2.7852   -0.5295   O.2       1 RES1   0.0000
   140 C56       2.2809    1.8955   -1.8164   C.3       1 RES1   0.0000
   141 C57       1.7762    1.1350   -3.0544   C.3       1 RES1   0.0000
   142 O5        2.2692    1.0059   -0.6898   O.3       1 RES1   0.0000
   143 C58       3.5245    0.8844   -0.0069   C.3       1 RES1   0.0000
   144 C59       4.3856   -0.0342   -0.8813   C.3       1 RES1   0.0000
   145 C60       3.1804    0.4300    1.4359   C.2       1 RES1   0.0000
   146 O6        1.9708    0.3998    1.7506   O.2       1 RES1   0.0000
   147 N4        4.1477    0.1422    2.3113   N.am      1 RES1   0.0000
   148 C61       5.5565    0.0875    1.9165   C.3       1 RES1   0.0000
   149 C62       6.6302    0.3347    2.9760   C.3       1 RES1   0.0000
   150 C63       8.0398    0.2187    2.3720   C.3       1 RES1   0.0000
   151 C64       8.5070   -1.2117    2.0658   C.3       1 RES1   0.0000
   152 C65       8.1057   -1.7732    0.6994   C.3       1 RES1   0.0000
   153 C66       8.8121   -3.0910    0.3589   C.3       1 RES1   0.0000
   154 C67       8.5169   -4.2549    1.3087   C.3       1 RES1   0.0000
   155 C68       7.0418   -4.6370    1.3774   C.3       1 RES1   0.0000
   156 C69       3.7792   -0.5854    3.5316   C.3       1 RES1   0.0000
   157 C70       4.0516    0.0733    4.8878   C.3       1 RES1   0.0000
   158 C71       3.3630    1.4241    5.0998   C.3       1 RES1   0.0000
   159 C72       2.1352    1.4012    6.0113   C.3       1 RES1   0.0000
   160 C73       0.9542    0.5965    5.4719   C.3       1 RES1   0.0000
   161 C74      -0.3433    0.9155    6.2151   C.3       1 RES1   0.0000
   162 C75      -1.5218    0.0125    5.8370   C.3       1 RES1   0.0000
   163 C76      -2.1068    0.2591    4.4467   C.3       1 RES1   0.0000
   164 H77       8.0787    3.2827   -8.9741   H         1 RES1   0.0000
   165 H78       6.6056    2.5430   -8.3505   H         1 RES1   0.0000
   166 H79       7.9702    2.8592   -7.2709   H         1 RES1   0.0000
   167 H80       6.3957    5.0149   -8.7582   H         1 RES1   0.0000
   168 H81       7.6624    5.3048   -7.5703   H         1 RES1   0.0000
   169 H82       5.0528    3.8777   -6.9201   H         1 RES1   0.0000
   170 H83       5.2838    5.6223   -6.7737   H         1 RES1   0.0000
   171 H84       7.0280    5.3255   -5.1033   H         1 RES1   0.0000
   172 H85       7.0230    3.5787   -5.3386   H         1 RES1   0.0000
   173 H86       5.8227    4.1000   -3.3097   H         1 RES1   0.0000
   174 H87       4.6969    3.4531   -4.5145   H         1 RES1   0.0000
   175 H88       3.8906    5.7509   -4.9966   H         1 RES1   0.0000
   176 H89       5.1298    6.4124   -3.9386   H         1 RES1   0.0000
   177 H90       3.1470    6.4643   -2.6556   H         1 RES1   0.0000
   178 H91       4.1088    5.1241   -2.0336   H         1 RES1   0.0000
   179 H92       2.7242    3.5738   -3.5152   H         1 RES1   0.0000
   180 H93       1.6960    4.9426   -3.8938   H         1 RES1   0.0000
   181 H94       1.6828    6.0509   -0.9024   H         1 RES1   0.0000
   182 H95       0.2445    5.0786   -0.5444   H         1 RES1   0.0000
   183 H96      -0.6668    5.7374   -2.8113   H         1 RES1   0.0000
   184 H97       0.8022    6.6609   -3.1022   H         1 RES1   0.0000
   185 H98      -0.3128    8.4360   -2.3128   H         1 RES1   0.0000
   186 H99       0.0234    7.7653   -0.7347   H         1 RES1   0.0000
   187 H100     -2.2102    8.3125   -0.6261   H         1 RES1   0.0000
   188 H101     -2.2931    6.5961   -0.9600   H         1 RES1   0.0000
   189 H102     -2.6839    8.8567   -2.9674   H         1 RES1   0.0000
   190 H103     -3.9470    7.9679   -2.1472   H         1 RES1   0.0000
   191 H104     -4.0007    6.8008   -4.0951   H         1 RES1   0.0000
   192 H105     -2.7180    5.8681   -3.3407   H         1 RES1   0.0000
   193 H106     -1.0604    7.4320   -4.5381   H         1 RES1   0.0000
   194 H107     -2.4469    8.1652   -5.3254   H         1 RES1   0.0000
   195 H108     -1.6841    5.2133   -5.5546   H         1 RES1   0.0000
   196 H109     -1.4269    6.4500   -6.7888   H         1 RES1   0.0000
   197 H110     -3.0627    5.9874   -6.3359   H         1 RES1   0.0000
   198 H111      3.2987    2.2609   -1.9742   H         1 RES1   0.0000
   199 H112      0.9933    1.6811   -3.5718   H         1 RES1   0.0000
   200 H113      1.3784    0.1654   -2.7375   H         1 RES1   0.0000
   201 H114      2.5815    0.9423   -3.7601   H         1 RES1   0.0000
   202 H115      3.9734    1.8850    0.0788   H         1 RES1   0.0000
   203 H116      3.9253   -1.0164   -0.9287   H         1 RES1   0.0000
   204 H117      5.4160   -0.1351   -0.5711   H         1 RES1   0.0000
   205 H118      4.4007    0.3716   -1.8918   H         1 RES1   0.0000
   206 H119      5.7174    0.8344    1.1414   H         1 RES1   0.0000
   207 H120      5.7260   -0.9120    1.5096   H         1 RES1   0.0000
   208 H121      6.5658   -0.3890    3.7846   H         1 RES1   0.0000
   209 H122      6.5105    1.3337    3.3967   H         1 RES1   0.0000
   210 H123      8.7241    0.6339    3.1127   H         1 RES1   0.0000
   211 H124      8.1274    0.8383    1.4780   H         1 RES1   0.0000
   212 H125      8.1506   -1.8718    2.8575   H         1 RES1   0.0000
   213 H126      9.5974   -1.2173    2.1031   H         1 RES1   0.0000
   214 H127      8.3633   -1.0444   -0.0744   H         1 RES1   0.0000
   215 H128      7.0293   -1.9478    0.6448   H         1 RES1   0.0000
   216 H129      9.8905   -2.9239    0.3475   H         1 RES1   0.0000
   217 H130      8.5180   -3.3836   -0.6532   H         1 RES1   0.0000
   218 H131      8.8770   -4.0156    2.3089   H         1 RES1   0.0000
   219 H132      9.0821   -5.1212    0.9621   H         1 RES1   0.0000
   220 H133      6.4576   -3.8587    1.8672   H         1 RES1   0.0000
   221 H134      6.9208   -5.5566    1.9452   H         1 RES1   0.0000
   222 H135      6.6485   -4.7996    0.3750   H         1 RES1   0.0000
   223 H136      4.3166   -1.5379    3.4900   H         1 RES1   0.0000
   224 H137      2.7156   -0.7738    3.4512   H         1 RES1   0.0000
   225 H138      5.1209    0.1908    5.0297   H         1 RES1   0.0000
   226 H139      3.7112   -0.6353    5.6437   H         1 RES1   0.0000
   227 H140      3.0931    1.8310    4.1276   H         1 RES1   0.0000
   228 H141      4.0823    2.1077    5.5494   H         1 RES1   0.0000
   229 H142      1.8177    2.4326    6.1740   H         1 RES1   0.0000
   230 H143      2.4234    1.0021    6.9833   H         1 RES1   0.0000
   231 H144      1.1639   -0.4656    5.5938   H         1 RES1   0.0000
   232 H145      0.8241    0.8035    4.4072   H         1 RES1   0.0000
   233 H146     -0.6196    1.9589    6.0493   H         1 RES1   0.0000
   234 H147     -0.1648    0.7956    7.2842   H         1 RES1   0.0000
   235 H148     -2.3234    0.1692    6.5637   H         1 RES1   0.0000
   236 H149     -1.2127   -1.0319    5.9224   H         1 RES1   0.0000
   237 H150     -2.9542   -0.4077    4.2898   H         1 RES1   0.0000
   238 H151     -2.4714    1.2831    4.3701   H         1 RES1   0.0000
   239 H152     -1.3809    0.0854    3.6428   H         1 RES1   0.0000
   240 C77      -6.9501   -6.8929    4.2593   C.3       1 RES1   0.0000
   241 C78      -6.7589   -7.4173    2.8415   C.3       1 RES1   0.0000
   242 C79      -5.6294   -6.7331    2.0679   C.3       1 RES1   0.0000
   243 C80      -4.2363   -7.1849    2.5103   C.3       1 RES1   0.0000
   244 C81      -3.1069   -6.4571    1.7683   C.3       1 RES1   0.0000
   245 C82      -2.8788   -6.9802    0.3465   C.3       1 RES1   0.0000
   246 C83      -1.9457   -6.0838   -0.4804   C.3       1 RES1   0.0000
   247 C84      -2.7113   -4.8294   -0.9228   C.3       1 RES1   0.0000
   248 N5       -1.9045   -3.7066   -1.3995   N.am      1 RES1   0.0000
   249 C85      -1.5557   -3.6683   -2.8332   C.3       1 RES1   0.0000
   250 C86      -1.9584   -2.3655   -3.5549   C.3       1 RES1   0.0000
   251 C87      -2.7692   -2.5962   -4.8421   C.3       1 RES1   0.0000
   252 C88      -3.6077   -1.3711   -5.2338   C.3       1 RES1   0.0000
   253 C89      -4.6117   -1.6034   -6.3787   C.3       1 RES1   0.0000
   254 C90      -5.8980   -0.7598   -6.2652   C.3       1 RES1   0.0000
   255 C91      -6.9488   -1.4811   -5.4103   C.3       1 RES1   0.0000
   256 C92      -8.1690   -0.6690   -4.9757   C.3       1 RES1   0.0000
   257 C93      -1.4040   -2.7909   -0.5728   C.2       1 RES1   0.0000
   258 O7       -0.6648   -1.8716   -0.9828   O.2       1 RES1   0.0000
   259 C94      -1.6168   -2.9802    0.9518   C.3       1 RES1   0.0000
   260 C95      -2.9446   -2.6238    1.6343   C.3       1 RES1   0.0000
   261 O8       -0.6540   -2.1800    1.6333   O.3       1 RES1   0.0000
   262 C96       0.4190   -2.9129    2.2114   C.3       1 RES1   0.0000
   263 C97       0.7199   -2.2509    3.5508   C.3       1 RES1   0.0000
   264 C98       1.5980   -2.8259    1.2331   C.2       1 RES1   0.0000
   265 O9        1.6356   -1.8382    0.4785   O.2       1 RES1   0.0000
   266 N6        2.4964   -3.8025    1.1900   N.am      1 RES1   0.0000
   267 C99       2.6102   -4.8069    2.2363   C.3       1 RES1   0.0000
   268 C100      2.4412   -6.2568    1.7724   C.3       1 RES1   0.0000
   269 C101      1.9001   -7.1466    2.9001   C.3       1 RES1   0.0000
   270 C102      2.6579   -7.0018    4.2312   C.3       1 RES1   0.0000
   271 C103      1.8748   -6.2019    5.2770   C.3       1 RES1   0.0000
   272 C104      2.6211   -6.0196    6.6016   C.3       1 RES1   0.0000
   273 C105      3.8748   -5.1446    6.5369   C.3       1 RES1   0.0000
   274 C106      3.6010   -3.6906    6.1654   C.3       1 RES1   0.0000
   275 C107      3.5689   -3.7462    0.1959   C.3       1 RES1   0.0000
   276 C108      3.2345   -4.2807   -1.2003   C.3       1 RES1   0.0000
   277 C109      2.1640   -3.4834   -1.9513   C.3       1 RES1   0.0000
   278 C110      2.3545   -3.4663   -3.4715   C.3       1 RES1   0.0000
   279 C111      3.4146   -2.4681   -3.9401   C.3       1 RES1   0.0000
   280 C112      3.4052   -2.3286   -5.4632   C.3       1 RES1   0.0000
   281 C113      4.5105   -1.4324   -6.0277   C.3       1 RES1   0.0000
   282 C114      4.3313    0.0551   -5.7381   C.3       1 RES1   0.0000
   283 H153     -7.8273   -7.3548    4.7031   H         1 RES1   0.0000
   284 H154     -7.1040   -5.8156    4.2587   H         1 RES1   0.0000
   285 H155     -6.0975   -7.1213    4.8929   H         1 RES1   0.0000
   286 H156     -7.6890   -7.2656    2.2922   H         1 RES1   0.0000
   287 H157     -6.5696   -8.4904    2.8744   H         1 RES1   0.0000
   288 H158     -5.7149   -5.6495    2.1958   H         1 RES1   0.0000
   289 H159     -5.7549   -6.9555    1.0054   H         1 RES1   0.0000
   290 H160     -4.1385   -8.2608    2.3574   H         1 RES1   0.0000
   291 H161     -4.1251   -6.9961    3.5797   H         1 RES1   0.0000
   292 H162     -2.1740   -6.5704    2.3293   H         1 RES1   0.0000
   293 H163     -3.3531   -5.3927    1.7471   H         1 RES1   0.0000
   294 H164     -3.8360   -7.0650   -0.1687   H         1 RES1   0.0000
   295 H165     -2.4494   -7.9804    0.4139   H         1 RES1   0.0000
   296 H166     -1.5852   -6.6299   -1.3533   H         1 RES1   0.0000
   297 H167     -1.0718   -5.8212    0.1168   H         1 RES1   0.0000
   298 H168     -3.3347   -4.4843   -0.1020   H         1 RES1   0.0000
   299 H169     -3.3784   -5.1314   -1.7271   H         1 RES1   0.0000
   300 H170     -2.0569   -4.5103   -3.3123   H         1 RES1   0.0000
   301 H171     -0.4757   -3.8225   -2.9157   H         1 RES1   0.0000
   302 H172     -1.0525   -1.8177   -3.8083   H         1 RES1   0.0000
   303 H173     -2.5331   -1.7560   -2.8626   H         1 RES1   0.0000
   304 H174     -3.4324   -3.4403   -4.6774   H         1 RES1   0.0000
   305 H175     -2.0918   -2.8605   -5.6555   H         1 RES1   0.0000
   306 H176     -2.9387   -0.5593   -5.5386   H         1 RES1   0.0000
   307 H177     -4.1569   -1.0433   -4.3480   H         1 RES1   0.0000
   308 H178     -4.9042   -2.6542   -6.4096   H         1 RES1   0.0000
   309 H179     -4.1166   -1.3823   -7.3241   H         1 RES1   0.0000
   310 H180     -6.3083   -0.6080   -7.2644   H         1 RES1   0.0000
   311 H181     -5.6648    0.2250   -5.8486   H         1 RES1   0.0000
   312 H182     -6.4650   -1.8449   -4.5048   H         1 RES1   0.0000
   313 H183     -7.3027   -2.3514   -5.9692   H         1 RES1   0.0000
   314 H184     -7.8933    0.2277   -4.4174   H         1 RES1   0.0000
   315 H185     -8.7953   -1.2947   -4.3370   H         1 RES1   0.0000
   316 H186     -8.7772   -0.3669   -5.8239   H         1 RES1   0.0000
   317 H187     -1.4084   -4.0357    1.1490   H         1 RES1   0.0000
   318 H188     -3.0601   -1.5413    1.6353   H         1 RES1   0.0000
   319 H189     -2.8789   -2.9668    2.6676   H         1 RES1   0.0000
   320 H190     -3.8224   -3.0809    1.1908   H         1 RES1   0.0000
   321 H191      0.1061   -3.9482    2.3691   H         1 RES1   0.0000
   322 H192      0.7649   -1.1730    3.3753   H         1 RES1   0.0000
   323 H193      1.6584   -2.6038    3.9740   H         1 RES1   0.0000
   324 H194     -0.0799   -2.4504    4.2636   H         1 RES1   0.0000
   325 H195      1.8612   -4.6181    2.9966   H         1 RES1   0.0000
   326 H196      3.5867   -4.6810    2.7122   H         1 RES1   0.0000
   327 H197      3.3965   -6.6511    1.4296   H         1 RES1   0.0000
   328 H198      1.7475   -6.2902    0.9306   H         1 RES1   0.0000
   329 H199      1.9505   -8.1791    2.5555   H         1 RES1   0.0000
   330 H200      0.8441   -6.9217    3.0693   H         1 RES1   0.0000
   331 H201      3.6277   -6.5403    4.0505   H         1 RES1   0.0000
   332 H202      2.8487   -7.9897    4.6496   H         1 RES1   0.0000
   333 H203      0.9477   -6.7411    5.4876   H         1 RES1   0.0000
   334 H204      1.5946   -5.2178    4.8928   H         1 RES1   0.0000
   335 H205      2.9051   -7.0044    6.9768   H         1 RES1   0.0000
   336 H206      1.9302   -5.5811    7.3267   H         1 RES1   0.0000
   337 H207      4.5902   -5.5727    5.8343   H         1 RES1   0.0000
   338 H208      4.3422   -5.1665    7.5217   H         1 RES1   0.0000
   339 H209      3.2988   -3.5980    5.1229   H         1 RES1   0.0000
   340 H210      4.4986   -3.0943    6.3102   H         1 RES1   0.0000
   341 H211      2.8151   -3.2783    6.7938   H         1 RES1   0.0000
   342 H212      4.3998   -4.3227    0.5986   H         1 RES1   0.0000
   343 H213      3.8715   -2.7019    0.1035   H         1 RES1   0.0000
   344 H214      2.9347   -5.3251   -1.1278   H         1 RES1   0.0000
   345 H215      4.1647   -4.2554   -1.7689   H         1 RES1   0.0000
   346 H216      2.1510   -2.4488   -1.6017   H         1 RES1   0.0000
   347 H217      1.1900   -3.9138   -1.7112   H         1 RES1   0.0000
   348 H218      1.4098   -3.1824   -3.9422   H         1 RES1   0.0000
   349 H219      2.6064   -4.4621   -3.8369   H         1 RES1   0.0000
   350 H220      4.4056   -2.7875   -3.6156   H         1 RES1   0.0000
   351 H221      3.2067   -1.4985   -3.4844   H         1 RES1   0.0000
   352 H222      2.4324   -1.9433   -5.7798   H         1 RES1   0.0000
   353 H223      3.5203   -3.3221   -5.8994   H         1 RES1   0.0000
   354 H224      4.5334   -1.5680   -7.1099   H         1 RES1   0.0000
   355 H225      5.4769   -1.7586   -5.6408   H         1 RES1   0.0000
   356 H226      3.3356    0.3857   -6.0319   H         1 RES1   0.0000
   357 H227      5.0584    0.6300   -6.3068   H         1 RES1   0.0000
   358 H228      4.4877    0.2757   -4.6820   H         1 RES1   0.0000
@<TRIPOS>BOND
     1     1    20    1
     2     1    23    1
     3     1    27    1
     4     1   139    1
     5     1   142    1
     6     1   146    1
     7     1   258    1
     8     1   261    1
     9     1   265    1
    10     2     3    1
    11     2    45    1
    12     2    46    1
    13     2    47    1
    14     3     4    1
    15     3    48    1
    16     3    49    1
    17     4     5    1
    18     4    50    1
    19     4    51    1
    20     5     6    1
    21     5    52    1
    22     5    53    1
    23     6     7    1
    24     6    54    1
    25     6    55    1
    26     7     8    1
    27     7    56    1
    28     7    57    1
    29     8     9    1
    30     8    58    1
    31     8    59    1
    32     9    10    1
    33     9    60    1
    34     9    61    1
    35    10    11    1
    36    10    19    1
    37    11    12    1
    38    11    62    1
    39    11    63    1
    40    12    13    1
    41    12    64    1
    42    12    65    1
    43    13    14    1
    44    13    66    1
    45    13    67    1
    46    14    15    1
    47    14    68    1
    48    14    69    1
    49    15    16    1
    50    15    70    1
    51    15    71    1
    52    16    17    1
    53    16    72    1
    54    16    73    1
    55    17    18    1
    56    17    74    1
    57    17    75    1
    58    18    76    1
    59    18    77    1
    60    18    78    1
    61    19    20    2
    62    19    21    1
    63    21    22    1
    64    21    23    1
    65    21    79    1
    66    22    80    1
    67    22    81    1
    68    22    82    1
    69    23    24    1
    70    24    25    1
    71    24    26    1
    72    24    83    1
    73    25    84    1
    74    25    85    1
    75    25    86    1
    76    26    27    2
    77    26    28    1
    78    28    29    1
    79    28    37    1
    80    29    30    1
    81    29    87    1
    82    29    88    1
    83    30    31    1
    84    30    89    1
    85    30    90    1
    86    31    32    1
    87    31    91    1
    88    31    92    1
    89    32    33    1
    90    32    93    1
    91    32    94    1
    92    33    34    1
    93    33    95    1
    94    33    96    1
    95    34    35    1
    96    34    97    1
    97    34    98    1
    98    35    36    1
    99    35    99    1
   100    35   100    1
   101    36   101    1
   102    36   102    1
   103    36   103    1
   104    37    38    1
   105    37   104    1
   106    37   105    1
   107    38    39    1
   108    38   106    1
   109    38   107    1
   110    39    40    1
   111    39   108    1
   112    39   109    1
   113    40    41    1
   114    40   110    1
   115    40   111    1
   116    41    42    1
   117    41   112    1
   118    41   113    1
   119    42    43    1
   120    42   114    1
   121    42   115    1
   122    43    44    1
   123    43   116    1
   124    43   117    1
   125    44   118    1
   126    44   119    1
   127    44   120    1
   128   121   122    1
   129   121   164    1
   130   121   165    1
   131   121   166    1
   132   122   123    1
   133   122   167    1
   134   122   168    1
   135   123   124    1
   136   123   169    1
   137   123   170    1
   138   124   125    1
   139   124   171    1
   140   124   172    1
   141   125   126    1
   142   125   173    1
   143   125   174    1
   144   126   127    1
   145   126   175    1
   146   126   176    1
   147   127   128    1
   148   127   177    1
   149   127   178    1
   150   128   129    1
   151   128   179    1
   152   128   180    1
   153   129   130    1
   154   129   138    1
   155   130   131    1
   156   130   181    1
   157   130   182    1
   158   131   132    1
   159   131   183    1
   160   131   184    1
   161   132   133    1
   162   132   185    1
   163   132   186    1
   164   133   134    1
   165   133   187    1
   166   133   188    1
   167   134   135    1
   168   134   189    1
   169   134   190    1
   170   135   136    1
   171   135   191    1
   172   135   192    1
   173   136   137    1
   174   136   193    1
   175   136   194    1
   176   137   195    1
   177   137   196    1
   178   137   197    1
   179   138   139    2
   180   138   140    1
   181   140   141    1
   182   140   142    1
   183   140   198    1
   184   141   199    1
   185   141   200    1
   186   141   201    1
   187   142   143    1
   188   143   144    1
   189   143   145    1
   190   143   202    1
   191   144   203    1
   192   144   204    1
   193   144   205    1
   194   145   146    2
   195   145   147    1
   196   147   148    1
   197   147   156    1
   198   148   149    1
   199   148   206    1
   200   148   207    1
   201   149   150    1
   202   149   208    1
   203   149   209    1
   204   150   151    1
   205   150   210    1
   206   150   211    1
   207   151   152    1
   208   151   212    1
   209   151   213    1
   210   152   153    1
   211   152   214    1
   212   152   215    1
   213   153   154    1
   214   153   216    1
   215   153   217    1
   216   154   155    1
   217   154   218    1
   218   154   219    1
   219   155   220    1
   220   155   221    1
   221   155   222    1
   222   156   157    1
   223   156   223    1
   224   156   224    1
   225   157   158    1
   226   157   225    1
   227   157   226    1
   228   158   159    1
   229   158   227    1
   230   158   228    1
   231   159   160    1
   232   159   229    1
   233   159   230    1
   234   160   161    1
   235   160   231    1
   236   160   232    1
   237   161   162    1
   238   161   233    1
   239   161   234    1
   240   162   163    1
   241   162   235    1
   242   162   236    1
   243   163   237    1
   244   163   238    1
   245   163   239    1
   246   240   241    1
   247   240   283    1
   248   240   284    1
   249   240   285    1
   250   241   242    1
   251   241   286    1
   252   241   287    1
   253   242   243    1
   254   242   288    1
   255   242   289    1
   256   243   244    1
   257   243   290    1
   258   243   291    1
   259   244   245    1
   260   244   292    1
   261   244   293    1
   262   245   246    1
   263   245   294    1
   264   245   295    1
   265   246   247    1
   266   246   296    1
   267   246   297    1
   268   247   248    1
   269   247   298    1
   270   247   299    1
   271   248   249    1
   272   248   257    1
   273   249   250    1
   274   249   300    1
   275   249   301    1
   276   250   251    1
   277   250   302    1
   278   250   303    1
   279   251   252    1
   280   251   304    1
   281   251   305    1
   282   252   253    1
   283   252   306    1
   284   252   307    1
   285   253   254    1
   286   253   308    1
   287   253   309    1
   288   254   255    1
   289   254   310    1
   290   254   311    1
   291   255   256    1
   292   255   312    1
   293   255   313    1
   294   256   314    1
   295   256   315    1
   296   256   316    1
   297   257   258    2
   298   257   259    1
   299   259   260    1
   300   259   261    1
   301   259   317    1
   302   260   318    1
   303   260   319    1
   304   260   320    1
   305   261   262    1
   306   262   263    1
   307   262   264    1
   308   262   321    1
   309   263   322    1
   310   263   323    1
   311   263   324    1
   312   264   265    2
   313   264   266    1
   314   266   267    1
   315   266   275    1
   316   267   268    1
   317   267   325    1
   318   267   326    1
   319   268   269    1
   320   268   327    1
   321   268   328    1
   322   269   270    1
   323   269   329    1
   324   269   330    1
   325   270   271    1
   326   270   331    1
   327   270   332    1
   328   271   272    1
   329   271   333    1
   330   271   334    1
   331   272   273    1
   332   272   335    1
   333   272   336    1
   334   273   274    1
   335   273   337    1
   336   273   338    1
   337   274   339    1
   338   274   340    1
   339   274   341    1
   340   275   276    1
   341   275   342    1
   342   275   343    1
   343   276   277    1
   344   276   344    1
   345   276   345    1
   346   277   278    1
   347   277   346    1
   348   277   347    1
   349   278   279    1
   350   278   348    1
   351   278   349    1
   352   279   280    1
   353   279   350    1
   354   279   351    1
   355   280   281    1
   356   280   352    1
   357   280   353    1
   358   281   282    1
   359   281   354    1
   360   281   355    1
   361   282   356    1
   362   282   357    1
   363   282   358    1
@<TRIPOS>SUBSTRUCTURE
     1 RES1      358 GROUP             0 ****  ****    0  
