@<TRIPOS>MOLECULE
am_c3_9H2O_c0_0_nunpairedes_0_charge_3 Charge: 3 Unpaired_Electrons: 3 XTB_Unpaired_Electrons: 0 XTB_Charge: 3
   214   219     1     0     0
SMALL
NoCharges
****
Generated from Architector

@<TRIPOS>ATOM
     1 Nd1       0.0020    0.0822   -0.2255   Nd        1 RES1   0.0000
     2 C1        0.0167   -2.0121    5.0175   C.3       1 RES1   0.0000
     3 C2       -1.3472   -2.5443    4.5886   C.3       1 RES1   0.0000
     4 C3       -1.2512   -3.9839    4.0890   C.3       1 RES1   0.0000
     5 C4       -2.5832   -4.6506    3.7405   C.3       1 RES1   0.0000
     6 C5       -3.3516   -4.0740    2.5451   C.3       1 RES1   0.0000
     7 C6       -4.2794   -2.9135    2.9110   C.3       1 RES1   0.0000
     8 C7       -5.3633   -2.6537    1.8644   C.3       1 RES1   0.0000
     9 C8       -4.8306   -1.8372    0.6838   C.3       1 RES1   0.0000
    10 N1       -4.4758   -0.4611    1.0326   N.am      1 RES1   0.0000
    11 C9       -5.6523    0.3492    1.2836   C.3       1 RES1   0.0000
    12 C10      -3.2070   -0.0766    1.1212   C.2       1 RES1   0.0000
    13 O1       -2.2374   -0.8518    0.9764   O.2       1 RES1   0.0000
    14 C11      -2.8427    1.4025    1.2805   C.3       1 RES1   0.0000
    15 O2       -1.9045    1.6181    0.2301   O.3       1 RES1   0.0000
    16 C12      -1.9359    2.9227   -0.3096   C.3       1 RES1   0.0000
    17 C13      -0.8581    2.8990   -1.3956   C.2       1 RES1   0.0000
    18 O3       -0.1523    1.8853   -1.5119   O.2       1 RES1   0.0000
    19 N2       -0.7572    3.9220   -2.2287   N.am      1 RES1   0.0000
    20 C14      -1.3408    5.2113   -1.9459   C.3       1 RES1   0.0000
    21 C15      -0.0979    3.6846   -3.5130   C.3       1 RES1   0.0000
    22 C16       1.3821    3.2931   -3.4816   C.3       1 RES1   0.0000
    23 C17       2.2877    4.3330   -2.8200   C.3       1 RES1   0.0000
    24 C18       3.7214    4.3296   -3.3589   C.3       1 RES1   0.0000
    25 C19       4.5530    3.0903   -3.0216   C.3       1 RES1   0.0000
    26 C20       4.3023    1.8288   -3.8559   C.3       1 RES1   0.0000
    27 C21       4.4827    2.0146   -5.3624   C.3       1 RES1   0.0000
    28 C22       4.2717    0.7032   -6.1126   C.3       1 RES1   0.0000
    29 H1       -0.0799   -1.0121    5.4326   H         1 RES1   0.0000
    30 H2        0.4623   -2.6509    5.7763   H         1 RES1   0.0000
    31 H3        0.6935   -1.9704    4.1631   H         1 RES1   0.0000
    32 H4       -2.0331   -2.5115    5.4362   H         1 RES1   0.0000
    33 H5       -1.7440   -1.8936    3.8037   H         1 RES1   0.0000
    34 H6       -0.5877   -4.0195    3.2210   H         1 RES1   0.0000
    35 H7       -0.7786   -4.5807    4.8719   H         1 RES1   0.0000
    36 H8       -2.3684   -5.6997    3.5329   H         1 RES1   0.0000
    37 H9       -3.2338   -4.6271    4.6135   H         1 RES1   0.0000
    38 H10      -2.6495   -3.7769    1.7625   H         1 RES1   0.0000
    39 H11      -3.9666   -4.8770    2.1351   H         1 RES1   0.0000
    40 H12      -4.7606   -3.1580    3.8551   H         1 RES1   0.0000
    41 H13      -3.7123   -1.9940    3.0589   H         1 RES1   0.0000
    42 H14      -5.7354   -3.6038    1.4777   H         1 RES1   0.0000
    43 H15      -6.2111   -2.1374    2.3156   H         1 RES1   0.0000
    44 H16      -5.5887   -1.7748   -0.1055   H         1 RES1   0.0000
    45 H17      -3.9372   -2.3111    0.2846   H         1 RES1   0.0000
    46 H18      -6.4266    0.0691    0.5686   H         1 RES1   0.0000
    47 H19      -6.0424    0.1743    2.2879   H         1 RES1   0.0000
    48 H20      -5.4752    1.4105    1.1688   H         1 RES1   0.0000
    49 H21      -3.6847    2.0965    1.2039   H         1 RES1   0.0000
    50 H22      -2.3320    1.5451    2.2416   H         1 RES1   0.0000
    51 H23      -2.9176    3.1364   -0.7722   H         1 RES1   0.0000
    52 H24      -1.7447    3.6744    0.4716   H         1 RES1   0.0000
    53 H25      -0.8390    5.6800   -1.1014   H         1 RES1   0.0000
    54 H26      -1.2159    5.8478   -2.8131   H         1 RES1   0.0000
    55 H27      -2.4038    5.1484   -1.7259   H         1 RES1   0.0000
    56 H28      -0.6401    2.8626   -3.9938   H         1 RES1   0.0000
    57 H29      -0.2230    4.5870   -4.1102   H         1 RES1   0.0000
    58 H30       1.4935    2.3188   -2.9990   H         1 RES1   0.0000
    59 H31       1.6634    3.1890   -4.5309   H         1 RES1   0.0000
    60 H32       1.8704    5.3277   -2.9994   H         1 RES1   0.0000
    61 H33       2.3039    4.1663   -1.7384   H         1 RES1   0.0000
    62 H34       3.7011    4.4799   -4.4365   H         1 RES1   0.0000
    63 H35       4.2314    5.1925   -2.9281   H         1 RES1   0.0000
    64 H36       5.6056    3.3521   -3.1368   H         1 RES1   0.0000
    65 H37       4.3946    2.8545   -1.9639   H         1 RES1   0.0000
    66 H38       5.0273    1.0760   -3.5287   H         1 RES1   0.0000
    67 H39       3.3016    1.4335   -3.6662   H         1 RES1   0.0000
    68 H40       3.7684    2.7469   -5.7404   H         1 RES1   0.0000
    69 H41       5.4863    2.3913   -5.5641   H         1 RES1   0.0000
    70 H42       3.2728    0.3105   -5.9281   H         1 RES1   0.0000
    71 H43       4.3839    0.8587   -7.1811   H         1 RES1   0.0000
    72 H44       5.0002   -0.0454   -5.8078   H         1 RES1   0.0000
    73 C23      -3.5567    0.4121    5.5155   C.3       1 RES1   0.0000
    74 C24      -2.9607    1.8015    5.3052   C.3       1 RES1   0.0000
    75 C25      -3.8742    2.6894    4.4596   C.3       1 RES1   0.0000
    76 C26      -3.4171    4.1430    4.2907   C.3       1 RES1   0.0000
    77 C27      -2.2395    4.4353    3.3491   C.3       1 RES1   0.0000
    78 C28      -0.8785    3.9058    3.8230   C.3       1 RES1   0.0000
    79 C29       0.3208    4.7748    3.4202   C.3       1 RES1   0.0000
    80 C30       0.8071    4.5337    1.9838   C.3       1 RES1   0.0000
    81 N3        1.9405    3.6144    1.8233   N.am      1 RES1   0.0000
    82 C31       3.2292    4.2547    1.9874   C.3       1 RES1   0.0000
    83 C32       1.7479    2.3885    1.3516   C.2       1 RES1   0.0000
    84 O4        0.6140    1.8704    1.2876   O.2       1 RES1   0.0000
    85 C33       2.9293    1.5631    0.8115   C.3       1 RES1   0.0000
    86 O5        2.4096    0.8689   -0.3146   O.3       1 RES1   0.0000
    87 C34       3.3587    0.0250   -0.9497   C.3       1 RES1   0.0000
    88 C35       2.5603   -0.7377   -2.0199   C.2       1 RES1   0.0000
    89 O6        1.3284   -0.5669   -2.0570   O.2       1 RES1   0.0000
    90 N4        3.1802   -1.5390   -2.8748   N.am      1 RES1   0.0000
    91 C36       4.5989   -1.8201   -2.8905   C.3       1 RES1   0.0000
    92 C37       2.4370   -2.0438   -4.0347   C.3       1 RES1   0.0000
    93 C38       1.3873   -3.1356   -3.7879   C.3       1 RES1   0.0000
    94 C39       1.9099   -4.4207   -3.1353   C.3       1 RES1   0.0000
    95 C40       1.2390   -5.7191   -3.6072   C.3       1 RES1   0.0000
    96 C41      -0.2349   -5.9220   -3.2501   C.3       1 RES1   0.0000
    97 C42      -1.2626   -5.1485   -4.0819   C.3       1 RES1   0.0000
    98 C43      -1.2320   -5.4425   -5.5821   C.3       1 RES1   0.0000
    99 C44      -2.2840   -4.6190   -6.3200   C.3       1 RES1   0.0000
   100 H45      -2.9077   -0.1780    6.1570   H         1 RES1   0.0000
   101 H46      -4.5339    0.4715    5.9873   H         1 RES1   0.0000
   102 H47      -3.6683   -0.1103    4.5653   H         1 RES1   0.0000
   103 H48      -2.8198    2.2788    6.2760   H         1 RES1   0.0000
   104 H49      -1.9793    1.6915    4.8392   H         1 RES1   0.0000
   105 H50      -4.0382    2.2272    3.4832   H         1 RES1   0.0000
   106 H51      -4.8451    2.7173    4.9596   H         1 RES1   0.0000
   107 H52      -4.2737    4.7032    3.9092   H         1 RES1   0.0000
   108 H53      -3.1856    4.5492    5.2745   H         1 RES1   0.0000
   109 H54      -2.4800    4.0533    2.3537   H         1 RES1   0.0000
   110 H55      -2.1810    5.5225    3.2668   H         1 RES1   0.0000
   111 H56      -0.9021    3.8544    4.9102   H         1 RES1   0.0000
   112 H57      -0.7093    2.8978    3.4388   H         1 RES1   0.0000
   113 H58       0.0478    5.8246    3.5302   H         1 RES1   0.0000
   114 H59       1.1497    4.5921    4.1023   H         1 RES1   0.0000
   115 H60      -0.0114    4.1304    1.3901   H         1 RES1   0.0000
   116 H61       1.1290    5.4812    1.5436   H         1 RES1   0.0000
   117 H62       3.3822    4.9985    1.2015   H         1 RES1   0.0000
   118 H63       3.2495    4.7645    2.9497   H         1 RES1   0.0000
   119 H64       4.0423    3.5398    1.9749   H         1 RES1   0.0000
   120 H65       3.7867    2.1743    0.5032   H         1 RES1   0.0000
   121 H66       3.2531    0.8362    1.5753   H         1 RES1   0.0000
   122 H67       4.1649    0.6217   -1.4004   H         1 RES1   0.0000
   123 H68       3.7972   -0.6816   -0.2306   H         1 RES1   0.0000
   124 H69       5.0933   -1.4482   -2.0022   H         1 RES1   0.0000
   125 H70       4.7475   -2.8982   -2.9435   H         1 RES1   0.0000
   126 H71       5.0629   -1.3642   -3.7673   H         1 RES1   0.0000
   127 H72       1.9137   -1.1884   -4.4723   H         1 RES1   0.0000
   128 H73       3.1748   -2.4105   -4.7480   H         1 RES1   0.0000
   129 H74       0.5735   -2.7112   -3.1991   H         1 RES1   0.0000
   130 H75       0.9968   -3.3799   -4.7767   H         1 RES1   0.0000
   131 H76       2.9693   -4.5272   -3.3713   H         1 RES1   0.0000
   132 H77       1.8226   -4.3418   -2.0487   H         1 RES1   0.0000
   133 H78       1.3643   -5.8182   -4.6830   H         1 RES1   0.0000
   134 H79       1.7906   -6.5446   -3.1534   H         1 RES1   0.0000
   135 H80      -0.4618   -6.9832   -3.3614   H         1 RES1   0.0000
   136 H81      -0.3781   -5.6821   -2.1910   H         1 RES1   0.0000
   137 H82      -2.2537   -5.4257   -3.7105   H         1 RES1   0.0000
   138 H83      -1.1350   -4.0719   -3.9431   H         1 RES1   0.0000
   139 H84      -0.2510   -5.2027   -5.9947   H         1 RES1   0.0000
   140 H85      -1.4146   -6.5039   -5.7525   H         1 RES1   0.0000
   141 H86      -2.1184   -3.5531   -6.1608   H         1 RES1   0.0000
   142 H87      -2.2359   -4.8134   -7.3871   H         1 RES1   0.0000
   143 H88      -3.2869   -4.8719   -5.9814   H         1 RES1   0.0000
   144 C45       1.5138    2.0697    5.5721   C.3       1 RES1   0.0000
   145 C46       2.6511    1.0634    5.4514   C.3       1 RES1   0.0000
   146 C47       3.7665    1.6062    4.5598   C.3       1 RES1   0.0000
   147 C48       5.0112    0.7213    4.4624   C.3       1 RES1   0.0000
   148 C49       4.9079   -0.4822    3.5222   C.3       1 RES1   0.0000
   149 C50       4.0147   -1.6138    4.0317   C.3       1 RES1   0.0000
   150 C51       4.2191   -2.9262    3.2740   C.3       1 RES1   0.0000
   151 C52       3.6155   -2.9303    1.8644   C.3       1 RES1   0.0000
   152 N5        2.2166   -3.3587    1.7539   N.am      1 RES1   0.0000
   153 C53       2.0343   -4.7630    2.0532   C.3       1 RES1   0.0000
   154 C54       1.2997   -2.5488    1.2417   C.2       1 RES1   0.0000
   155 O7        1.4982   -1.3261    1.0669   O.2       1 RES1   0.0000
   156 C55      -0.0549   -3.0829    0.7572   C.3       1 RES1   0.0000
   157 O8       -0.3301   -2.3558   -0.4407   O.3       1 RES1   0.0000
   158 C56      -1.4798   -2.8356   -1.1327   C.3       1 RES1   0.0000
   159 C57      -1.9918   -1.6519   -1.9782   C.2       1 RES1   0.0000
   160 O9       -1.4730   -0.5378   -1.7977   O.2       1 RES1   0.0000
   161 N6       -2.8993   -1.8496   -2.9244   N.am      1 RES1   0.0000
   162 C58      -3.7486   -3.0139   -3.0292   C.3       1 RES1   0.0000
   163 C59      -3.0446   -0.8683   -4.0079   C.3       1 RES1   0.0000
   164 C60      -3.4939    0.5463   -3.6352   C.3       1 RES1   0.0000
   165 C61      -4.8422    0.6188   -2.9157   C.3       1 RES1   0.0000
   166 C62      -5.6851    1.8487   -3.2701   C.3       1 RES1   0.0000
   167 C63      -5.1236    3.2160   -2.8753   C.3       1 RES1   0.0000
   168 C64      -3.9875    3.7843   -3.7326   C.3       1 RES1   0.0000
   169 C65      -4.2937    3.9013   -5.2260   C.3       1 RES1   0.0000
   170 C66      -3.0887    4.4424   -5.9899   C.3       1 RES1   0.0000
   171 H89       0.7173    1.6695    6.1934   H         1 RES1   0.0000
   172 H90       1.8561    3.0022    6.0151   H         1 RES1   0.0000
   173 H91       1.1117    2.2793    4.5837   H         1 RES1   0.0000
   174 H92       3.0592    0.8371    6.4363   H         1 RES1   0.0000
   175 H93       2.2428    0.1416    5.0380   H         1 RES1   0.0000
   176 H94       3.3656    1.7876    3.5580   H         1 RES1   0.0000
   177 H95       4.0731    2.5718    4.9691   H         1 RES1   0.0000
   178 H96       5.8381    1.3429    4.1121   H         1 RES1   0.0000
   179 H97       5.2785    0.3689    5.4574   H         1 RES1   0.0000
   180 H98       4.5739   -0.1375    2.5391   H         1 RES1   0.0000
   181 H99       5.9161   -0.8799    3.3930   H         1 RES1   0.0000
   182 H100      4.2671   -1.7813    5.0784   H         1 RES1   0.0000
   183 H101      2.9626   -1.3361    3.9786   H         1 RES1   0.0000
   184 H102      5.2906   -3.1089    3.1831   H         1 RES1   0.0000
   185 H103      3.8073   -3.7480    3.8572   H         1 RES1   0.0000
   186 H104      3.6807   -1.9268    1.4478   H         1 RES1   0.0000
   187 H105      4.1875   -3.6160    1.2293   H         1 RES1   0.0000
   188 H106      2.6493   -5.3677    1.3848   H         1 RES1   0.0000
   189 H107      2.3538   -4.9603    3.0761   H         1 RES1   0.0000
   190 H108      1.0012   -5.0722    1.9746   H         1 RES1   0.0000
   191 H109     -0.0515   -4.1534    0.5291   H         1 RES1   0.0000
   192 H110     -0.8354   -2.8514    1.4995   H         1 RES1   0.0000
   193 H111     -2.2320   -3.1910   -0.4187   H         1 RES1   0.0000
   194 H112     -1.1965   -3.6689   -1.7928   H         1 RES1   0.0000
   195 H113     -3.5112   -3.7379   -2.2611   H         1 RES1   0.0000
   196 H114     -4.7892   -2.7102   -2.9102   H         1 RES1   0.0000
   197 H115     -3.6357   -3.4832   -4.0061   H         1 RES1   0.0000
   198 H116     -2.0670   -0.7862   -4.4935   H         1 RES1   0.0000
   199 H117     -3.7528   -1.2898   -4.7219   H         1 RES1   0.0000
   200 H118     -2.7201    1.0203   -3.0317   H         1 RES1   0.0000
   201 H119     -3.5661    1.0878   -4.5784   H         1 RES1   0.0000
   202 H120     -5.4374   -0.2532   -3.1910   H         1 RES1   0.0000
   203 H121     -4.6797    0.5789   -1.8358   H         1 RES1   0.0000
   204 H122     -5.8923    1.8420   -4.3378   H         1 RES1   0.0000
   205 H123     -6.6469    1.7396   -2.7656   H         1 RES1   0.0000
   206 H124     -5.9469    3.9306   -2.9086   H         1 RES1   0.0000
   207 H125     -4.7884    3.1697   -1.8328   H         1 RES1   0.0000
   208 H126     -3.7820    4.7957   -3.3722   H         1 RES1   0.0000
   209 H127     -3.0799    3.1919   -3.5991   H         1 RES1   0.0000
   210 H128     -4.5599    2.9293   -5.6440   H         1 RES1   0.0000
   211 H129     -5.1452    4.5679   -5.3681   H         1 RES1   0.0000
   212 H130     -2.2384    3.7685   -5.8932   H         1 RES1   0.0000
   213 H131     -3.3252    4.5411   -7.0451   H         1 RES1   0.0000
   214 H132     -2.7965    5.4219   -5.6182   H         1 RES1   0.0000
@<TRIPOS>BOND
     1     1    13    1
     2     1    15    1
     3     1    18    1
     4     1    84    1
     5     1    86    1
     6     1    89    1
     7     1   155    1
     8     1   157    1
     9     1   160    1
    10     2     3    1
    11     2    29    1
    12     2    30    1
    13     2    31    1
    14     3     4    1
    15     3    32    1
    16     3    33    1
    17     4     5    1
    18     4    34    1
    19     4    35    1
    20     5     6    1
    21     5    36    1
    22     5    37    1
    23     6     7    1
    24     6    38    1
    25     6    39    1
    26     7     8    1
    27     7    40    1
    28     7    41    1
    29     8     9    1
    30     8    42    1
    31     8    43    1
    32     9    10    1
    33     9    44    1
    34     9    45    1
    35    10    11    1
    36    10    12    1
    37    11    46    1
    38    11    47    1
    39    11    48    1
    40    12    13    2
    41    12    14    1
    42    14    15    1
    43    14    49    1
    44    14    50    1
    45    15    16    1
    46    16    17    1
    47    16    51    1
    48    16    52    1
    49    17    18    2
    50    17    19    1
    51    19    20    1
    52    19    21    1
    53    20    53    1
    54    20    54    1
    55    20    55    1
    56    21    22    1
    57    21    56    1
    58    21    57    1
    59    22    23    1
    60    22    58    1
    61    22    59    1
    62    23    24    1
    63    23    60    1
    64    23    61    1
    65    24    25    1
    66    24    62    1
    67    24    63    1
    68    25    26    1
    69    25    64    1
    70    25    65    1
    71    26    27    1
    72    26    66    1
    73    26    67    1
    74    27    28    1
    75    27    68    1
    76    27    69    1
    77    28    70    1
    78    28    71    1
    79    28    72    1
    80    73    74    1
    81    73   100    1
    82    73   101    1
    83    73   102    1
    84    74    75    1
    85    74   103    1
    86    74   104    1
    87    75    76    1
    88    75   105    1
    89    75   106    1
    90    76    77    1
    91    76   107    1
    92    76   108    1
    93    77    78    1
    94    77   109    1
    95    77   110    1
    96    78    79    1
    97    78   111    1
    98    78   112    1
    99    79    80    1
   100    79   113    1
   101    79   114    1
   102    80    81    1
   103    80   115    1
   104    80   116    1
   105    81    82    1
   106    81    83    1
   107    82   117    1
   108    82   118    1
   109    82   119    1
   110    83    84    2
   111    83    85    1
   112    85    86    1
   113    85   120    1
   114    85   121    1
   115    86    87    1
   116    87    88    1
   117    87   122    1
   118    87   123    1
   119    88    89    2
   120    88    90    1
   121    90    91    1
   122    90    92    1
   123    91   124    1
   124    91   125    1
   125    91   126    1
   126    92    93    1
   127    92   127    1
   128    92   128    1
   129    93    94    1
   130    93   129    1
   131    93   130    1
   132    94    95    1
   133    94   131    1
   134    94   132    1
   135    95    96    1
   136    95   133    1
   137    95   134    1
   138    96    97    1
   139    96   135    1
   140    96   136    1
   141    97    98    1
   142    97   137    1
   143    97   138    1
   144    98    99    1
   145    98   139    1
   146    98   140    1
   147    99   141    1
   148    99   142    1
   149    99   143    1
   150   144   145    1
   151   144   171    1
   152   144   172    1
   153   144   173    1
   154   145   146    1
   155   145   174    1
   156   145   175    1
   157   146   147    1
   158   146   176    1
   159   146   177    1
   160   147   148    1
   161   147   178    1
   162   147   179    1
   163   148   149    1
   164   148   180    1
   165   148   181    1
   166   149   150    1
   167   149   182    1
   168   149   183    1
   169   150   151    1
   170   150   184    1
   171   150   185    1
   172   151   152    1
   173   151   186    1
   174   151   187    1
   175   152   153    1
   176   152   154    1
   177   153   188    1
   178   153   189    1
   179   153   190    1
   180   154   155    2
   181   154   156    1
   182   156   157    1
   183   156   191    1
   184   156   192    1
   185   157   158    1
   186   158   159    1
   187   158   193    1
   188   158   194    1
   189   159   160    2
   190   159   161    1
   191   161   162    1
   192   161   163    1
   193   162   195    1
   194   162   196    1
   195   162   197    1
   196   163   164    1
   197   163   198    1
   198   163   199    1
   199   164   165    1
   200   164   200    1
   201   164   201    1
   202   165   166    1
   203   165   202    1
   204   165   203    1
   205   166   167    1
   206   166   204    1
   207   166   205    1
   208   167   168    1
   209   167   206    1
   210   167   207    1
   211   168   169    1
   212   168   208    1
   213   168   209    1
   214   169   170    1
   215   169   210    1
   216   169   211    1
   217   170   212    1
   218   170   213    1
   219   170   214    1
@<TRIPOS>SUBSTRUCTURE
     1 RES1      214 GROUP             0 ****  ****    0  
