@<TRIPOS>MOLECULE
tricapped_trigonal_prismatic_0_nunpairedes_0_charge_3 Charge: 3 Unpaired_Electrons: 3 XTB_Unpaired_Electrons: 0 XTB_Charge: 3
   340   345     1     0     0
SMALL
NoCharges
****
Generated from Architector

@<TRIPOS>ATOM
     1 Nd1      -0.1900   -0.0475   -0.0290   Nd        1 RES1   0.0000
     2 C1      -11.4489    3.0264   -2.9664   C.3       1 RES1   0.0000
     3 C2       -9.9464    2.9156   -3.1901   C.3       1 RES1   0.0000
     4 C3       -9.4089    1.5108   -2.8972   C.3       1 RES1   0.0000
     5 C4       -9.2672    1.2247   -1.3991   C.3       1 RES1   0.0000
     6 C5       -8.6898   -0.1736   -1.1194   C.3       1 RES1   0.0000
     7 C6       -7.4979   -0.1983   -0.1516   C.3       1 RES1   0.0000
     8 C7       -7.8717   -0.3191    1.3269   C.3       1 RES1   0.0000
     9 C8       -6.6635   -0.4333    2.2767   C.3       1 RES1   0.0000
    10 C9       -5.6965    0.7514    2.2485   C.3       1 RES1   0.0000
    11 C10      -4.6961    0.8508    3.4109   C.3       1 RES1   0.0000
    12 N1       -3.7334   -0.2519    3.5598   N.am      1 RES1   0.0000
    13 C11      -3.9518   -1.1316    4.7113   C.3       1 RES1   0.0000
    14 C12      -4.9258   -2.2883    4.4875   C.3       1 RES1   0.0000
    15 C13      -5.1494   -3.1042    5.7637   C.3       1 RES1   0.0000
    16 C14      -6.2483   -4.1513    5.5553   C.3       1 RES1   0.0000
    17 C15      -5.7817   -5.3855    4.7751   C.3       1 RES1   0.0000
    18 C16      -6.9208   -6.0669    4.0048   C.3       1 RES1   0.0000
    19 C17      -7.3808   -5.3372    2.7323   C.3       1 RES1   0.0000
    20 C18      -6.6850   -5.7743    1.4402   C.3       1 RES1   0.0000
    21 C19      -5.2301   -5.3219    1.3262   C.3       1 RES1   0.0000
    22 C20      -4.6815   -5.5601   -0.0755   C.3       1 RES1   0.0000
    23 C21      -2.6177   -0.3028    2.8244   C.2       1 RES1   0.0000
    24 O1       -2.2615    0.5309    1.9805   O.2       1 RES1   0.0000
    25 C22      -1.6866   -1.5152    3.0120   C.3       1 RES1   0.0000
    26 O2       -0.6045   -1.3454    2.0954   O.3       1 RES1   0.0000
    27 C23       0.2810   -2.4627    2.0772   C.3       1 RES1   0.0000
    28 C24       0.1465   -3.1249    0.6993   C.2       1 RES1   0.0000
    29 O3       -0.1765   -2.4046   -0.2658   O.2       1 RES1   0.0000
    30 N2        0.3356   -4.4296    0.5888   N.am      1 RES1   0.0000
    31 C25      -0.0947   -5.1178   -0.6276   C.3       1 RES1   0.0000
    32 C26       0.8907   -5.0454   -1.8121   C.3       1 RES1   0.0000
    33 C27       1.5305   -6.3831   -2.2072   C.3       1 RES1   0.0000
    34 C28       1.7609   -6.4877   -3.7123   C.3       1 RES1   0.0000
    35 C29       2.6110   -5.3539   -4.2762   C.3       1 RES1   0.0000
    36 C30       3.9807   -5.2524   -3.6109   C.3       1 RES1   0.0000
    37 C31       1.0251   -5.1818    1.6250   C.3       1 RES1   0.0000
    38 C32       0.1691   -5.7972    2.7350   C.3       1 RES1   0.0000
    39 C33      -0.9209   -6.7607    2.2763   C.3       1 RES1   0.0000
    40 C34      -1.5274   -7.5006    3.4690   C.3       1 RES1   0.0000
    41 C35      -2.1237   -6.5819    4.5319   C.3       1 RES1   0.0000
    42 C36      -2.7822   -7.3697    5.6541   C.3       1 RES1   0.0000
    43 H1      -11.7865    4.0409   -3.1626   H         1 RES1   0.0000
    44 H2      -11.7126    2.7719   -1.9436   H         1 RES1   0.0000
    45 H3      -11.9783    2.3535   -3.6367   H         1 RES1   0.0000
    46 H4       -9.4301    3.6456   -2.5605   H         1 RES1   0.0000
    47 H5       -9.7343    3.1735   -4.2318   H         1 RES1   0.0000
    48 H6       -8.4295    1.4076   -3.3757   H         1 RES1   0.0000
    49 H7      -10.0786    0.7814   -3.3571   H         1 RES1   0.0000
    50 H8      -10.2424    1.3216   -0.9275   H         1 RES1   0.0000
    51 H9       -8.6231    1.9961   -0.9698   H         1 RES1   0.0000
    52 H10      -9.4684   -0.8315   -0.7359   H         1 RES1   0.0000
    53 H11      -8.3484   -0.6001   -2.0652   H         1 RES1   0.0000
    54 H12      -6.9293    0.7188   -0.2979   H         1 RES1   0.0000
    55 H13      -6.8556   -1.0513   -0.4017   H         1 RES1   0.0000
    56 H14      -8.4614   -1.2314    1.4596   H         1 RES1   0.0000
    57 H15      -8.4927    0.5316    1.6169   H         1 RES1   0.0000
    58 H16      -6.1133   -1.3472    2.0356   H         1 RES1   0.0000
    59 H17      -7.0704   -0.5357    3.2830   H         1 RES1   0.0000
    60 H18      -6.2737    1.6807    2.2595   H         1 RES1   0.0000
    61 H19      -5.1362    0.7071    1.3249   H         1 RES1   0.0000
    62 H20      -5.2630    0.9316    4.3376   H         1 RES1   0.0000
    63 H21      -4.1306    1.7779    3.2805   H         1 RES1   0.0000
    64 H22      -4.3458   -0.5184    5.5245   H         1 RES1   0.0000
    65 H23      -2.9974   -1.5211    5.0612   H         1 RES1   0.0000
    66 H24      -4.5710   -2.9384    3.6870   H         1 RES1   0.0000
    67 H25      -5.8948   -1.8933    4.1970   H         1 RES1   0.0000
    68 H26      -5.4714   -2.4370    6.5625   H         1 RES1   0.0000
    69 H27      -4.2279   -3.5882    6.0909   H         1 RES1   0.0000
    70 H28      -7.0750   -3.6786    5.0238   H         1 RES1   0.0000
    71 H29      -6.6377   -4.4764    6.5215   H         1 RES1   0.0000
    72 H30      -5.3662   -6.1061    5.4832   H         1 RES1   0.0000
    73 H31      -4.9905   -5.1070    4.0776   H         1 RES1   0.0000
    74 H32      -7.7707   -6.1518    4.6847   H         1 RES1   0.0000
    75 H33      -6.6109   -7.0818    3.7429   H         1 RES1   0.0000
    76 H34      -7.2542   -4.2577    2.8531   H         1 RES1   0.0000
    77 H35      -8.4474   -5.5265    2.5972   H         1 RES1   0.0000
    78 H36      -7.2395   -5.3519    0.5979   H         1 RES1   0.0000
    79 H37      -6.7371   -6.8605    1.3450   H         1 RES1   0.0000
    80 H38      -4.6170   -5.8659    2.0473   H         1 RES1   0.0000
    81 H39      -5.1696   -4.2530    1.5604   H         1 RES1   0.0000
    82 H40      -4.7029   -6.6201   -0.3105   H         1 RES1   0.0000
    83 H41      -3.6547   -5.2051   -0.1615   H         1 RES1   0.0000
    84 H42      -5.2888   -5.0381   -0.8109   H         1 RES1   0.0000
    85 H43      -2.2348   -2.4458    2.8136   H         1 RES1   0.0000
    86 H44      -1.2626   -1.5522    4.0233   H         1 RES1   0.0000
    87 H45       0.0420   -3.1476    2.8930   H         1 RES1   0.0000
    88 H46       1.3025   -2.0777    2.2065   H         1 RES1   0.0000
    89 H47      -1.0381   -4.6468   -0.9196   H         1 RES1   0.0000
    90 H48      -0.2972   -6.1586   -0.3661   H         1 RES1   0.0000
    91 H49       1.6609   -4.3028   -1.5875   H         1 RES1   0.0000
    92 H50       0.3334   -4.6843   -2.6788   H         1 RES1   0.0000
    93 H51       0.8747   -7.2006   -1.9081   H         1 RES1   0.0000
    94 H52       2.4845   -6.5225   -1.7085   H         1 RES1   0.0000
    95 H53       0.7986   -6.5023   -4.2258   H         1 RES1   0.0000
    96 H54       2.2636   -7.4305   -3.9169   H         1 RES1   0.0000
    97 H55       2.0679   -4.4130   -4.1519   H         1 RES1   0.0000
    98 H56       2.7388   -5.5159   -5.3474   H         1 RES1   0.0000
    99 H57       3.9103   -4.7780   -2.6351   H         1 RES1   0.0000
   100 H58       4.6652   -4.6722   -4.2248   H         1 RES1   0.0000
   101 H59       4.4136   -6.2401   -3.4831   H         1 RES1   0.0000
   102 H60       1.7613   -4.5133    2.0774   H         1 RES1   0.0000
   103 H61       1.5668   -5.9792    1.1180   H         1 RES1   0.0000
   104 H62      -0.2933   -5.0184    3.3418   H         1 RES1   0.0000
   105 H63       0.8655   -6.3329    3.3838   H         1 RES1   0.0000
   106 H64      -0.4968   -7.5004    1.5956   H         1 RES1   0.0000
   107 H65      -1.7031   -6.2115    1.7471   H         1 RES1   0.0000
   108 H66      -0.7583   -8.1175    3.9317   H         1 RES1   0.0000
   109 H67      -2.3062   -8.1686    3.1050   H         1 RES1   0.0000
   110 H68      -2.8622   -5.9244    4.0695   H         1 RES1   0.0000
   111 H69      -1.3446   -5.9588    4.9732   H         1 RES1   0.0000
   112 H70      -3.5972   -7.9763    5.2755   H         1 RES1   0.0000
   113 H71      -3.1794   -6.7015    6.4127   H         1 RES1   0.0000
   114 H72      -2.0636   -8.0289    6.1292   H         1 RES1   0.0000
   115 C37      -4.7442    7.7078    3.9638   C.3       1 RES1   0.0000
   116 C38      -4.4010    6.6665    5.0229   C.3       1 RES1   0.0000
   117 C39      -3.0666    5.9494    4.7964   C.3       1 RES1   0.0000
   118 C40      -3.0373    5.0126    3.5791   C.3       1 RES1   0.0000
   119 C41      -2.4024    5.6307    2.3335   C.3       1 RES1   0.0000
   120 C42      -2.2922    4.6396    1.1688   C.3       1 RES1   0.0000
   121 C43      -3.6182    4.4426    0.4357   C.3       1 RES1   0.0000
   122 C44      -3.5127    3.4496   -0.7263   C.3       1 RES1   0.0000
   123 C45      -3.5215    1.9807   -0.2914   C.3       1 RES1   0.0000
   124 C46      -4.3919    1.0098   -1.1125   C.3       1 RES1   0.0000
   125 N3       -3.7470    0.1806   -2.1391   N.am      1 RES1   0.0000
   126 C47      -4.5961   -0.2985   -3.2340   C.3       1 RES1   0.0000
   127 C48      -4.4592    0.4252   -4.5678   C.3       1 RES1   0.0000
   128 C49      -5.5407   -0.0774   -5.5282   C.3       1 RES1   0.0000
   129 C50      -5.7845    0.8465   -6.7201   C.3       1 RES1   0.0000
   130 C51      -4.5703    1.0012   -7.6315   C.3       1 RES1   0.0000
   131 C52      -4.8198    1.9984   -8.7707   C.3       1 RES1   0.0000
   132 C53      -4.7706    3.4745   -8.3501   C.3       1 RES1   0.0000
   133 C54      -3.3979    4.1499   -8.4599   C.3       1 RES1   0.0000
   134 C55      -2.2712    3.4505   -7.6996   C.3       1 RES1   0.0000
   135 C56      -1.0248    4.3225   -7.6176   C.3       1 RES1   0.0000
   136 C57      -2.6835   -0.5233   -1.7868   C.2       1 RES1   0.0000
   137 O4       -2.2459   -0.5531   -0.6235   O.2       1 RES1   0.0000
   138 C58      -1.8825   -1.2658   -2.8549   C.3       1 RES1   0.0000
   139 O5       -0.5524   -0.8971   -2.5479   O.3       1 RES1   0.0000
   140 C59       0.4573   -1.5763   -3.2781   C.3       1 RES1   0.0000
   141 C60       1.7351   -0.8243   -2.9023   C.2       1 RES1   0.0000
   142 O6        1.7091   -0.1421   -1.8575   O.2       1 RES1   0.0000
   143 N4        2.8069   -0.8753   -3.6874   N.am      1 RES1   0.0000
   144 C61       3.9422   -0.0322   -3.3201   C.3       1 RES1   0.0000
   145 C62       4.8771   -0.5759   -2.2254   C.3       1 RES1   0.0000
   146 C63       5.3376   -2.0424   -2.3040   C.3       1 RES1   0.0000
   147 C64       6.8544   -2.2401   -2.4381   C.3       1 RES1   0.0000
   148 C65       7.7590   -1.6167   -1.3616   C.3       1 RES1   0.0000
   149 C66       8.1593   -2.5010   -0.1758   C.3       1 RES1   0.0000
   150 C67       2.9989   -1.7299   -4.8628   C.3       1 RES1   0.0000
   151 C68       1.9862   -1.6471   -6.0196   C.3       1 RES1   0.0000
   152 C69       1.4196   -0.2512   -6.2793   C.3       1 RES1   0.0000
   153 C70       0.4481   -0.2367   -7.4628   C.3       1 RES1   0.0000
   154 C71      -0.9393   -0.7888   -7.1287   C.3       1 RES1   0.0000
   155 C72      -1.7285   -1.1644   -8.3751   C.3       1 RES1   0.0000
   156 H73      -5.6326    8.2610    4.2597   H         1 RES1   0.0000
   157 H74      -4.9437    7.2410    3.0015   H         1 RES1   0.0000
   158 H75      -3.9325    8.4226    3.8490   H         1 RES1   0.0000
   159 H76      -5.2086    5.9304    5.0765   H         1 RES1   0.0000
   160 H77      -4.3504    7.1635    5.9941   H         1 RES1   0.0000
   161 H78      -2.8647    5.3531    5.6893   H         1 RES1   0.0000
   162 H79      -2.2704    6.6931    4.7113   H         1 RES1   0.0000
   163 H80      -4.0565    4.6846    3.3628   H         1 RES1   0.0000
   164 H81      -2.4491    4.1254    3.8336   H         1 RES1   0.0000
   165 H82      -1.4014    5.9850    2.5958   H         1 RES1   0.0000
   166 H83      -2.9721    6.4977    1.9991   H         1 RES1   0.0000
   167 H84      -1.9104    3.6754    1.5276   H         1 RES1   0.0000
   168 H85      -1.5768    5.0432    0.4425   H         1 RES1   0.0000
   169 H86      -3.9170    5.4151    0.0327   H         1 RES1   0.0000
   170 H87      -4.3914    4.1239    1.1359   H         1 RES1   0.0000
   171 H88      -2.5941    3.6777   -1.2610   H         1 RES1   0.0000
   172 H89      -4.3526    3.6446   -1.3825   H         1 RES1   0.0000
   173 H90      -3.9048    1.9697    0.7267   H         1 RES1   0.0000
   174 H91      -2.4947    1.6128   -0.2258   H         1 RES1   0.0000
   175 H92      -5.1800    1.5676   -1.6165   H         1 RES1   0.0000
   176 H93      -4.8574    0.3006   -0.4238   H         1 RES1   0.0000
   177 H94      -5.6254   -0.2000   -2.8880   H         1 RES1   0.0000
   178 H95      -4.4081   -1.3649   -3.3717   H         1 RES1   0.0000
   179 H96      -3.4710    0.2613   -4.9975   H         1 RES1   0.0000
   180 H97      -4.5898    1.4915   -4.4179   H         1 RES1   0.0000
   181 H98      -6.4790   -0.1599   -4.9788   H         1 RES1   0.0000
   182 H99      -5.2775   -1.0708   -5.8933   H         1 RES1   0.0000
   183 H100     -6.1079    1.8258   -6.3661   H         1 RES1   0.0000
   184 H101     -6.6013    0.4315   -7.3125   H         1 RES1   0.0000
   185 H102     -4.3488    0.0276   -8.0704   H         1 RES1   0.0000
   186 H103     -3.7021    1.3154   -7.0529   H         1 RES1   0.0000
   187 H104     -5.8103    1.7900   -9.1815   H         1 RES1   0.0000
   188 H105     -4.0896    1.8292   -9.5666   H         1 RES1   0.0000
   189 H106     -5.1397    3.5743   -7.3269   H         1 RES1   0.0000
   190 H107     -5.4560    4.0405   -8.9844   H         1 RES1   0.0000
   191 H108     -3.5000    5.1698   -8.0773   H         1 RES1   0.0000
   192 H109     -3.1162    4.2302   -9.5110   H         1 RES1   0.0000
   193 H110     -2.0238    2.5064   -8.1909   H         1 RES1   0.0000
   194 H111     -2.6124    3.2289   -6.6859   H         1 RES1   0.0000
   195 H112     -0.6931    4.6027   -8.6125   H         1 RES1   0.0000
   196 H113     -0.2142    3.7904   -7.1231   H         1 RES1   0.0000
   197 H114     -1.2373    5.2322   -7.0609   H         1 RES1   0.0000
   198 H115     -2.1354   -0.9609   -3.8734   H         1 RES1   0.0000
   199 H116     -2.0311   -2.3442   -2.7333   H         1 RES1   0.0000
   200 H117      0.2364   -1.5313   -4.3451   H         1 RES1   0.0000
   201 H118      0.5311   -2.6291   -2.9709   H         1 RES1   0.0000
   202 H119      3.5392    0.9174   -2.9505   H         1 RES1   0.0000
   203 H120      4.4999    0.1781   -4.2302   H         1 RES1   0.0000
   204 H121      4.3766   -0.4128   -1.2713   H         1 RES1   0.0000
   205 H122      5.7499    0.0776   -2.2666   H         1 RES1   0.0000
   206 H123      4.8931   -2.5318   -3.1672   H         1 RES1   0.0000
   207 H124      4.9781   -2.5773   -1.4245   H         1 RES1   0.0000
   208 H125      7.1565   -1.8233   -3.4008   H         1 RES1   0.0000
   209 H126      7.0449   -3.3145   -2.4827   H         1 RES1   0.0000
   210 H127      7.3019   -0.7078   -0.9674   H         1 RES1   0.0000
   211 H128      8.6854   -1.3197   -1.8558   H         1 RES1   0.0000
   212 H129      7.5060   -2.3546    0.6804   H         1 RES1   0.0000
   213 H130      9.1639   -2.2398    0.1485   H         1 RES1   0.0000
   214 H131      8.1694   -3.5559   -0.4381   H         1 RES1   0.0000
   215 H132      3.0472   -2.7697   -4.5375   H         1 RES1   0.0000
   216 H133      3.9821   -1.4814   -5.2646   H         1 RES1   0.0000
   217 H134      1.1863   -2.3779   -5.8833   H         1 RES1   0.0000
   218 H135      2.5223   -1.9769   -6.9111   H         1 RES1   0.0000
   219 H136      2.2464    0.4262   -6.4914   H         1 RES1   0.0000
   220 H137      0.9110    0.1292   -5.3902   H         1 RES1   0.0000
   221 H138      0.8775   -0.8167   -8.2783   H         1 RES1   0.0000
   222 H139      0.3367    0.7871   -7.8186   H         1 RES1   0.0000
   223 H140     -1.4991   -0.0391   -6.5639   H         1 RES1   0.0000
   224 H141     -0.8523   -1.6815   -6.5051   H         1 RES1   0.0000
   225 H142     -1.8926   -0.3015   -9.0104   H         1 RES1   0.0000
   226 H143     -2.6980   -1.5775   -8.1095   H         1 RES1   0.0000
   227 H144     -1.1898   -1.9083   -8.9518   H         1 RES1   0.0000
   228 C73       4.9897  -10.6615    0.2602   C.3       1 RES1   0.0000
   229 C74       3.6276  -10.3187    0.8479   C.3       1 RES1   0.0000
   230 C75       2.9022   -9.1863    0.1159   C.3       1 RES1   0.0000
   231 C76       3.1444   -7.7658    0.6411   C.3       1 RES1   0.0000
   232 C77       4.4456   -7.0859    0.2093   C.3       1 RES1   0.0000
   233 C78       4.4082   -5.5434    0.1857   C.3       1 RES1   0.0000
   234 C79       4.6241   -4.8687    1.5436   C.3       1 RES1   0.0000
   235 C80       5.0861   -3.4035    1.4591   C.3       1 RES1   0.0000
   236 C81       4.0418   -2.2785    1.3248   C.3       1 RES1   0.0000
   237 C82       4.7036   -0.9708    1.7927   C.3       1 RES1   0.0000
   238 N5        4.2267    0.3388    1.3059   N.am      1 RES1   0.0000
   239 C83       5.2493    1.3962    1.4346   C.3       1 RES1   0.0000
   240 C84       5.9296    1.8160    0.1214   C.3       1 RES1   0.0000
   241 C85       7.2833    2.5213    0.3285   C.3       1 RES1   0.0000
   242 C86       8.2810    2.3069   -0.8235   C.3       1 RES1   0.0000
   243 C87       7.7456    2.6442   -2.2163   C.3       1 RES1   0.0000
   244 C88       8.8073    2.5071   -3.3223   C.3       1 RES1   0.0000
   245 C89       9.0237    1.0846   -3.8724   C.3       1 RES1   0.0000
   246 C90       8.4362    0.8380   -5.2676   C.3       1 RES1   0.0000
   247 C91       6.9109    0.7764   -5.2818   C.3       1 RES1   0.0000
   248 C92       6.3617    0.4419   -6.6637   C.3       1 RES1   0.0000
   249 C93       2.9667    0.5935    0.9798   C.2       1 RES1   0.0000
   250 O7        2.0367   -0.2387    1.0279   O.2       1 RES1   0.0000
   251 C94       2.6562    1.9940    0.4494   C.3       1 RES1   0.0000
   252 O8        1.2501    2.1932    0.4607   O.3       1 RES1   0.0000
   253 C95       0.8640    3.3768   -0.2397   C.3       1 RES1   0.0000
   254 C96      -0.0547    2.9575   -1.3888   C.2       1 RES1   0.0000
   255 O9       -0.4652    1.7762   -1.4109   O.2       1 RES1   0.0000
   256 N6       -0.3279    3.8119   -2.3631   N.am      1 RES1   0.0000
   257 C97      -0.8290    3.2549   -3.6226   C.3       1 RES1   0.0000
   258 C98      -2.3475    3.1866   -3.8130   C.3       1 RES1   0.0000
   259 C99      -3.0567    4.5415   -3.9040   C.3       1 RES1   0.0000
   260 C100     -4.4284    4.4498   -4.5809   C.3       1 RES1   0.0000
   261 C101     -5.5561    3.8322   -3.7495   C.3       1 RES1   0.0000
   262 C102     -6.2537    4.8124   -2.8126   C.3       1 RES1   0.0000
   263 C103     -0.0488    5.2439   -2.3066   C.3       1 RES1   0.0000
   264 C104      1.3919    5.6563   -2.6726   C.3       1 RES1   0.0000
   265 C105      2.0750    4.7742   -3.7179   C.3       1 RES1   0.0000
   266 C106      3.5045    5.2351   -4.0049   C.3       1 RES1   0.0000
   267 C107      4.4985    4.9887   -2.8714   C.3       1 RES1   0.0000
   268 C108      5.8384    5.6578   -3.1518   C.3       1 RES1   0.0000
   269 H145      5.4279  -11.4933    0.8053   H         1 RES1   0.0000
   270 H146      5.6722   -9.8183    0.3135   H         1 RES1   0.0000
   271 H147      4.8901  -10.9607   -0.7809   H         1 RES1   0.0000
   272 H148      3.7329  -10.0719    1.9064   H         1 RES1   0.0000
   273 H149      3.0030  -11.2121    0.7891   H         1 RES1   0.0000
   274 H150      1.8274   -9.3653    0.2175   H         1 RES1   0.0000
   275 H151      3.1470   -9.2282   -0.9485   H         1 RES1   0.0000
   276 H152      3.0598   -7.7701    1.7287   H         1 RES1   0.0000
   277 H153      2.3194   -7.1814    0.2339   H         1 RES1   0.0000
   278 H154      4.6847   -7.4227   -0.8009   H         1 RES1   0.0000
   279 H155      5.2649   -7.4046    0.8518   H         1 RES1   0.0000
   280 H156      3.4671   -5.1964   -0.2500   H         1 RES1   0.0000
   281 H157      5.2242   -5.2204   -0.4667   H         1 RES1   0.0000
   282 H158      5.4205   -5.4191    2.0490   H         1 RES1   0.0000
   283 H159      3.7360   -4.9545    2.1675   H         1 RES1   0.0000
   284 H160      5.7797   -3.3357    0.6249   H         1 RES1   0.0000
   285 H161      5.6469   -3.2076    2.3723   H         1 RES1   0.0000
   286 H162      3.1880   -2.5164    1.9575   H         1 RES1   0.0000
   287 H163      3.6885   -2.1907    0.2977   H         1 RES1   0.0000
   288 H164      5.7528   -1.0184    1.4915   H         1 RES1   0.0000
   289 H165      4.6714   -0.9425    2.8878   H         1 RES1   0.0000
   290 H166      6.0224    0.9985    2.0893   H         1 RES1   0.0000
   291 H167      4.8256    2.2551    1.9602   H         1 RES1   0.0000
   292 H168      5.2841    2.4754   -0.4600   H         1 RES1   0.0000
   293 H169      6.1153    0.9125   -0.4539   H         1 RES1   0.0000
   294 H170      7.7616    2.1441    1.2318   H         1 RES1   0.0000
   295 H171      7.1304    3.5910    0.4741   H         1 RES1   0.0000
   296 H172      8.6436    1.2787   -0.8139   H         1 RES1   0.0000
   297 H173      9.1447    2.9475   -0.6329   H         1 RES1   0.0000
   298 H174      7.4112    3.6817   -2.2019   H         1 RES1   0.0000
   299 H175      6.8856    2.0138   -2.4622   H         1 RES1   0.0000
   300 H176      9.7550    2.8850   -2.9324   H         1 RES1   0.0000
   301 H177      8.5210    3.1564   -4.1526   H         1 RES1   0.0000
   302 H178      8.5987    0.3498   -3.1859   H         1 RES1   0.0000
   303 H179     10.0962    0.8920   -3.9346   H         1 RES1   0.0000
   304 H180      8.8278   -0.1127   -5.6368   H         1 RES1   0.0000
   305 H181      8.7744    1.6127   -5.9569   H         1 RES1   0.0000
   306 H182      6.5054    1.7341   -4.9458   H         1 RES1   0.0000
   307 H183      6.5976    0.0064   -4.5719   H         1 RES1   0.0000
   308 H184      6.7424    1.1408   -7.4009   H         1 RES1   0.0000
   309 H185      5.2747    0.4955   -6.6814   H         1 RES1   0.0000
   310 H186      6.6601   -0.5587   -6.9639   H         1 RES1   0.0000
   311 H187      3.0462    2.0331   -0.5764   H         1 RES1   0.0000
   312 H188      3.1453    2.7753    1.0413   H         1 RES1   0.0000
   313 H189      1.7397    3.8801   -0.6569   H         1 RES1   0.0000
   314 H190      0.3641    4.0538    0.4623   H         1 RES1   0.0000
   315 H191     -0.4408    2.2301   -3.6761   H         1 RES1   0.0000
   316 H192     -0.3878    3.8411   -4.4307   H         1 RES1   0.0000
   317 H193     -2.7810    2.5520   -3.0414   H         1 RES1   0.0000
   318 H194     -2.4756    2.6755   -4.7694   H         1 RES1   0.0000
   319 H195     -2.4435    5.2057   -4.5148   H         1 RES1   0.0000
   320 H196     -3.1660    4.9973   -2.9213   H         1 RES1   0.0000
   321 H197     -4.7353    5.4529   -4.8741   H         1 RES1   0.0000
   322 H198     -4.3121    3.8605   -5.4901   H         1 RES1   0.0000
   323 H199     -5.1627    2.9945   -3.1715   H         1 RES1   0.0000
   324 H200     -6.3117    3.4340   -4.4298   H         1 RES1   0.0000
   325 H201     -5.5377    5.4033   -2.2473   H         1 RES1   0.0000
   326 H202     -6.8892    4.2700   -2.1154   H         1 RES1   0.0000
   327 H203     -6.8856    5.4912   -3.3774   H         1 RES1   0.0000
   328 H204     -0.2735    5.6146   -1.3021   H         1 RES1   0.0000
   329 H205     -0.7525    5.7305   -2.9835   H         1 RES1   0.0000
   330 H206      2.0024    5.6812   -1.7695   H         1 RES1   0.0000
   331 H207      1.3519    6.6800   -3.0474   H         1 RES1   0.0000
   332 H208      1.5181    4.8247   -4.6537   H         1 RES1   0.0000
   333 H209      2.0775    3.7327   -3.3843   H         1 RES1   0.0000
   334 H210      3.4794    6.3004   -4.2284   H         1 RES1   0.0000
   335 H211      3.8652    4.7266   -4.8986   H         1 RES1   0.0000
   336 H212      4.6526    3.9131   -2.7429   H         1 RES1   0.0000
   337 H213      4.1097    5.3878   -1.9326   H         1 RES1   0.0000
   338 H214      6.3349    5.1999   -4.0014   H         1 RES1   0.0000
   339 H215      6.4973    5.5834   -2.2907   H         1 RES1   0.0000
   340 H216      5.6990    6.7109   -3.3719   H         1 RES1   0.0000
@<TRIPOS>BOND
     1     1    24    1
     2     1    26    1
     3     1    29    1
     4     1   137    1
     5     1   139    1
     6     1   142    1
     7     1   250    1
     8     1   252    1
     9     1   255    1
    10     2     3    1
    11     2    43    1
    12     2    44    1
    13     2    45    1
    14     3     4    1
    15     3    46    1
    16     3    47    1
    17     4     5    1
    18     4    48    1
    19     4    49    1
    20     5     6    1
    21     5    50    1
    22     5    51    1
    23     6     7    1
    24     6    52    1
    25     6    53    1
    26     7     8    1
    27     7    54    1
    28     7    55    1
    29     8     9    1
    30     8    56    1
    31     8    57    1
    32     9    10    1
    33     9    58    1
    34     9    59    1
    35    10    11    1
    36    10    60    1
    37    10    61    1
    38    11    12    1
    39    11    62    1
    40    11    63    1
    41    12    13    1
    42    12    23    1
    43    13    14    1
    44    13    64    1
    45    13    65    1
    46    14    15    1
    47    14    66    1
    48    14    67    1
    49    15    16    1
    50    15    68    1
    51    15    69    1
    52    16    17    1
    53    16    70    1
    54    16    71    1
    55    17    18    1
    56    17    72    1
    57    17    73    1
    58    18    19    1
    59    18    74    1
    60    18    75    1
    61    19    20    1
    62    19    76    1
    63    19    77    1
    64    20    21    1
    65    20    78    1
    66    20    79    1
    67    21    22    1
    68    21    80    1
    69    21    81    1
    70    22    82    1
    71    22    83    1
    72    22    84    1
    73    23    24    2
    74    23    25    1
    75    25    26    1
    76    25    85    1
    77    25    86    1
    78    26    27    1
    79    27    28    1
    80    27    87    1
    81    27    88    1
    82    28    29    2
    83    28    30    1
    84    30    31    1
    85    30    37    1
    86    31    32    1
    87    31    89    1
    88    31    90    1
    89    32    33    1
    90    32    91    1
    91    32    92    1
    92    33    34    1
    93    33    93    1
    94    33    94    1
    95    34    35    1
    96    34    95    1
    97    34    96    1
    98    35    36    1
    99    35    97    1
   100    35    98    1
   101    36    99    1
   102    36   100    1
   103    36   101    1
   104    37    38    1
   105    37   102    1
   106    37   103    1
   107    38    39    1
   108    38   104    1
   109    38   105    1
   110    39    40    1
   111    39   106    1
   112    39   107    1
   113    40    41    1
   114    40   108    1
   115    40   109    1
   116    41    42    1
   117    41   110    1
   118    41   111    1
   119    42   112    1
   120    42   113    1
   121    42   114    1
   122   115   116    1
   123   115   156    1
   124   115   157    1
   125   115   158    1
   126   116   117    1
   127   116   159    1
   128   116   160    1
   129   117   118    1
   130   117   161    1
   131   117   162    1
   132   118   119    1
   133   118   163    1
   134   118   164    1
   135   119   120    1
   136   119   165    1
   137   119   166    1
   138   120   121    1
   139   120   167    1
   140   120   168    1
   141   121   122    1
   142   121   169    1
   143   121   170    1
   144   122   123    1
   145   122   171    1
   146   122   172    1
   147   123   124    1
   148   123   173    1
   149   123   174    1
   150   124   125    1
   151   124   175    1
   152   124   176    1
   153   125   126    1
   154   125   136    1
   155   126   127    1
   156   126   177    1
   157   126   178    1
   158   127   128    1
   159   127   179    1
   160   127   180    1
   161   128   129    1
   162   128   181    1
   163   128   182    1
   164   129   130    1
   165   129   183    1
   166   129   184    1
   167   130   131    1
   168   130   185    1
   169   130   186    1
   170   131   132    1
   171   131   187    1
   172   131   188    1
   173   132   133    1
   174   132   189    1
   175   132   190    1
   176   133   134    1
   177   133   191    1
   178   133   192    1
   179   134   135    1
   180   134   193    1
   181   134   194    1
   182   135   195    1
   183   135   196    1
   184   135   197    1
   185   136   137    2
   186   136   138    1
   187   138   139    1
   188   138   198    1
   189   138   199    1
   190   139   140    1
   191   140   141    1
   192   140   200    1
   193   140   201    1
   194   141   142    2
   195   141   143    1
   196   143   144    1
   197   143   150    1
   198   144   145    1
   199   144   202    1
   200   144   203    1
   201   145   146    1
   202   145   204    1
   203   145   205    1
   204   146   147    1
   205   146   206    1
   206   146   207    1
   207   147   148    1
   208   147   208    1
   209   147   209    1
   210   148   149    1
   211   148   210    1
   212   148   211    1
   213   149   212    1
   214   149   213    1
   215   149   214    1
   216   150   151    1
   217   150   215    1
   218   150   216    1
   219   151   152    1
   220   151   217    1
   221   151   218    1
   222   152   153    1
   223   152   219    1
   224   152   220    1
   225   153   154    1
   226   153   221    1
   227   153   222    1
   228   154   155    1
   229   154   223    1
   230   154   224    1
   231   155   225    1
   232   155   226    1
   233   155   227    1
   234   228   229    1
   235   228   269    1
   236   228   270    1
   237   228   271    1
   238   229   230    1
   239   229   272    1
   240   229   273    1
   241   230   231    1
   242   230   274    1
   243   230   275    1
   244   231   232    1
   245   231   276    1
   246   231   277    1
   247   232   233    1
   248   232   278    1
   249   232   279    1
   250   233   234    1
   251   233   280    1
   252   233   281    1
   253   234   235    1
   254   234   282    1
   255   234   283    1
   256   235   236    1
   257   235   284    1
   258   235   285    1
   259   236   237    1
   260   236   286    1
   261   236   287    1
   262   237   238    1
   263   237   288    1
   264   237   289    1
   265   238   239    1
   266   238   249    1
   267   239   240    1
   268   239   290    1
   269   239   291    1
   270   240   241    1
   271   240   292    1
   272   240   293    1
   273   241   242    1
   274   241   294    1
   275   241   295    1
   276   242   243    1
   277   242   296    1
   278   242   297    1
   279   243   244    1
   280   243   298    1
   281   243   299    1
   282   244   245    1
   283   244   300    1
   284   244   301    1
   285   245   246    1
   286   245   302    1
   287   245   303    1
   288   246   247    1
   289   246   304    1
   290   246   305    1
   291   247   248    1
   292   247   306    1
   293   247   307    1
   294   248   308    1
   295   248   309    1
   296   248   310    1
   297   249   250    2
   298   249   251    1
   299   251   252    1
   300   251   311    1
   301   251   312    1
   302   252   253    1
   303   253   254    1
   304   253   313    1
   305   253   314    1
   306   254   255    2
   307   254   256    1
   308   256   257    1
   309   256   263    1
   310   257   258    1
   311   257   315    1
   312   257   316    1
   313   258   259    1
   314   258   317    1
   315   258   318    1
   316   259   260    1
   317   259   319    1
   318   259   320    1
   319   260   261    1
   320   260   321    1
   321   260   322    1
   322   261   262    1
   323   261   323    1
   324   261   324    1
   325   262   325    1
   326   262   326    1
   327   262   327    1
   328   263   264    1
   329   263   328    1
   330   263   329    1
   331   264   265    1
   332   264   330    1
   333   264   331    1
   334   265   266    1
   335   265   332    1
   336   265   333    1
   337   266   267    1
   338   266   334    1
   339   266   335    1
   340   267   268    1
   341   267   336    1
   342   267   337    1
   343   268   338    1
   344   268   339    1
   345   268   340    1
@<TRIPOS>SUBSTRUCTURE
     1 RES1      340 GROUP             0 ****  ****    0  
