@<TRIPOS>MOLECULE
capped_square_antiprismatic_0_nunpairedes_0_charge_3 Charge: 3 Unpaired_Electrons: 3 XTB_Unpaired_Electrons: 0 XTB_Charge: 3
   440   443     1     0     0
SMALL
NoCharges
****
Generated from Architector

@<TRIPOS>ATOM
     1 Nd1       0.0021    0.1146   -0.1162   Nd        1 RES1   0.0000
     2 C1       -9.4956    5.0446    0.4859   C.3       1 RES1   0.0000
     3 C2       -9.9775    3.8574    1.3078   C.3       1 RES1   0.0000
     4 C3       -8.8332    3.2071    2.0824   C.3       1 RES1   0.0000
     5 C4       -9.3366    2.1714    3.0846   C.3       1 RES1   0.0000
     6 C5       -8.2419    1.6060    3.9947   C.3       1 RES1   0.0000
     7 C6       -7.3092    0.5896    3.3112   C.3       1 RES1   0.0000
     8 C7       -5.8271    0.9785    3.2717   C.3       1 RES1   0.0000
     9 C8       -5.4974    2.0435    2.2136   C.3       1 RES1   0.0000
    10 N1       -4.0647    2.1644    1.9570   N.am      1 RES1   0.0000
    11 C9       -3.4415    3.1759    2.8075   C.3       1 RES1   0.0000
    12 C10      -3.6074    4.6359    2.3643   C.3       1 RES1   0.0000
    13 C11      -2.4692    5.1504    1.4834   C.3       1 RES1   0.0000
    14 C12      -2.6058    4.7585    0.0148   C.3       1 RES1   0.0000
    15 C13      -3.8227    5.4218   -0.6516   C.3       1 RES1   0.0000
    16 C14      -4.9026    4.4276   -1.0770   C.3       1 RES1   0.0000
    17 C15      -6.0553    5.1178   -1.8052   C.3       1 RES1   0.0000
    18 C16      -7.0093    4.1178   -2.4429   C.3       1 RES1   0.0000
    19 C17      -3.3386    1.3230    1.2058   C.2       1 RES1   0.0000
    20 O1       -2.1168    1.4658    1.0175   O.2       1 RES1   0.0000
    21 C18      -4.0516    0.1180    0.6012   C.3       1 RES1   0.0000
    22 C19      -3.7485   -0.0116   -0.8833   C.2       1 RES1   0.0000
    23 O2       -2.5663   -0.2071   -1.2208   O.2       1 RES1   0.0000
    24 N2       -4.7635    0.0308   -1.7535   N.am      1 RES1   0.0000
    25 C20      -6.1455    0.3925   -1.4725   C.3       1 RES1   0.0000
    26 C21      -7.1923   -0.7112   -1.6837   C.3       1 RES1   0.0000
    27 C22      -6.9797   -2.0095   -0.9020   C.3       1 RES1   0.0000
    28 C23      -5.8908   -2.9239   -1.4676   C.3       1 RES1   0.0000
    29 C24      -5.9587   -4.3444   -0.8993   C.3       1 RES1   0.0000
    30 C25      -5.9106   -4.4294    0.6253   C.3       1 RES1   0.0000
    31 C26      -4.6721   -3.8104    1.2701   C.3       1 RES1   0.0000
    32 C27      -3.3661   -4.4197    0.7678   C.3       1 RES1   0.0000
    33 C28      -4.5052   -0.2161   -3.1653   C.3       1 RES1   0.0000
    34 C29      -4.3288    1.0669   -3.9830   C.3       1 RES1   0.0000
    35 C30      -3.1508    1.9365   -3.5327   C.3       1 RES1   0.0000
    36 C31      -1.8998    1.7324   -4.3763   C.3       1 RES1   0.0000
    37 C32      -1.3552    0.3079   -4.4086   C.3       1 RES1   0.0000
    38 C33      -0.1460    0.1185   -3.5001   C.3       1 RES1   0.0000
    39 C34       0.5881   -1.1763   -3.8321   C.3       1 RES1   0.0000
    40 C35       1.2573   -1.1782   -5.2023   C.3       1 RES1   0.0000
    41 H1      -10.3161    5.4737   -0.0801   H         1 RES1   0.0000
    42 H2       -8.7203    4.7417   -0.2127   H         1 RES1   0.0000
    43 H3       -9.0914    5.8176    1.1354   H         1 RES1   0.0000
    44 H4      -10.4389    3.1163    0.6526   H         1 RES1   0.0000
    45 H5      -10.7384    4.1950    2.0119   H         1 RES1   0.0000
    46 H6       -8.2861    3.9847    2.6227   H         1 RES1   0.0000
    47 H7       -8.1438    2.7392    1.3746   H         1 RES1   0.0000
    48 H8       -9.8355    1.3546    2.5578   H         1 RES1   0.0000
    49 H9      -10.0876    2.6483    3.7164   H         1 RES1   0.0000
    50 H10      -8.7355    1.1124    4.8332   H         1 RES1   0.0000
    51 H11      -7.6623    2.4344    4.4075   H         1 RES1   0.0000
    52 H12      -7.6583    0.3992    2.2950   H         1 RES1   0.0000
    53 H13      -7.3716   -0.3569    3.8490   H         1 RES1   0.0000
    54 H14      -5.2380    0.0808    3.0649   H         1 RES1   0.0000
    55 H15      -5.5311    1.3406    4.2581   H         1 RES1   0.0000
    56 H16      -5.8370    3.0212    2.5606   H         1 RES1   0.0000
    57 H17      -6.0327    1.8441    1.2841   H         1 RES1   0.0000
    58 H18      -2.3863    2.9425    2.8673   H         1 RES1   0.0000
    59 H19      -3.8765    3.0511    3.8054   H         1 RES1   0.0000
    60 H20      -3.6476    5.2390    3.2727   H         1 RES1   0.0000
    61 H21      -4.5579    4.7670    1.8497   H         1 RES1   0.0000
    62 H22      -1.5167    4.7795    1.8734   H         1 RES1   0.0000
    63 H23      -2.4571    6.2403    1.5470   H         1 RES1   0.0000
    64 H24      -2.6524    3.6718   -0.0818   H         1 RES1   0.0000
    65 H25      -1.6940    5.0748   -0.4891   H         1 RES1   0.0000
    66 H26      -3.4994    5.9753   -1.5338   H         1 RES1   0.0000
    67 H27      -4.2594    6.1519    0.0328   H         1 RES1   0.0000
    68 H28      -5.2938    3.8991   -0.2022   H         1 RES1   0.0000
    69 H29      -4.4562    3.6796   -1.7366   H         1 RES1   0.0000
    70 H30      -5.6552    5.7708   -2.5821   H         1 RES1   0.0000
    71 H31      -6.5991    5.7475   -1.1000   H         1 RES1   0.0000
    72 H32      -6.5054    3.5566   -3.2264   H         1 RES1   0.0000
    73 H33      -7.8541    4.6288   -2.8923   H         1 RES1   0.0000
    74 H34      -7.3885    3.4179   -1.7014   H         1 RES1   0.0000
    75 H35      -5.1054    0.0714    0.8323   H         1 RES1   0.0000
    76 H36      -3.5443   -0.7337    1.0638   H         1 RES1   0.0000
    77 H37      -6.4077    1.2228   -2.1332   H         1 RES1   0.0000
    78 H38      -6.2368    0.7699   -0.4609   H         1 RES1   0.0000
    79 H39      -7.2712   -0.9477   -2.7439   H         1 RES1   0.0000
    80 H40      -8.1515   -0.2813   -1.3795   H         1 RES1   0.0000
    81 H41      -7.9191   -2.5653   -0.9246   H         1 RES1   0.0000
    82 H42      -6.7683   -1.7795    0.1432   H         1 RES1   0.0000
    83 H43      -4.9027   -2.4973   -1.2853   H         1 RES1   0.0000
    84 H44      -6.0178   -2.9920   -2.5510   H         1 RES1   0.0000
    85 H45      -5.1389   -4.9240   -1.3292   H         1 RES1   0.0000
    86 H46      -6.8896   -4.8053   -1.2353   H         1 RES1   0.0000
    87 H47      -5.9564   -5.4829    0.8994   H         1 RES1   0.0000
    88 H48      -6.7995   -3.9506    1.0359   H         1 RES1   0.0000
    89 H49      -4.7431   -3.9685    2.3473   H         1 RES1   0.0000
    90 H50      -4.6643   -2.7337    1.0991   H         1 RES1   0.0000
    91 H51      -3.4756   -5.4967    0.6782   H         1 RES1   0.0000
    92 H52      -2.5597   -4.2134    1.4726   H         1 RES1   0.0000
    93 H53      -3.0920   -4.0303   -0.2128   H         1 RES1   0.0000
    94 H54      -5.3511   -0.7714   -3.5697   H         1 RES1   0.0000
    95 H55      -3.6243   -0.8529   -3.2180   H         1 RES1   0.0000
    96 H56      -5.2522    1.6457   -3.9249   H         1 RES1   0.0000
    97 H57      -4.2013    0.7876   -5.0302   H         1 RES1   0.0000
    98 H58      -2.9108    1.7384   -2.4890   H         1 RES1   0.0000
    99 H59      -3.4303    2.9909   -3.6025   H         1 RES1   0.0000
   100 H60      -1.1211    2.3661   -3.9682   H         1 RES1   0.0000
   101 H61      -2.1070    2.0653   -5.3913   H         1 RES1   0.0000
   102 H62      -1.0576    0.0695   -5.4253   H         1 RES1   0.0000
   103 H63      -2.1154   -0.4131   -4.1330   H         1 RES1   0.0000
   104 H64      -0.4802    0.0689   -2.4315   H         1 RES1   0.0000
   105 H65       0.5393    0.9629   -3.6109   H         1 RES1   0.0000
   106 H66      -0.1614   -1.9602   -3.8034   H         1 RES1   0.0000
   107 H67       1.3258   -1.3760   -3.0505   H         1 RES1   0.0000
   108 H68       0.5282   -1.2636   -6.0037   H         1 RES1   0.0000
   109 H69       1.9406   -2.0164   -5.2901   H         1 RES1   0.0000
   110 H70       1.8268   -0.2682   -5.3699   H         1 RES1   0.0000
   111 C36      -1.5755   -8.5508    3.7255   C.3       1 RES1   0.0000
   112 C37      -1.8708   -9.0904    2.3327   C.3       1 RES1   0.0000
   113 C38      -2.2711   -7.9626    1.3869   C.3       1 RES1   0.0000
   114 C39      -2.5550   -8.4128   -0.0489   C.3       1 RES1   0.0000
   115 C40      -1.3861   -9.0809   -0.7837   C.3       1 RES1   0.0000
   116 C41      -0.0312   -8.3642   -0.7790   C.3       1 RES1   0.0000
   117 C42       0.1158   -7.1612   -1.7149   C.3       1 RES1   0.0000
   118 C43      -0.8694   -6.0291   -1.3980   C.3       1 RES1   0.0000
   119 N3       -0.4153   -4.6982   -1.7849   N.am      1 RES1   0.0000
   120 C44      -0.5542   -4.4502   -3.2111   C.3       1 RES1   0.0000
   121 C45      -1.9786   -4.0463   -3.6334   C.3       1 RES1   0.0000
   122 C46      -2.3824   -4.6697   -4.9734   C.3       1 RES1   0.0000
   123 C47      -1.6790   -4.0193   -6.1716   C.3       1 RES1   0.0000
   124 C48      -1.0404   -5.0381   -7.1196   C.3       1 RES1   0.0000
   125 C49       0.3521   -4.5829   -7.5446   C.3       1 RES1   0.0000
   126 C50       1.3884   -4.6228   -6.4207   C.3       1 RES1   0.0000
   127 C51       1.8914   -6.0301   -6.1221   C.3       1 RES1   0.0000
   128 C52       0.0002   -3.7545   -0.9337   C.2       1 RES1   0.0000
   129 O3        0.0503   -2.5433   -1.2070   O.2       1 RES1   0.0000
   130 C53       0.4376   -4.3032    0.4238   C.3       1 RES1   0.0000
   131 C54       1.3992   -3.3884    1.1643   C.2       1 RES1   0.0000
   132 O4        1.1608   -2.1670    1.2251   O.2       1 RES1   0.0000
   133 N4        2.4055   -3.9747    1.8177   N.am      1 RES1   0.0000
   134 C55       2.8854   -5.3337    1.5811   C.3       1 RES1   0.0000
   135 C56       3.6941   -5.4622    0.2742   C.3       1 RES1   0.0000
   136 C57       5.2096   -5.2067    0.4317   C.3       1 RES1   0.0000
   137 C58       5.7348   -4.0668   -0.4494   C.3       1 RES1   0.0000
   138 C59       7.1785   -3.6890   -0.1032   C.3       1 RES1   0.0000
   139 C60       7.8621   -2.7494   -1.1036   C.3       1 RES1   0.0000
   140 C61       7.4661   -1.2865   -0.9078   C.3       1 RES1   0.0000
   141 C62       8.2206   -0.3359   -1.8320   C.3       1 RES1   0.0000
   142 C63       3.1817   -3.2055    2.7808   C.3       1 RES1   0.0000
   143 C64       3.0044   -3.7042    4.2255   C.3       1 RES1   0.0000
   144 C65       4.2072   -3.3138    5.0924   C.3       1 RES1   0.0000
   145 C66       5.4446   -4.1699    4.7943   C.3       1 RES1   0.0000
   146 C67       6.7831   -3.4221    4.9341   C.3       1 RES1   0.0000
   147 C68       7.5279   -3.3579    3.5992   C.3       1 RES1   0.0000
   148 C69       8.9483   -2.8033    3.7193   C.3       1 RES1   0.0000
   149 C70       8.9851   -1.2915    3.8968   C.3       1 RES1   0.0000
   150 H71      -1.3336   -9.3605    4.4059   H         1 RES1   0.0000
   151 H72      -2.4400   -8.0207    4.1194   H         1 RES1   0.0000
   152 H73      -0.7305   -7.8638    3.7006   H         1 RES1   0.0000
   153 H74      -2.6824   -9.8151    2.3868   H         1 RES1   0.0000
   154 H75      -0.9881   -9.6021    1.9505   H         1 RES1   0.0000
   155 H76      -1.4870   -7.1984    1.4005   H         1 RES1   0.0000
   156 H77      -3.1792   -7.4962    1.7800   H         1 RES1   0.0000
   157 H78      -2.9223   -7.5584   -0.6229   H         1 RES1   0.0000
   158 H79      -3.3682   -9.1407   -0.0184   H         1 RES1   0.0000
   159 H80      -1.6922   -9.2680   -1.8148   H         1 RES1   0.0000
   160 H81      -1.2285  -10.0583   -0.3282   H         1 RES1   0.0000
   161 H82       0.7111   -9.0955   -1.0998   H         1 RES1   0.0000
   162 H83       0.2299   -8.0702    0.2388   H         1 RES1   0.0000
   163 H84      -0.0249   -7.4923   -2.7432   H         1 RES1   0.0000
   164 H85       1.1395   -6.7842   -1.6407   H         1 RES1   0.0000
   165 H86      -1.1153   -6.0331   -0.3411   H         1 RES1   0.0000
   166 H87      -1.7971   -6.1999   -1.9498   H         1 RES1   0.0000
   167 H88      -0.2578   -5.3710   -3.7195   H         1 RES1   0.0000
   168 H89       0.1735   -3.6865   -3.4721   H         1 RES1   0.0000
   169 H90      -2.0497   -2.9574   -3.6895   H         1 RES1   0.0000
   170 H91      -2.6863   -4.3698   -2.8664   H         1 RES1   0.0000
   171 H92      -3.4630   -4.5948   -5.0971   H         1 RES1   0.0000
   172 H93      -2.1321   -5.7339   -4.9410   H         1 RES1   0.0000
   173 H94      -0.8988   -3.3551   -5.8027   H         1 RES1   0.0000
   174 H95      -2.3732   -3.4018   -6.7414   H         1 RES1   0.0000
   175 H96      -1.6586   -5.1471   -8.0085   H         1 RES1   0.0000
   176 H97      -0.9970   -6.0146   -6.6407   H         1 RES1   0.0000
   177 H98       0.2490   -3.5534   -7.8919   H         1 RES1   0.0000
   178 H99       0.7091   -5.1905   -8.3765   H         1 RES1   0.0000
   179 H100      0.9701   -4.1607   -5.5238   H         1 RES1   0.0000
   180 H101      2.2406   -4.0082   -6.7156   H         1 RES1   0.0000
   181 H102      2.6105   -6.0209   -5.3017   H         1 RES1   0.0000
   182 H103      2.3972   -6.4329   -6.9987   H         1 RES1   0.0000
   183 H104      1.0836   -6.7100   -5.8559   H         1 RES1   0.0000
   184 H105      0.8746   -5.2814    0.2619   H         1 RES1   0.0000
   185 H106     -0.4448   -4.4024    1.0662   H         1 RES1   0.0000
   186 H107      2.0536   -6.0412    1.5831   H         1 RES1   0.0000
   187 H108      3.5330   -5.6084    2.4146   H         1 RES1   0.0000
   188 H109      3.2930   -4.7619   -0.4610   H         1 RES1   0.0000
   189 H110      3.5427   -6.4705   -0.1144   H         1 RES1   0.0000
   190 H111      5.7563   -6.1170    0.1813   H         1 RES1   0.0000
   191 H112      5.4451   -4.9871    1.4738   H         1 RES1   0.0000
   192 H113      5.0836   -3.1963   -0.3349   H         1 RES1   0.0000
   193 H114      5.6820   -4.3835   -1.4929   H         1 RES1   0.0000
   194 H115      7.7708   -4.6025   -0.0295   H         1 RES1   0.0000
   195 H116      7.1932   -3.2140    0.8793   H         1 RES1   0.0000
   196 H117      7.6510   -3.0625   -2.1284   H         1 RES1   0.0000
   197 H118      8.9401   -2.8305   -0.9583   H         1 RES1   0.0000
   198 H119      7.6751   -1.0070    0.1278   H         1 RES1   0.0000
   199 H120      6.3950   -1.1679   -1.0704   H         1 RES1   0.0000
   200 H121      9.2907   -0.4123   -1.6554   H         1 RES1   0.0000
   201 H122      7.9186    0.6963   -1.6467   H         1 RES1   0.0000
   202 H123      8.0343   -0.5707   -2.8796   H         1 RES1   0.0000
   203 H124      2.8472   -2.1709    2.7088   H         1 RES1   0.0000
   204 H125      4.2369   -3.2603    2.5048   H         1 RES1   0.0000
   205 H126      2.8936   -4.7909    4.2521   H         1 RES1   0.0000
   206 H127      2.0984   -3.2671    4.6502   H         1 RES1   0.0000
   207 H128      3.9356   -3.4209    6.1432   H         1 RES1   0.0000
   208 H129      4.4243   -2.2576    4.9292   H         1 RES1   0.0000
   209 H130      5.3717   -4.5534    3.7736   H         1 RES1   0.0000
   210 H131      5.4362   -5.0405    5.4502   H         1 RES1   0.0000
   211 H132      7.4197   -3.9233    5.6630   H         1 RES1   0.0000
   212 H133      6.6150   -2.4065    5.2971   H         1 RES1   0.0000
   213 H134      6.9554   -2.7322    2.9068   H         1 RES1   0.0000
   214 H135      7.5841   -4.3656    3.1768   H         1 RES1   0.0000
   215 H136      9.5085   -3.0663    2.8190   H         1 RES1   0.0000
   216 H137      9.4424   -3.2812    4.5660   H         1 RES1   0.0000
   217 H138      8.5668   -0.7968    3.0216   H         1 RES1   0.0000
   218 H139     10.0096   -0.9529    4.0187   H         1 RES1   0.0000
   219 H140      8.4204   -0.9876    4.7743   H         1 RES1   0.0000
   220 C71      -1.1947    7.3581    5.8226   C.3       1 RES1   0.0000
   221 C72      -1.7594    6.2994    6.7602   C.3       1 RES1   0.0000
   222 C73      -2.4296    5.1602    5.9964   C.3       1 RES1   0.0000
   223 C74      -3.0996    4.1145    6.8954   C.3       1 RES1   0.0000
   224 C75      -2.2040    3.5031    7.9766   C.3       1 RES1   0.0000
   225 C76      -0.8977    2.8527    7.5109   C.3       1 RES1   0.0000
   226 C77      -1.0164    1.4489    6.9039   C.3       1 RES1   0.0000
   227 C78      -1.6815    1.4002    5.5139   C.3       1 RES1   0.0000
   228 N5       -1.0608    0.4516    4.5931   N.am      1 RES1   0.0000
   229 C79      -1.3598   -0.9487    4.8925   C.3       1 RES1   0.0000
   230 C80      -2.6530   -1.4380    4.2287   C.3       1 RES1   0.0000
   231 C81      -3.2488   -2.6776    4.9060   C.3       1 RES1   0.0000
   232 C82      -2.3280   -3.9121    4.9285   C.3       1 RES1   0.0000
   233 C83      -2.1468   -4.4465    6.3516   C.3       1 RES1   0.0000
   234 C84      -1.1570   -5.6069    6.4572   C.3       1 RES1   0.0000
   235 C85       0.3064   -5.2209    6.2413   C.3       1 RES1   0.0000
   236 C86       0.8235   -4.2363    7.2841   C.3       1 RES1   0.0000
   237 C87      -0.3991    0.7535    3.4703   C.2       1 RES1   0.0000
   238 O5       -0.0761   -0.1079    2.6398   O.2       1 RES1   0.0000
   239 C88      -0.0402    2.2132    3.2027   C.3       1 RES1   0.0000
   240 C89       1.2778    2.3479    2.4750   C.2       1 RES1   0.0000
   241 O6        1.4042    1.8009    1.3570   O.2       1 RES1   0.0000
   242 N6        2.2162    3.1212    3.0178   N.am      1 RES1   0.0000
   243 C90       2.1690    3.6991    4.3584   C.3       1 RES1   0.0000
   244 C91       2.2572    2.7114    5.5308   C.3       1 RES1   0.0000
   245 C92       3.6429    2.0971    5.7658   C.3       1 RES1   0.0000
   246 C93       3.8758    0.8147    4.9522   C.3       1 RES1   0.0000
   247 C94       5.2609    0.7208    4.3060   C.3       1 RES1   0.0000
   248 C95       5.2645   -0.1838    3.0701   C.3       1 RES1   0.0000
   249 C96       4.5264    0.4755    1.9043   C.3       1 RES1   0.0000
   250 C97       4.0833   -0.4406    0.7614   C.3       1 RES1   0.0000
   251 C98       3.4149    3.4433    2.2616   C.3       1 RES1   0.0000
   252 C99       3.5372    4.9050    1.8322   C.3       1 RES1   0.0000
   253 C100      4.9681    5.1155    1.3240   C.3       1 RES1   0.0000
   254 C101      5.9662    5.2938    2.4764   C.3       1 RES1   0.0000
   255 C102      7.3839    4.7965    2.1692   C.3       1 RES1   0.0000
   256 C103      7.5193    3.2795    2.3160   C.3       1 RES1   0.0000
   257 C104      8.9587    2.7722    2.1948   C.3       1 RES1   0.0000
   258 C105      9.4996    2.7988    0.7707   C.3       1 RES1   0.0000
   259 H141     -0.7349    8.1570    6.3953   H         1 RES1   0.0000
   260 H142     -1.9795    7.7899    5.2076   H         1 RES1   0.0000
   261 H143     -0.4392    6.9332    5.1640   H         1 RES1   0.0000
   262 H144     -2.4918    6.7593    7.4227   H         1 RES1   0.0000
   263 H145     -0.9524    5.9047    7.3767   H         1 RES1   0.0000
   264 H146     -1.6942    4.6858    5.3369   H         1 RES1   0.0000
   265 H147     -3.2036    5.5890    5.3546   H         1 RES1   0.0000
   266 H148     -3.5207    3.3222    6.2693   H         1 RES1   0.0000
   267 H149     -3.9355    4.5960    7.4082   H         1 RES1   0.0000
   268 H150     -2.7893    2.7696    8.5339   H         1 RES1   0.0000
   269 H151     -1.9465    4.2948    8.6803   H         1 RES1   0.0000
   270 H152     -0.2638    2.7512    8.3942   H         1 RES1   0.0000
   271 H153     -0.3821    3.5162    6.8153   H         1 RES1   0.0000
   272 H154     -1.5724    0.8235    7.6021   H         1 RES1   0.0000
   273 H155     -0.0106    1.0298    6.8266   H         1 RES1   0.0000
   274 H156     -1.6803    2.3907    5.0720   H         1 RES1   0.0000
   275 H157     -2.7278    1.0993    5.6180   H         1 RES1   0.0000
   276 H158     -1.4558   -1.0388    5.9752   H         1 RES1   0.0000
   277 H159     -0.5079   -1.5450    4.5663   H         1 RES1   0.0000
   278 H160     -2.4748   -1.6339    3.1708   H         1 RES1   0.0000
   279 H161     -3.3934   -0.6380    4.2964   H         1 RES1   0.0000
   280 H162     -4.1859   -2.9201    4.3982   H         1 RES1   0.0000
   281 H163     -3.5080   -2.4183    5.9346   H         1 RES1   0.0000
   282 H164     -1.3507   -3.6597    4.5151   H         1 RES1   0.0000
   283 H165     -2.7496   -4.7042    4.3061   H         1 RES1   0.0000
   284 H166     -3.1167   -4.7857    6.7204   H         1 RES1   0.0000
   285 H167     -1.8190   -3.6327    6.9991   H         1 RES1   0.0000
   286 H168     -1.4329   -6.3726    5.7305   H         1 RES1   0.0000
   287 H169     -1.2511   -6.0501    7.4498   H         1 RES1   0.0000
   288 H170      0.4395   -4.8047    5.2395   H         1 RES1   0.0000
   289 H171      0.9033   -6.1329    6.2933   H         1 RES1   0.0000
   290 H172      0.4149   -3.2398    7.1319   H         1 RES1   0.0000
   291 H173      1.9062   -4.1643    7.2343   H         1 RES1   0.0000
   292 H174      0.5531   -4.5704    8.2818   H         1 RES1   0.0000
   293 H175     -0.0937    2.8410    4.0852   H         1 RES1   0.0000
   294 H176     -0.7589    2.5216    2.4339   H         1 RES1   0.0000
   295 H177      1.2662    4.3053    4.4685   H         1 RES1   0.0000
   296 H178      3.0174    4.3777    4.4343   H         1 RES1   0.0000
   297 H179      1.5363    1.9062    5.3989   H         1 RES1   0.0000
   298 H180      1.9626    3.2656    6.4248   H         1 RES1   0.0000
   299 H181      3.7330    1.8728    6.8285   H         1 RES1   0.0000
   300 H182      4.4139    2.8355    5.5435   H         1 RES1   0.0000
   301 H183      3.1107    0.7462    4.1797   H         1 RES1   0.0000
   302 H184      3.7213   -0.0490    5.5991   H         1 RES1   0.0000
   303 H185      5.9711    0.3518    5.0460   H         1 RES1   0.0000
   304 H186      5.6055    1.7172    4.0235   H         1 RES1   0.0000
   305 H187      4.8146   -1.1363    3.3333   H         1 RES1   0.0000
   306 H188      6.2970   -0.3768    2.7829   H         1 RES1   0.0000
   307 H189      5.1920    1.2454    1.5114   H         1 RES1   0.0000
   308 H190      3.6321    0.9673    2.2770   H         1 RES1   0.0000
   309 H191      4.6779   -1.3473    0.7285   H         1 RES1   0.0000
   310 H192      4.2020    0.0772   -0.1880   H         1 RES1   0.0000
   311 H193      3.0283   -0.7178    0.8598   H         1 RES1   0.0000
   312 H194      3.4205    2.8231    1.3683   H         1 RES1   0.0000
   313 H195      4.2819    3.1825    2.8703   H         1 RES1   0.0000
   314 H196      3.3469    5.5867    2.6620   H         1 RES1   0.0000
   315 H197      2.8109    5.1319    1.0485   H         1 RES1   0.0000
   316 H198      5.0010    5.9978    0.6858   H         1 RES1   0.0000
   317 H199      5.2503    4.2529    0.7150   H         1 RES1   0.0000
   318 H200      5.6082    4.7637    3.3625   H         1 RES1   0.0000
   319 H201      6.0045    6.3509    2.7411   H         1 RES1   0.0000
   320 H202      8.0716    5.2699    2.8724   H         1 RES1   0.0000
   321 H203      7.6779    5.1019    1.1645   H         1 RES1   0.0000
   322 H204      6.8959    2.7717    1.5723   H         1 RES1   0.0000
   323 H205      7.1559    3.0020    3.3098   H         1 RES1   0.0000
   324 H206      8.9954    1.7443    2.5668   H         1 RES1   0.0000
   325 H207      9.6019    3.3764    2.8375   H         1 RES1   0.0000
   326 H208      8.8997    2.1675    0.1163   H         1 RES1   0.0000
   327 H209     10.5209    2.4278    0.7585   H         1 RES1   0.0000
   328 H210      9.5046    3.8103    0.3738   H         1 RES1   0.0000
   329 C106      5.7313    8.0197   -2.0443   C.3       1 RES1   0.0000
   330 C107      6.6777    6.9719   -2.6166   C.3       1 RES1   0.0000
   331 C108      6.5208    5.6284   -1.9106   C.3       1 RES1   0.0000
   332 C109      7.5444    4.5752   -2.3364   C.3       1 RES1   0.0000
   333 C110      7.6313    4.3236   -3.8406   C.3       1 RES1   0.0000
   334 C111      6.3416    3.9442   -4.5703   C.3       1 RES1   0.0000
   335 C112      5.7609    2.5548   -4.2643   C.3       1 RES1   0.0000
   336 C113      4.9516    2.4808   -2.9604   C.3       1 RES1   0.0000
   337 N7        3.9698    1.3818   -2.8550   N.am      1 RES1   0.0000
   338 C114      4.2957    0.1928   -3.6606   C.3       1 RES1   0.0000
   339 C115      4.2637   -1.1997   -3.0297   C.3       1 RES1   0.0000
   340 C116      5.2393   -2.1388   -3.7608   C.3       1 RES1   0.0000
   341 C117      4.7545   -2.6800   -5.1154   C.3       1 RES1   0.0000
   342 C118      5.9366   -3.1441   -5.9762   C.3       1 RES1   0.0000
   343 C119      5.6334   -4.1822   -7.0635   C.3       1 RES1   0.0000
   344 C120      4.7736   -3.7485   -8.2653   C.3       1 RES1   0.0000
   345 C121      4.8080   -2.2632   -8.6143   C.3       1 RES1   0.0000
   346 C122      2.9035    1.4512   -2.0522   C.2       1 RES1   0.0000
   347 O7        2.2032    0.4669   -1.7347   O.2       1 RES1   0.0000
   348 C123      2.4481    2.7875   -1.4600   C.3       1 RES1   0.0000
   349 C124      1.0226    3.0932   -1.9267   C.2       1 RES1   0.0000
   350 O8        0.0947    2.5034   -1.3344   O.2       1 RES1   0.0000
   351 N8        0.8256    4.0087   -2.8884   N.am      1 RES1   0.0000
   352 C125      1.8085    4.3199   -3.9219   C.3       1 RES1   0.0000
   353 C126      1.8958    3.2373   -5.0202   C.3       1 RES1   0.0000
   354 C127      0.9143    3.3841   -6.1953   C.3       1 RES1   0.0000
   355 C128      0.7426    2.0636   -6.9535   C.3       1 RES1   0.0000
   356 C129     -0.3790    2.0956   -8.0034   C.3       1 RES1   0.0000
   357 C130     -1.0664    0.7302   -8.2003   C.3       1 RES1   0.0000
   358 C131     -2.5955    0.8125   -8.1335   C.3       1 RES1   0.0000
   359 C132     -3.2186   -0.5364   -7.7919   C.3       1 RES1   0.0000
   360 C133     -0.5003    4.5800   -3.1361   C.3       1 RES1   0.0000
   361 C134     -0.5864    6.1104   -3.0310   C.3       1 RES1   0.0000
   362 C135     -1.8936    6.5823   -3.6940   C.3       1 RES1   0.0000
   363 C136     -1.7544    6.8674   -5.1963   C.3       1 RES1   0.0000
   364 C137     -3.0604    6.6386   -5.9730   C.3       1 RES1   0.0000
   365 C138     -3.1799    5.1990   -6.4806   C.3       1 RES1   0.0000
   366 C139     -4.4002    4.9650   -7.3771   C.3       1 RES1   0.0000
   367 C140     -5.7150    4.8688   -6.6119   C.3       1 RES1   0.0000
   368 H211      5.8442    8.9610   -2.5735   H         1 RES1   0.0000
   369 H212      5.9403    8.1956   -0.9920   H         1 RES1   0.0000
   370 H213      4.6952    7.6981   -2.1387   H         1 RES1   0.0000
   371 H214      7.7059    7.3158   -2.5067   H         1 RES1   0.0000
   372 H215      6.4757    6.8553   -3.6810   H         1 RES1   0.0000
   373 H216      5.5027    5.2591   -2.0681   H         1 RES1   0.0000
   374 H217      6.6410    5.7937   -0.8392   H         1 RES1   0.0000
   375 H218      7.3366    3.6417   -1.8073   H         1 RES1   0.0000
   376 H219      8.5309    4.9115   -2.0106   H         1 RES1   0.0000
   377 H220      8.3770    3.5462   -4.0124   H         1 RES1   0.0000
   378 H221      8.0073    5.2320   -4.3103   H         1 RES1   0.0000
   379 H222      6.5820    3.9447   -5.6355   H         1 RES1   0.0000
   380 H223      5.5813    4.7098   -4.4154   H         1 RES1   0.0000
   381 H224      6.5937    1.8514   -4.2327   H         1 RES1   0.0000
   382 H225      5.1074    2.2843   -5.0969   H         1 RES1   0.0000
   383 H226      4.4312    3.4297   -2.8669   H         1 RES1   0.0000
   384 H227      5.6378    2.3853   -2.1127   H         1 RES1   0.0000
   385 H228      5.3132    0.3475   -4.0040   H         1 RES1   0.0000
   386 H229      3.6406    0.2027   -4.5338   H         1 RES1   0.0000
   387 H230      3.2616   -1.6202   -3.0640   H         1 RES1   0.0000
   388 H231      4.5567   -1.1321   -1.9828   H         1 RES1   0.0000
   389 H232      5.4396   -2.9875   -3.1049   H         1 RES1   0.0000
   390 H233      6.1900   -1.6190   -3.9024   H         1 RES1   0.0000
   391 H234      4.2035   -1.9107   -5.6566   H         1 RES1   0.0000
   392 H235      4.0781   -3.5185   -4.9346   H         1 RES1   0.0000
   393 H236      6.6835   -3.6011   -5.3213   H         1 RES1   0.0000
   394 H237      6.4012   -2.2713   -6.4391   H         1 RES1   0.0000
   395 H238      5.1771   -5.0661   -6.6068   H         1 RES1   0.0000
   396 H239      6.6037   -4.4937   -7.4549   H         1 RES1   0.0000
   397 H240      3.7328   -4.0412   -8.1206   H         1 RES1   0.0000
   398 H241      5.1304   -4.3108   -9.1296   H         1 RES1   0.0000
   399 H242      4.2119   -1.6783   -7.9139   H         1 RES1   0.0000
   400 H243      4.3963   -2.1157   -9.6111   H         1 RES1   0.0000
   401 H244      5.8231   -1.8741   -8.6176   H         1 RES1   0.0000
   402 H245      3.1160    3.6318   -1.5705   H         1 RES1   0.0000
   403 H246      2.3147    2.5791   -0.3929   H         1 RES1   0.0000
   404 H247      2.7904    4.4506   -3.4689   H         1 RES1   0.0000
   405 H248      1.5297    5.2702   -4.3772   H         1 RES1   0.0000
   406 H249      1.7441    2.2621   -4.5496   H         1 RES1   0.0000
   407 H250      2.9077    3.2546   -5.4279   H         1 RES1   0.0000
   408 H251      1.2673    4.1616   -6.8738   H         1 RES1   0.0000
   409 H252     -0.0705    3.6896   -5.8437   H         1 RES1   0.0000
   410 H253      0.5138    1.2948   -6.2185   H         1 RES1   0.0000
   411 H254      1.6792    1.7817   -7.4336   H         1 RES1   0.0000
   412 H255      0.0163    2.4536   -8.9539   H         1 RES1   0.0000
   413 H256     -1.1356    2.8149   -7.6850   H         1 RES1   0.0000
   414 H257     -0.7310    0.0372   -7.4258   H         1 RES1   0.0000
   415 H258     -0.7784    0.2809   -9.1512   H         1 RES1   0.0000
   416 H259     -2.9874    1.1626   -9.0887   H         1 RES1   0.0000
   417 H260     -2.8991    1.5389   -7.3753   H         1 RES1   0.0000
   418 H261     -2.9444   -1.2815   -8.5352   H         1 RES1   0.0000
   419 H262     -4.3036   -0.4659   -7.7611   H         1 RES1   0.0000
   420 H263     -2.8789   -0.8802   -6.8143   H         1 RES1   0.0000
   421 H264     -1.1890    4.1259   -2.4234   H         1 RES1   0.0000
   422 H265     -0.8106    4.3258   -4.1505   H         1 RES1   0.0000
   423 H266      0.2516    6.5926   -3.5358   H         1 RES1   0.0000
   424 H267     -0.5591    6.4240   -1.9865   H         1 RES1   0.0000
   425 H268     -2.2414    7.4917   -3.2012   H         1 RES1   0.0000
   426 H269     -2.6540    5.8124   -3.5463   H         1 RES1   0.0000
   427 H270     -0.9797    6.2287   -5.6285   H         1 RES1   0.0000
   428 H271     -1.4304    7.9002   -5.3322   H         1 RES1   0.0000
   429 H272     -3.0900    7.3087   -6.8339   H         1 RES1   0.0000
   430 H273     -3.9151    6.8846   -5.3397   H         1 RES1   0.0000
   431 H274     -3.2156    4.5086   -5.6305   H         1 RES1   0.0000
   432 H275     -2.2801    4.9718   -7.0630   H         1 RES1   0.0000
   433 H276     -4.2498    4.0371   -7.9360   H         1 RES1   0.0000
   434 H277     -4.4651    5.7774   -8.1032   H         1 RES1   0.0000
   435 H278     -5.6929    4.0375   -5.9081   H         1 RES1   0.0000
   436 H279     -6.5335    4.7038   -7.3073   H         1 RES1   0.0000
   437 H280     -5.9198    5.7852   -6.0651   H         1 RES1   0.0000
   438 O9       -1.5443   -1.5489    1.0046   O.3       1 RES1   0.0000
   439 H281     -0.7717   -1.7643    1.5649   H         1 RES1   0.0000
   440 H282     -1.7357   -2.3242    0.4568   H         1 RES1   0.0000
@<TRIPOS>BOND
     1     1    20    1
     2     1    23    1
     3     1   129    1
     4     1   132    1
     5     1   238    1
     6     1   241    1
     7     1   347    1
     8     1   350    1
     9     1   438    1
    10     2     3    1
    11     2    41    1
    12     2    42    1
    13     2    43    1
    14     3     4    1
    15     3    44    1
    16     3    45    1
    17     4     5    1
    18     4    46    1
    19     4    47    1
    20     5     6    1
    21     5    48    1
    22     5    49    1
    23     6     7    1
    24     6    50    1
    25     6    51    1
    26     7     8    1
    27     7    52    1
    28     7    53    1
    29     8     9    1
    30     8    54    1
    31     8    55    1
    32     9    10    1
    33     9    56    1
    34     9    57    1
    35    10    11    1
    36    10    19    1
    37    11    12    1
    38    11    58    1
    39    11    59    1
    40    12    13    1
    41    12    60    1
    42    12    61    1
    43    13    14    1
    44    13    62    1
    45    13    63    1
    46    14    15    1
    47    14    64    1
    48    14    65    1
    49    15    16    1
    50    15    66    1
    51    15    67    1
    52    16    17    1
    53    16    68    1
    54    16    69    1
    55    17    18    1
    56    17    70    1
    57    17    71    1
    58    18    72    1
    59    18    73    1
    60    18    74    1
    61    19    20    2
    62    19    21    1
    63    21    22    1
    64    21    75    1
    65    21    76    1
    66    22    23    2
    67    22    24    1
    68    24    25    1
    69    24    33    1
    70    25    26    1
    71    25    77    1
    72    25    78    1
    73    26    27    1
    74    26    79    1
    75    26    80    1
    76    27    28    1
    77    27    81    1
    78    27    82    1
    79    28    29    1
    80    28    83    1
    81    28    84    1
    82    29    30    1
    83    29    85    1
    84    29    86    1
    85    30    31    1
    86    30    87    1
    87    30    88    1
    88    31    32    1
    89    31    89    1
    90    31    90    1
    91    32    91    1
    92    32    92    1
    93    32    93    1
    94    33    34    1
    95    33    94    1
    96    33    95    1
    97    34    35    1
    98    34    96    1
    99    34    97    1
   100    35    36    1
   101    35    98    1
   102    35    99    1
   103    36    37    1
   104    36   100    1
   105    36   101    1
   106    37    38    1
   107    37   102    1
   108    37   103    1
   109    38    39    1
   110    38   104    1
   111    38   105    1
   112    39    40    1
   113    39   106    1
   114    39   107    1
   115    40   108    1
   116    40   109    1
   117    40   110    1
   118   111   112    1
   119   111   150    1
   120   111   151    1
   121   111   152    1
   122   112   113    1
   123   112   153    1
   124   112   154    1
   125   113   114    1
   126   113   155    1
   127   113   156    1
   128   114   115    1
   129   114   157    1
   130   114   158    1
   131   115   116    1
   132   115   159    1
   133   115   160    1
   134   116   117    1
   135   116   161    1
   136   116   162    1
   137   117   118    1
   138   117   163    1
   139   117   164    1
   140   118   119    1
   141   118   165    1
   142   118   166    1
   143   119   120    1
   144   119   128    1
   145   120   121    1
   146   120   167    1
   147   120   168    1
   148   121   122    1
   149   121   169    1
   150   121   170    1
   151   122   123    1
   152   122   171    1
   153   122   172    1
   154   123   124    1
   155   123   173    1
   156   123   174    1
   157   124   125    1
   158   124   175    1
   159   124   176    1
   160   125   126    1
   161   125   177    1
   162   125   178    1
   163   126   127    1
   164   126   179    1
   165   126   180    1
   166   127   181    1
   167   127   182    1
   168   127   183    1
   169   128   129    2
   170   128   130    1
   171   130   131    1
   172   130   184    1
   173   130   185    1
   174   131   132    2
   175   131   133    1
   176   133   134    1
   177   133   142    1
   178   134   135    1
   179   134   186    1
   180   134   187    1
   181   135   136    1
   182   135   188    1
   183   135   189    1
   184   136   137    1
   185   136   190    1
   186   136   191    1
   187   137   138    1
   188   137   192    1
   189   137   193    1
   190   138   139    1
   191   138   194    1
   192   138   195    1
   193   139   140    1
   194   139   196    1
   195   139   197    1
   196   140   141    1
   197   140   198    1
   198   140   199    1
   199   141   200    1
   200   141   201    1
   201   141   202    1
   202   142   143    1
   203   142   203    1
   204   142   204    1
   205   143   144    1
   206   143   205    1
   207   143   206    1
   208   144   145    1
   209   144   207    1
   210   144   208    1
   211   145   146    1
   212   145   209    1
   213   145   210    1
   214   146   147    1
   215   146   211    1
   216   146   212    1
   217   147   148    1
   218   147   213    1
   219   147   214    1
   220   148   149    1
   221   148   215    1
   222   148   216    1
   223   149   217    1
   224   149   218    1
   225   149   219    1
   226   220   221    1
   227   220   259    1
   228   220   260    1
   229   220   261    1
   230   221   222    1
   231   221   262    1
   232   221   263    1
   233   222   223    1
   234   222   264    1
   235   222   265    1
   236   223   224    1
   237   223   266    1
   238   223   267    1
   239   224   225    1
   240   224   268    1
   241   224   269    1
   242   225   226    1
   243   225   270    1
   244   225   271    1
   245   226   227    1
   246   226   272    1
   247   226   273    1
   248   227   228    1
   249   227   274    1
   250   227   275    1
   251   228   229    1
   252   228   237    1
   253   229   230    1
   254   229   276    1
   255   229   277    1
   256   230   231    1
   257   230   278    1
   258   230   279    1
   259   231   232    1
   260   231   280    1
   261   231   281    1
   262   232   233    1
   263   232   282    1
   264   232   283    1
   265   233   234    1
   266   233   284    1
   267   233   285    1
   268   234   235    1
   269   234   286    1
   270   234   287    1
   271   235   236    1
   272   235   288    1
   273   235   289    1
   274   236   290    1
   275   236   291    1
   276   236   292    1
   277   237   238    2
   278   237   239    1
   279   239   240    1
   280   239   293    1
   281   239   294    1
   282   240   241    2
   283   240   242    1
   284   242   243    1
   285   242   251    1
   286   243   244    1
   287   243   295    1
   288   243   296    1
   289   244   245    1
   290   244   297    1
   291   244   298    1
   292   245   246    1
   293   245   299    1
   294   245   300    1
   295   246   247    1
   296   246   301    1
   297   246   302    1
   298   247   248    1
   299   247   303    1
   300   247   304    1
   301   248   249    1
   302   248   305    1
   303   248   306    1
   304   249   250    1
   305   249   307    1
   306   249   308    1
   307   250   309    1
   308   250   310    1
   309   250   311    1
   310   251   252    1
   311   251   312    1
   312   251   313    1
   313   252   253    1
   314   252   314    1
   315   252   315    1
   316   253   254    1
   317   253   316    1
   318   253   317    1
   319   254   255    1
   320   254   318    1
   321   254   319    1
   322   255   256    1
   323   255   320    1
   324   255   321    1
   325   256   257    1
   326   256   322    1
   327   256   323    1
   328   257   258    1
   329   257   324    1
   330   257   325    1
   331   258   326    1
   332   258   327    1
   333   258   328    1
   334   329   330    1
   335   329   368    1
   336   329   369    1
   337   329   370    1
   338   330   331    1
   339   330   371    1
   340   330   372    1
   341   331   332    1
   342   331   373    1
   343   331   374    1
   344   332   333    1
   345   332   375    1
   346   332   376    1
   347   333   334    1
   348   333   377    1
   349   333   378    1
   350   334   335    1
   351   334   379    1
   352   334   380    1
   353   335   336    1
   354   335   381    1
   355   335   382    1
   356   336   337    1
   357   336   383    1
   358   336   384    1
   359   337   338    1
   360   337   346    1
   361   338   339    1
   362   338   385    1
   363   338   386    1
   364   339   340    1
   365   339   387    1
   366   339   388    1
   367   340   341    1
   368   340   389    1
   369   340   390    1
   370   341   342    1
   371   341   391    1
   372   341   392    1
   373   342   343    1
   374   342   393    1
   375   342   394    1
   376   343   344    1
   377   343   395    1
   378   343   396    1
   379   344   345    1
   380   344   397    1
   381   344   398    1
   382   345   399    1
   383   345   400    1
   384   345   401    1
   385   346   347    2
   386   346   348    1
   387   348   349    1
   388   348   402    1
   389   348   403    1
   390   349   350    2
   391   349   351    1
   392   351   352    1
   393   351   360    1
   394   352   353    1
   395   352   404    1
   396   352   405    1
   397   353   354    1
   398   353   406    1
   399   353   407    1
   400   354   355    1
   401   354   408    1
   402   354   409    1
   403   355   356    1
   404   355   410    1
   405   355   411    1
   406   356   357    1
   407   356   412    1
   408   356   413    1
   409   357   358    1
   410   357   414    1
   411   357   415    1
   412   358   359    1
   413   358   416    1
   414   358   417    1
   415   359   418    1
   416   359   419    1
   417   359   420    1
   418   360   361    1
   419   360   421    1
   420   360   422    1
   421   361   362    1
   422   361   423    1
   423   361   424    1
   424   362   363    1
   425   362   425    1
   426   362   426    1
   427   363   364    1
   428   363   427    1
   429   363   428    1
   430   364   365    1
   431   364   429    1
   432   364   430    1
   433   365   366    1
   434   365   431    1
   435   365   432    1
   436   366   367    1
   437   366   433    1
   438   366   434    1
   439   367   435    1
   440   367   436    1
   441   367   437    1
   442   438   439    1
   443   438   440    1
@<TRIPOS>SUBSTRUCTURE
     1 RES1      440 GROUP             0 ****  ****    0  
