@<TRIPOS>MOLECULE
am_c3_9H2O_c0_0_nunpairedes_0_charge_3 Charge: 3 Unpaired_Electrons: 3 XTB_Unpaired_Electrons: 0 XTB_Charge: 3
   361   369     1     0     0
SMALL
NoCharges
****
Generated from Architector

@<TRIPOS>ATOM
     1 Nd1      -0.0175    0.0432   -0.0017   Nd        1 RES1   0.0000
     2 C1       -5.3848    8.6471    1.8467   C.3       1 RES1   0.0000
     3 C2       -4.0420    9.2662    1.4625   C.3       1 RES1   0.0000
     4 C3       -2.8031    8.3954    1.7136   C.3       1 RES1   0.0000
     5 C4       -2.6740    7.1115    0.8756   C.3       1 RES1   0.0000
     6 C5       -2.4001    7.3310   -0.6233   C.3       1 RES1   0.0000
     7 C6       -1.4496    6.3148   -1.3067   C.3       1 RES1   0.0000
     8 C7       -1.9725    5.1775   -2.2204   C.3       1 RES1   0.0000
     9 C8       -2.2808    3.8777   -1.4705   C.3       1 RES1   0.0000
    10 P1       -2.0785    2.2050   -2.2450   P.3       1 RES1   0.0000
    11 O1       -0.8344    1.5072   -1.8010   O.2       1 RES1   0.0000
    12 C9       -2.3021    2.4321   -4.0545   C.3       1 RES1   0.0000
    13 C10      -1.9589    1.2079   -4.9072   C.3       1 RES1   0.0000
    14 C11      -2.8598    1.0596   -6.1401   C.3       1 RES1   0.0000
    15 C12      -4.3559    0.8471   -5.8373   C.3       1 RES1   0.0000
    16 C13      -5.2702    1.8386   -6.5612   C.3       1 RES1   0.0000
    17 C14      -5.2006    3.2598   -6.0084   C.3       1 RES1   0.0000
    18 C15      -6.1278    4.2357   -6.7377   C.3       1 RES1   0.0000
    19 C16      -7.6095    3.9327   -6.5454   C.3       1 RES1   0.0000
    20 C17      -3.6651    1.2481   -1.9086   C.3       1 RES1   0.0000
    21 C18      -4.1488    0.6152   -0.6447   C.ar      1 RES1   0.0000
    22 C19      -5.4376    0.8546   -0.1941   C.ar      1 RES1   0.0000
    23 C20      -5.9575    0.1346    0.8690   C.ar      1 RES1   0.0000
    24 C21      -5.1827   -0.8701    1.4214   C.ar      1 RES1   0.0000
    25 C22      -3.9165   -1.1316    0.9316   C.ar      1 RES1   0.0000
    26 C23      -3.1197   -2.3093    1.3634   C.3       1 RES1   0.0000
    27 P2       -1.7971   -1.9738    2.6434   P.3       1 RES1   0.0000
    28 O2       -0.9299   -0.8496    2.1961   O.2       1 RES1   0.0000
    29 C24      -0.8774   -3.5589    2.8382   C.3       1 RES1   0.0000
    30 C25      -1.7082   -4.7207    3.3844   C.3       1 RES1   0.0000
    31 C26      -2.2471   -5.6570    2.2987   C.3       1 RES1   0.0000
    32 C27      -3.4449   -6.4738    2.7995   C.3       1 RES1   0.0000
    33 C28      -4.7359   -5.6574    2.8452   C.3       1 RES1   0.0000
    34 C29      -5.9594   -6.4872    3.2345   C.3       1 RES1   0.0000
    35 C30      -5.9584   -7.0193    4.6698   C.3       1 RES1   0.0000
    36 C31      -6.0115   -5.9270    5.7345   C.3       1 RES1   0.0000
    37 C32      -2.6193   -1.7064    4.2791   C.3       1 RES1   0.0000
    38 C33      -3.3091   -0.3573    4.4169   C.3       1 RES1   0.0000
    39 C34      -3.7681   -0.1418    5.8636   C.3       1 RES1   0.0000
    40 C35      -4.1305    1.3066    6.1970   C.3       1 RES1   0.0000
    41 C36      -5.2356    1.8978    5.3222   C.3       1 RES1   0.0000
    42 C37      -6.6274    1.3952    5.6917   C.3       1 RES1   0.0000
    43 C38      -7.7128    1.9638    4.7764   C.3       1 RES1   0.0000
    44 C39      -7.9726    3.4490    5.0111   C.3       1 RES1   0.0000
    45 N1       -3.3940   -0.3437   -0.0460   N.ar      1 RES1   0.0000
    46 O3       -2.1999   -0.5672   -0.4913   O.co2     1 RES1   0.0000
    47 H1       -6.1552    9.4144    1.8863   H         1 RES1   0.0000
    48 H2       -5.3391    8.1875    2.8318   H         1 RES1   0.0000
    49 H3       -5.7098    7.9049    1.1228   H         1 RES1   0.0000
    50 H4       -3.9109   10.1734    2.0557   H         1 RES1   0.0000
    51 H5       -4.0699    9.5678    0.4146   H         1 RES1   0.0000
    52 H6       -2.7969    8.1115    2.7713   H         1 RES1   0.0000
    53 H7       -1.9193    9.0169    1.5440   H         1 RES1   0.0000
    54 H8       -3.5829    6.5301    1.0185   H         1 RES1   0.0000
    55 H9       -1.8366    6.5508    1.3021   H         1 RES1   0.0000
    56 H10      -1.9235    8.3069   -0.7109   H         1 RES1   0.0000
    57 H11      -3.3386    7.4018   -1.1636   H         1 RES1   0.0000
    58 H12      -0.8437    5.8562   -0.5277   H         1 RES1   0.0000
    59 H13      -0.7605    6.9072   -1.9133   H         1 RES1   0.0000
    60 H14      -1.1909    4.9916   -2.9525   H         1 RES1   0.0000
    61 H15      -2.8542    5.5137   -2.7612   H         1 RES1   0.0000
    62 H16      -3.3211    3.9124   -1.1771   H         1 RES1   0.0000
    63 H17      -1.6468    3.8184   -0.5840   H         1 RES1   0.0000
    64 H18      -1.7296    3.3092   -4.3600   H         1 RES1   0.0000
    65 H19      -3.3482    2.7056   -4.1946   H         1 RES1   0.0000
    66 H20      -2.0133    0.2982   -4.3020   H         1 RES1   0.0000
    67 H21      -0.9373    1.2972   -5.2708   H         1 RES1   0.0000
    68 H22      -2.4931    0.2128   -6.7243   H         1 RES1   0.0000
    69 H23      -2.7382    1.9392   -6.7736   H         1 RES1   0.0000
    70 H24      -4.5332    0.9189   -4.7604   H         1 RES1   0.0000
    71 H25      -4.6344   -0.1645   -6.1448   H         1 RES1   0.0000
    72 H26      -6.2934    1.4807   -6.4724   H         1 RES1   0.0000
    73 H27      -5.0019    1.8454   -7.6167   H         1 RES1   0.0000
    74 H28      -4.1806    3.6425   -6.0951   H         1 RES1   0.0000
    75 H29      -5.4678    3.2554   -4.9451   H         1 RES1   0.0000
    76 H30      -5.8933    4.2226   -7.8029   H         1 RES1   0.0000
    77 H31      -5.9251    5.2473   -6.3739   H         1 RES1   0.0000
    78 H32      -7.9130    3.0461   -7.0931   H         1 RES1   0.0000
    79 H33      -8.2047    4.7634   -6.9107   H         1 RES1   0.0000
    80 H34      -7.8450    3.7836   -5.4942   H         1 RES1   0.0000
    81 H35      -3.5307    0.4292   -2.6282   H         1 RES1   0.0000
    82 H36      -4.4714    1.8884   -2.2807   H         1 RES1   0.0000
    83 H37      -6.0515    1.5832   -0.7053   H         1 RES1   0.0000
    84 H38      -6.9567    0.3150    1.2318   H         1 RES1   0.0000
    85 H39      -5.5777   -1.4886    2.2127   H         1 RES1   0.0000
    86 H40      -2.5395   -2.6709    0.5082   H         1 RES1   0.0000
    87 H41      -3.7809   -3.0903    1.7339   H         1 RES1   0.0000
    88 H42      -0.0656   -3.3099    3.5283   H         1 RES1   0.0000
    89 H43      -0.4236   -3.8030    1.8754   H         1 RES1   0.0000
    90 H44      -2.5513   -4.3191    3.9405   H         1 RES1   0.0000
    91 H45      -1.1096   -5.3015    4.0873   H         1 RES1   0.0000
    92 H46      -1.4530   -6.3385    1.9811   H         1 RES1   0.0000
    93 H47      -2.5531   -5.0772    1.4209   H         1 RES1   0.0000
    94 H48      -3.2177   -6.8669    3.7906   H         1 RES1   0.0000
    95 H49      -3.5918   -7.3243    2.1322   H         1 RES1   0.0000
    96 H50      -4.9200   -5.2385    1.8507   H         1 RES1   0.0000
    97 H51      -4.6406   -4.8254    3.5457   H         1 RES1   0.0000
    98 H52      -6.0336   -7.3376    2.5546   H         1 RES1   0.0000
    99 H53      -6.8503   -5.8696    3.0930   H         1 RES1   0.0000
   100 H54      -5.0816   -7.6486    4.8388   H         1 RES1   0.0000
   101 H55      -6.8394   -7.6549    4.7837   H         1 RES1   0.0000
   102 H56      -5.0915   -5.3448    5.7587   H         1 RES1   0.0000
   103 H57      -6.1416   -6.3792    6.7144   H         1 RES1   0.0000
   104 H58      -6.8479   -5.2531    5.5551   H         1 RES1   0.0000
   105 H59      -1.8247   -1.7762    5.0300   H         1 RES1   0.0000
   106 H60      -3.3273   -2.5108    4.4831   H         1 RES1   0.0000
   107 H61      -4.1673   -0.3101    3.7475   H         1 RES1   0.0000
   108 H62      -2.6065    0.4156    4.1071   H         1 RES1   0.0000
   109 H63      -2.9680   -0.4482    6.5419   H         1 RES1   0.0000
   110 H64      -4.6228   -0.7889    6.0651   H         1 RES1   0.0000
   111 H65      -3.2292    1.9167    6.1054   H         1 RES1   0.0000
   112 H66      -4.4470    1.3458    7.2409   H         1 RES1   0.0000
   113 H67      -5.0370    1.6554    4.2747   H         1 RES1   0.0000
   114 H68      -5.2252    2.9839    5.4235   H         1 RES1   0.0000
   115 H69      -6.8497    1.6715    6.7231   H         1 RES1   0.0000
   116 H70      -6.6521    0.3066    5.6318   H         1 RES1   0.0000
   117 H71      -8.6393    1.4129    4.9514   H         1 RES1   0.0000
   118 H72      -7.4278    1.7998    3.7312   H         1 RES1   0.0000
   119 H73      -8.1576    3.6323    6.0664   H         1 RES1   0.0000
   120 H74      -8.8488    3.7678    4.4520   H         1 RES1   0.0000
   121 H75      -7.1274    4.0617    4.7008   H         1 RES1   0.0000
   122 C40       8.6870   -2.0237    1.2632   C.3       1 RES1   0.0000
   123 C41       9.5548   -0.8101    0.9459   C.3       1 RES1   0.0000
   124 C42       9.1263   -0.0767   -0.3230   C.3       1 RES1   0.0000
   125 C43       7.6783    0.4141   -0.3232   C.3       1 RES1   0.0000
   126 C44       7.3337    1.3023    0.8714   C.3       1 RES1   0.0000
   127 C45       5.9515    1.9592    0.7338   C.3       1 RES1   0.0000
   128 C46       4.8432    1.2875    1.5521   C.3       1 RES1   0.0000
   129 C47       4.5070   -0.1492    1.1572   C.3       1 RES1   0.0000
   130 P3        2.9719   -0.6819    2.0218   P.3       1 RES1   0.0000
   131 O4        1.7442    0.0476    1.5981   O.2       1 RES1   0.0000
   132 C48       3.3352   -0.6338    3.8140   C.3       1 RES1   0.0000
   133 C49       2.0851   -0.7904    4.6721   C.3       1 RES1   0.0000
   134 C50       2.4809   -1.1197    6.1125   C.3       1 RES1   0.0000
   135 C51       2.9412   -2.5778    6.2824   C.3       1 RES1   0.0000
   136 C52       4.1319   -2.7340    7.2302   C.3       1 RES1   0.0000
   137 C53       5.4526   -2.2957    6.6027   C.3       1 RES1   0.0000
   138 C54       6.6600   -2.6175    7.4871   C.3       1 RES1   0.0000
   139 C55       7.0860   -4.0793    7.4210   C.3       1 RES1   0.0000
   140 C56       2.8010   -2.4993    1.7127   C.3       1 RES1   0.0000
   141 C57       2.7635   -2.9254    0.2969   C.ar      1 RES1   0.0000
   142 C58       3.8936   -3.3323   -0.3920   C.ar      1 RES1   0.0000
   143 C59       3.7654   -3.9903   -1.6020   C.ar      1 RES1   0.0000
   144 C60       2.4918   -4.3142   -2.0309   C.ar      1 RES1   0.0000
   145 C61       1.3826   -3.8292   -1.3599   C.ar      1 RES1   0.0000
   146 C62      -0.0117   -4.1457   -1.7348   C.3       1 RES1   0.0000
   147 P4       -0.7534   -2.7217   -2.6886   P.3       1 RES1   0.0000
   148 O5       -0.3032   -1.4024   -2.1702   O.2       1 RES1   0.0000
   149 C63      -2.5784   -2.9839   -2.6332   C.3       1 RES1   0.0000
   150 C64      -3.0169   -4.3481   -3.1747   C.3       1 RES1   0.0000
   151 C65      -3.3097   -5.3838   -2.0847   C.3       1 RES1   0.0000
   152 C66      -3.3070   -6.8165   -2.6323   C.3       1 RES1   0.0000
   153 C67      -1.8962   -7.3406   -2.8973   C.3       1 RES1   0.0000
   154 C68      -1.8760   -8.7983   -3.3567   C.3       1 RES1   0.0000
   155 C69      -2.4112   -9.0464   -4.7688   C.3       1 RES1   0.0000
   156 C70      -1.5224   -8.4899   -5.8764   C.3       1 RES1   0.0000
   157 C71      -0.2196   -3.0231   -4.4315   C.3       1 RES1   0.0000
   158 C72       1.2012   -2.5213   -4.6633   C.3       1 RES1   0.0000
   159 C73       1.6603   -2.7601   -6.0999   C.3       1 RES1   0.0000
   160 C74       3.0779   -2.2483   -6.3689   C.3       1 RES1   0.0000
   161 C75       4.1928   -2.9944   -5.6308   C.3       1 RES1   0.0000
   162 C76       4.3394   -4.4478   -6.0770   C.3       1 RES1   0.0000
   163 C77       5.4573   -5.2038   -5.3560   C.3       1 RES1   0.0000
   164 C78       6.8586   -4.7389   -5.7348   C.3       1 RES1   0.0000
   165 N2        1.5478   -3.0143   -0.2927   N.ar      1 RES1   0.0000
   166 O6        0.5188   -2.4549    0.2703   O.co2     1 RES1   0.0000
   167 H76       9.1471   -2.6175    2.0493   H         1 RES1   0.0000
   168 H77       8.5758   -2.6506    0.3802   H         1 RES1   0.0000
   169 H78       7.6957   -1.7267    1.6059   H         1 RES1   0.0000
   170 H79      10.5833   -1.1422    0.8035   H         1 RES1   0.0000
   171 H80       9.5512   -0.1256    1.7957   H         1 RES1   0.0000
   172 H81       9.2595   -0.7419   -1.1791   H         1 RES1   0.0000
   173 H82       9.7882    0.7780   -0.4663   H         1 RES1   0.0000
   174 H83       6.9968   -0.4404   -0.3653   H         1 RES1   0.0000
   175 H84       7.5351    1.0017   -1.2349   H         1 RES1   0.0000
   176 H85       8.0950    2.0798    0.9427   H         1 RES1   0.0000
   177 H86       7.3783    0.7244    1.7932   H         1 RES1   0.0000
   178 H87       5.6906    1.9868   -0.3269   H         1 RES1   0.0000
   179 H88       6.0134    2.9934    1.0790   H         1 RES1   0.0000
   180 H89       3.9232    1.8753    1.4741   H         1 RES1   0.0000
   181 H90       5.1513    1.3148    2.5972   H         1 RES1   0.0000
   182 H91       5.3153   -0.8298    1.4203   H         1 RES1   0.0000
   183 H92       4.3051   -0.2245    0.0863   H         1 RES1   0.0000
   184 H93       3.8275    0.3046    4.0684   H         1 RES1   0.0000
   185 H94       4.0436   -1.4386    4.0179   H         1 RES1   0.0000
   186 H95       1.4401   -1.5790    4.2757   H         1 RES1   0.0000
   187 H96       1.5192    0.1403    4.6340   H         1 RES1   0.0000
   188 H97       1.6305   -0.9362    6.7685   H         1 RES1   0.0000
   189 H98       3.2740   -0.4322    6.4129   H         1 RES1   0.0000
   190 H99       3.2107   -2.9991    5.3102   H         1 RES1   0.0000
   191 H100      2.1076   -3.1716    6.6612   H         1 RES1   0.0000
   192 H101      4.2122   -3.7792    7.5270   H         1 RES1   0.0000
   193 H102      3.9480   -2.1512    8.1328   H         1 RES1   0.0000
   194 H103      5.4294   -1.2189    6.4214   H         1 RES1   0.0000
   195 H104      5.5751   -2.7955    5.6375   H         1 RES1   0.0000
   196 H105      6.4285   -2.3574    8.5216   H         1 RES1   0.0000
   197 H106      7.5025   -1.9976    7.1732   H         1 RES1   0.0000
   198 H107      6.3003   -4.7391    7.7780   H         1 RES1   0.0000
   199 H108      7.9635   -4.2361    8.0422   H         1 RES1   0.0000
   200 H109      7.3371   -4.3627    6.4009   H         1 RES1   0.0000
   201 H110      1.8444   -2.7611    2.1776   H         1 RES1   0.0000
   202 H111      3.6209   -3.0170    2.2082   H         1 RES1   0.0000
   203 H112      4.8603   -3.1888    0.0582   H         1 RES1   0.0000
   204 H113      4.6346   -4.3100   -2.1575   H         1 RES1   0.0000
   205 H114      2.3487   -4.9768   -2.8687   H         1 RES1   0.0000
   206 H115     -0.5876   -4.2800   -0.8168   H         1 RES1   0.0000
   207 H116     -0.0603   -5.0530   -2.3315   H         1 RES1   0.0000
   208 H117     -2.9965   -2.1666   -3.2264   H         1 RES1   0.0000
   209 H118     -2.9159   -2.8323   -1.6067   H         1 RES1   0.0000
   210 H119     -2.2297   -4.7370   -3.8160   H         1 RES1   0.0000
   211 H120     -3.9079   -4.2338   -3.7927   H         1 RES1   0.0000
   212 H121     -4.2863   -5.1737   -1.6414   H         1 RES1   0.0000
   213 H122     -2.5639   -5.3149   -1.2871   H         1 RES1   0.0000
   214 H123     -3.8987   -6.8544   -3.5468   H         1 RES1   0.0000
   215 H124     -3.7899   -7.4708   -1.9038   H         1 RES1   0.0000
   216 H125     -1.3227   -7.2703   -1.9677   H         1 RES1   0.0000
   217 H126     -1.3967   -6.7262   -3.6489   H         1 RES1   0.0000
   218 H127     -2.4683   -9.3865   -2.6540   H         1 RES1   0.0000
   219 H128     -0.8464   -9.1596   -3.3056   H         1 RES1   0.0000
   220 H129     -3.4176   -8.6345   -4.8689   H         1 RES1   0.0000
   221 H130     -2.4895  -10.1268   -4.9027   H         1 RES1   0.0000
   222 H131     -1.4897   -7.4023   -5.8615   H         1 RES1   0.0000
   223 H132     -1.9134   -8.7936   -6.8434   H         1 RES1   0.0000
   224 H133     -0.5071   -8.8695   -5.7830   H         1 RES1   0.0000
   225 H134     -0.9080   -2.4955   -5.0966   H         1 RES1   0.0000
   226 H135     -0.2940   -4.0882   -4.6593   H         1 RES1   0.0000
   227 H136      1.8809   -3.0300   -3.9839   H         1 RES1   0.0000
   228 H137      1.2398   -1.4575   -4.4253   H         1 RES1   0.0000
   229 H138      0.9736   -2.2560   -6.7833   H         1 RES1   0.0000
   230 H139      1.6126   -3.8261   -6.3259   H         1 RES1   0.0000
   231 H140      3.1238   -1.1895   -6.0960   H         1 RES1   0.0000
   232 H141      3.2671   -2.3252   -7.4411   H         1 RES1   0.0000
   233 H142      4.0178   -2.9521   -4.5513   H         1 RES1   0.0000
   234 H143      5.1296   -2.4746   -5.8355   H         1 RES1   0.0000
   235 H144      4.5332   -4.4727   -7.1500   H         1 RES1   0.0000
   236 H145      3.4052   -4.9837   -5.9015   H         1 RES1   0.0000
   237 H146      5.3627   -6.2635   -5.6037   H         1 RES1   0.0000
   238 H147      5.3221   -5.1126   -4.2738   H         1 RES1   0.0000
   239 H148      6.9823   -4.7626   -6.8138   H         1 RES1   0.0000
   240 H149      7.5994   -5.4017   -5.2953   H         1 RES1   0.0000
   241 H150      7.0571   -3.7280   -5.3854   H         1 RES1   0.0000
   242 C79      -5.9814    7.9076   -2.2541   C.3       1 RES1   0.0000
   243 C80      -7.0575    6.9238   -1.7887   C.3       1 RES1   0.0000
   244 C81      -6.6593    5.4399   -1.7668   C.3       1 RES1   0.0000
   245 C82      -5.6159    4.9803   -0.7343   C.3       1 RES1   0.0000
   246 C83      -6.1478    4.9419    0.7060   C.3       1 RES1   0.0000
   247 C84      -5.6199    3.8435    1.6486   C.3       1 RES1   0.0000
   248 C85      -4.2551    4.0082    2.3528   C.3       1 RES1   0.0000
   249 C86      -3.0800    3.7681    1.4133   C.3       1 RES1   0.0000
   250 P5       -1.4745    3.0202    2.0005   P.3       1 RES1   0.0000
   251 O7       -1.3306    1.7228    1.2702   O.2       1 RES1   0.0000
   252 C87      -1.5939    2.9496    3.8308   C.3       1 RES1   0.0000
   253 C88      -0.4986    2.2341    4.6227   C.3       1 RES1   0.0000
   254 C89      -0.2985    2.9201    5.9809   C.3       1 RES1   0.0000
   255 C90       0.5134    4.2270    5.8964   C.3       1 RES1   0.0000
   256 C91      -0.1193    5.4114    6.6362   C.3       1 RES1   0.0000
   257 C92      -1.2797    6.0707    5.8874   C.3       1 RES1   0.0000
   258 C93      -1.7530    7.3823    6.5249   C.3       1 RES1   0.0000
   259 C94      -0.8074    8.5552    6.2854   C.3       1 RES1   0.0000
   260 C95       0.0651    4.1213    1.8914   C.3       1 RES1   0.0000
   261 C96       0.8476    4.4796    0.6744   C.ar      1 RES1   0.0000
   262 C97       1.1816    5.8027    0.4052   C.ar      1 RES1   0.0000
   263 C98       2.0109    6.1167   -0.6580   C.ar      1 RES1   0.0000
   264 C99       2.5744    5.0740   -1.3745   C.ar      1 RES1   0.0000
   265 C100      2.2948    3.7565   -1.0418   C.ar      1 RES1   0.0000
   266 C101      3.1508    2.6418   -1.5329   C.3       1 RES1   0.0000
   267 P6        2.6193    1.0289   -2.3154   P.3       1 RES1   0.0000
   268 O8        1.9417    0.0838   -1.3725   O.2       1 RES1   0.0000
   269 C102      4.2442    0.2576   -2.7563   C.3       1 RES1   0.0000
   270 C103      5.1313    0.7755   -3.8907   C.3       1 RES1   0.0000
   271 C104      6.4303   -0.0458   -3.9034   C.3       1 RES1   0.0000
   272 C105      7.5123    0.4329   -4.8760   C.3       1 RES1   0.0000
   273 C106      8.1087    1.7863   -4.4975   C.3       1 RES1   0.0000
   274 C107      9.3226    2.1564   -5.3465   C.3       1 RES1   0.0000
   275 C108      9.0583    2.1923   -6.8546   C.3       1 RES1   0.0000
   276 C109      7.8257    2.9989   -7.2535   C.3       1 RES1   0.0000
   277 C110      1.6892    1.3357   -3.8811   C.3       1 RES1   0.0000
   278 C111      1.3742    2.8008   -4.2053   C.3       1 RES1   0.0000
   279 C112      1.4388    3.1329   -5.7107   C.3       1 RES1   0.0000
   280 C113      0.2747    3.9913   -6.2198   C.3       1 RES1   0.0000
   281 C114      0.0974    5.3294   -5.4960   C.3       1 RES1   0.0000
   282 C115      1.0097    6.4291   -6.0294   C.3       1 RES1   0.0000
   283 C116      0.8603    7.7377   -5.2526   C.3       1 RES1   0.0000
   284 C117     -0.4847    8.4204   -5.4832   C.3       1 RES1   0.0000
   285 N3        1.3836    3.4782   -0.0748   N.ar      1 RES1   0.0000
   286 O9        1.0932    2.2516    0.1893   O.co2     1 RES1   0.0000
   287 H151     -6.4440    8.8176   -2.6323   H         1 RES1   0.0000
   288 H152     -5.3877    7.4902   -3.0657   H         1 RES1   0.0000
   289 H153     -5.3203    8.2034   -1.4439   H         1 RES1   0.0000
   290 H154     -7.8952    7.0032   -2.4863   H         1 RES1   0.0000
   291 H155     -7.4242    7.2272   -0.8063   H         1 RES1   0.0000
   292 H156     -6.2918    5.1740   -2.7626   H         1 RES1   0.0000
   293 H157     -7.5738    4.8671   -1.5957   H         1 RES1   0.0000
   294 H158     -4.7404    5.6239   -0.8023   H         1 RES1   0.0000
   295 H159     -5.3193    3.9662   -1.0259   H         1 RES1   0.0000
   296 H160     -7.2265    4.7842    0.6402   H         1 RES1   0.0000
   297 H161     -5.9992    5.9092    1.1783   H         1 RES1   0.0000
   298 H162     -5.6291    2.8824    1.1263   H         1 RES1   0.0000
   299 H163     -6.3661    3.7642    2.4434   H         1 RES1   0.0000
   300 H164     -4.2413    3.2716    3.1499   H         1 RES1   0.0000
   301 H165     -4.1863    4.9937    2.8080   H         1 RES1   0.0000
   302 H166     -2.8659    4.6880    0.8877   H         1 RES1   0.0000
   303 H167     -3.3942    3.0085    0.6984   H         1 RES1   0.0000
   304 H168     -2.5583    2.4942    4.0517   H         1 RES1   0.0000
   305 H169     -1.6593    3.9867    4.1659   H         1 RES1   0.0000
   306 H170      0.4498    2.2125    4.0820   H         1 RES1   0.0000
   307 H171     -0.7906    1.1983    4.7916   H         1 RES1   0.0000
   308 H172      0.2043    2.2327    6.6650   H         1 RES1   0.0000
   309 H173     -1.2819    3.1237    6.4089   H         1 RES1   0.0000
   310 H174      0.6630    4.5051    4.8512   H         1 RES1   0.0000
   311 H175      1.5026    4.0441    6.3206   H         1 RES1   0.0000
   312 H176      0.6545    6.1601    6.8014   H         1 RES1   0.0000
   313 H177     -0.4640    5.0674    7.6113   H         1 RES1   0.0000
   314 H178     -2.1311    5.3851    5.8512   H         1 RES1   0.0000
   315 H179     -0.9730    6.2830    4.8573   H         1 RES1   0.0000
   316 H180     -1.8887    7.2400    7.5973   H         1 RES1   0.0000
   317 H181     -2.7304    7.6389    6.1088   H         1 RES1   0.0000
   318 H182      0.1275    8.4363    6.8264   H         1 RES1   0.0000
   319 H183     -1.2708    9.4785    6.6235   H         1 RES1   0.0000
   320 H184     -0.5798    8.6605    5.2253   H         1 RES1   0.0000
   321 H185      0.7342    3.5039    2.5048   H         1 RES1   0.0000
   322 H186     -0.1547    5.0382    2.4425   H         1 RES1   0.0000
   323 H187      0.8009    6.5860    1.0446   H         1 RES1   0.0000
   324 H188      2.2570    7.1388   -0.8999   H         1 RES1   0.0000
   325 H189      3.2850    5.2818   -2.1560   H         1 RES1   0.0000
   326 H190      3.6616    2.2652   -0.6436   H         1 RES1   0.0000
   327 H191      3.8989    3.0564   -2.2059   H         1 RES1   0.0000
   328 H192      3.9859   -0.7897   -2.9518   H         1 RES1   0.0000
   329 H193      4.8378    0.2637   -1.8359   H         1 RES1   0.0000
   330 H194      5.3622    1.8306   -3.7480   H         1 RES1   0.0000
   331 H195      4.6357    0.6694   -4.8557   H         1 RES1   0.0000
   332 H196      6.1768   -1.0831   -4.1409   H         1 RES1   0.0000
   333 H197      6.8613   -0.0344   -2.9007   H         1 RES1   0.0000
   334 H198      7.1174    0.4634   -5.8916   H         1 RES1   0.0000
   335 H199      8.3131   -0.3092   -4.8613   H         1 RES1   0.0000
   336 H200      8.4180    1.7581   -3.4501   H         1 RES1   0.0000
   337 H201      7.3551    2.5660   -4.5960   H         1 RES1   0.0000
   338 H202     10.1196    1.4357   -5.1592   H         1 RES1   0.0000
   339 H203      9.6843    3.1336   -5.0200   H         1 RES1   0.0000
   340 H204      8.9618    1.1743   -7.2392   H         1 RES1   0.0000
   341 H205      9.9356    2.6315   -7.3320   H         1 RES1   0.0000
   342 H206      6.9093    2.4665   -7.0068   H         1 RES1   0.0000
   343 H207      7.8328    3.1717   -8.3265   H         1 RES1   0.0000
   344 H208      7.8150    3.9623   -6.7485   H         1 RES1   0.0000
   345 H209      0.7730    0.7497   -3.7846   H         1 RES1   0.0000
   346 H210      2.3018    0.8954   -4.6696   H         1 RES1   0.0000
   347 H211      2.0721    3.4552   -3.6869   H         1 RES1   0.0000
   348 H212      0.3833    3.0236   -3.8072   H         1 RES1   0.0000
   349 H213      1.4465    2.2135   -6.2993   H         1 RES1   0.0000
   350 H214      2.3767    3.6451   -5.9252   H         1 RES1   0.0000
   351 H215     -0.6426    3.4051   -6.1437   H         1 RES1   0.0000
   352 H216      0.4390    4.1872   -7.2806   H         1 RES1   0.0000
   353 H217      0.2968    5.1962   -4.4299   H         1 RES1   0.0000
   354 H218     -0.9357    5.6627   -5.6062   H         1 RES1   0.0000
   355 H219      0.7788    6.6094   -7.0801   H         1 RES1   0.0000
   356 H220      2.0473    6.0990   -5.9712   H         1 RES1   0.0000
   357 H221      1.6565    8.4174   -5.5603   H         1 RES1   0.0000
   358 H222      0.9929    7.5449   -4.1830   H         1 RES1   0.0000
   359 H223     -0.6799    8.5148   -6.5489   H         1 RES1   0.0000
   360 H224     -0.4736    9.4179   -5.0507   H         1 RES1   0.0000
   361 H225     -1.3035    7.8630   -5.0301   H         1 RES1   0.0000
@<TRIPOS>BOND
     1     1    11    1
     2     1    28    1
     3     1    46    1
     4     1   131    1
     5     1   148    1
     6     1   166    1
     7     1   251    1
     8     1   268    1
     9     1   286    1
    10     2     3    1
    11     2    47    1
    12     2    48    1
    13     2    49    1
    14     3     4    1
    15     3    50    1
    16     3    51    1
    17     4     5    1
    18     4    52    1
    19     4    53    1
    20     5     6    1
    21     5    54    1
    22     5    55    1
    23     6     7    1
    24     6    56    1
    25     6    57    1
    26     7     8    1
    27     7    58    1
    28     7    59    1
    29     8     9    1
    30     8    60    1
    31     8    61    1
    32     9    10    1
    33     9    62    1
    34     9    63    1
    35    10    11    2
    36    10    12    1
    37    10    20    1
    38    12    13    1
    39    12    64    1
    40    12    65    1
    41    13    14    1
    42    13    66    1
    43    13    67    1
    44    14    15    1
    45    14    68    1
    46    14    69    1
    47    15    16    1
    48    15    70    1
    49    15    71    1
    50    16    17    1
    51    16    72    1
    52    16    73    1
    53    17    18    1
    54    17    74    1
    55    17    75    1
    56    18    19    1
    57    18    76    1
    58    18    77    1
    59    19    78    1
    60    19    79    1
    61    19    80    1
    62    20    21    1
    63    20    81    1
    64    20    82    1
    65    21    22    1
    66    21    45    2
    67    22    23    2
    68    22    83    1
    69    23    24    1
    70    23    84    1
    71    24    25    2
    72    24    85    1
    73    25    26    1
    74    25    45    1
    75    26    27    1
    76    26    86    1
    77    26    87    1
    78    27    28    2
    79    27    29    1
    80    27    37    1
    81    29    30    1
    82    29    88    1
    83    29    89    1
    84    30    31    1
    85    30    90    1
    86    30    91    1
    87    31    32    1
    88    31    92    1
    89    31    93    1
    90    32    33    1
    91    32    94    1
    92    32    95    1
    93    33    34    1
    94    33    96    1
    95    33    97    1
    96    34    35    1
    97    34    98    1
    98    34    99    1
    99    35    36    1
   100    35   100    1
   101    35   101    1
   102    36   102    1
   103    36   103    1
   104    36   104    1
   105    37    38    1
   106    37   105    1
   107    37   106    1
   108    38    39    1
   109    38   107    1
   110    38   108    1
   111    39    40    1
   112    39   109    1
   113    39   110    1
   114    40    41    1
   115    40   111    1
   116    40   112    1
   117    41    42    1
   118    41   113    1
   119    41   114    1
   120    42    43    1
   121    42   115    1
   122    42   116    1
   123    43    44    1
   124    43   117    1
   125    43   118    1
   126    44   119    1
   127    44   120    1
   128    44   121    1
   129    45    46    1
   130   122   123    1
   131   122   167    1
   132   122   168    1
   133   122   169    1
   134   123   124    1
   135   123   170    1
   136   123   171    1
   137   124   125    1
   138   124   172    1
   139   124   173    1
   140   125   126    1
   141   125   174    1
   142   125   175    1
   143   126   127    1
   144   126   176    1
   145   126   177    1
   146   127   128    1
   147   127   178    1
   148   127   179    1
   149   128   129    1
   150   128   180    1
   151   128   181    1
   152   129   130    1
   153   129   182    1
   154   129   183    1
   155   130   131    2
   156   130   132    1
   157   130   140    1
   158   132   133    1
   159   132   184    1
   160   132   185    1
   161   133   134    1
   162   133   186    1
   163   133   187    1
   164   134   135    1
   165   134   188    1
   166   134   189    1
   167   135   136    1
   168   135   190    1
   169   135   191    1
   170   136   137    1
   171   136   192    1
   172   136   193    1
   173   137   138    1
   174   137   194    1
   175   137   195    1
   176   138   139    1
   177   138   196    1
   178   138   197    1
   179   139   198    1
   180   139   199    1
   181   139   200    1
   182   140   141    1
   183   140   201    1
   184   140   202    1
   185   141   142    1
   186   141   165    2
   187   142   143    2
   188   142   203    1
   189   143   144    1
   190   143   204    1
   191   144   145    2
   192   144   205    1
   193   145   146    1
   194   145   165    1
   195   146   147    1
   196   146   206    1
   197   146   207    1
   198   147   148    2
   199   147   149    1
   200   147   157    1
   201   149   150    1
   202   149   208    1
   203   149   209    1
   204   150   151    1
   205   150   210    1
   206   150   211    1
   207   151   152    1
   208   151   212    1
   209   151   213    1
   210   152   153    1
   211   152   214    1
   212   152   215    1
   213   153   154    1
   214   153   216    1
   215   153   217    1
   216   154   155    1
   217   154   218    1
   218   154   219    1
   219   155   156    1
   220   155   220    1
   221   155   221    1
   222   156   222    1
   223   156   223    1
   224   156   224    1
   225   157   158    1
   226   157   225    1
   227   157   226    1
   228   158   159    1
   229   158   227    1
   230   158   228    1
   231   159   160    1
   232   159   229    1
   233   159   230    1
   234   160   161    1
   235   160   231    1
   236   160   232    1
   237   161   162    1
   238   161   233    1
   239   161   234    1
   240   162   163    1
   241   162   235    1
   242   162   236    1
   243   163   164    1
   244   163   237    1
   245   163   238    1
   246   164   239    1
   247   164   240    1
   248   164   241    1
   249   165   166    1
   250   242   243    1
   251   242   287    1
   252   242   288    1
   253   242   289    1
   254   243   244    1
   255   243   290    1
   256   243   291    1
   257   244   245    1
   258   244   292    1
   259   244   293    1
   260   245   246    1
   261   245   294    1
   262   245   295    1
   263   246   247    1
   264   246   296    1
   265   246   297    1
   266   247   248    1
   267   247   298    1
   268   247   299    1
   269   248   249    1
   270   248   300    1
   271   248   301    1
   272   249   250    1
   273   249   302    1
   274   249   303    1
   275   250   251    2
   276   250   252    1
   277   250   260    1
   278   252   253    1
   279   252   304    1
   280   252   305    1
   281   253   254    1
   282   253   306    1
   283   253   307    1
   284   254   255    1
   285   254   308    1
   286   254   309    1
   287   255   256    1
   288   255   310    1
   289   255   311    1
   290   256   257    1
   291   256   312    1
   292   256   313    1
   293   257   258    1
   294   257   314    1
   295   257   315    1
   296   258   259    1
   297   258   316    1
   298   258   317    1
   299   259   318    1
   300   259   319    1
   301   259   320    1
   302   260   261    1
   303   260   321    1
   304   260   322    1
   305   261   262    1
   306   261   285    2
   307   262   263    2
   308   262   323    1
   309   263   264    1
   310   263   324    1
   311   264   265    2
   312   264   325    1
   313   265   266    1
   314   265   285    1
   315   266   267    1
   316   266   326    1
   317   266   327    1
   318   267   268    2
   319   267   269    1
   320   267   277    1
   321   269   270    1
   322   269   328    1
   323   269   329    1
   324   270   271    1
   325   270   330    1
   326   270   331    1
   327   271   272    1
   328   271   332    1
   329   271   333    1
   330   272   273    1
   331   272   334    1
   332   272   335    1
   333   273   274    1
   334   273   336    1
   335   273   337    1
   336   274   275    1
   337   274   338    1
   338   274   339    1
   339   275   276    1
   340   275   340    1
   341   275   341    1
   342   276   342    1
   343   276   343    1
   344   276   344    1
   345   277   278    1
   346   277   345    1
   347   277   346    1
   348   278   279    1
   349   278   347    1
   350   278   348    1
   351   279   280    1
   352   279   349    1
   353   279   350    1
   354   280   281    1
   355   280   351    1
   356   280   352    1
   357   281   282    1
   358   281   353    1
   359   281   354    1
   360   282   283    1
   361   282   355    1
   362   282   356    1
   363   283   284    1
   364   283   357    1
   365   283   358    1
   366   284   359    1
   367   284   360    1
   368   284   361    1
   369   285   286    1
@<TRIPOS>SUBSTRUCTURE
     1 RES1      361 GROUP             0 ****  ****    0  
