@<TRIPOS>MOLECULE
am_c3_9H2O_c0_0_nunpairedes_0_charge_3 Charge: 3 Unpaired_Electrons: 3 XTB_Unpaired_Electrons: 0 XTB_Charge: 3
   232   237     1     0     0
SMALL
NoCharges
****
Generated from Architector

@<TRIPOS>ATOM
     1 Nd1      -0.1555    0.1801    0.0452   Nd        1 RES1   0.0000
     2 C1        4.2333    0.6111   -4.3728   C.3       1 RES1   0.0000
     3 C2        3.2656   -0.1052   -5.3042   C.3       1 RES1   0.0000
     4 C3        1.8293    0.4053   -5.1971   C.3       1 RES1   0.0000
     5 C4        1.6796    1.8752   -5.6060   C.3       1 RES1   0.0000
     6 C5        0.3485    2.1488   -6.3025   C.3       1 RES1   0.0000
     7 C6       -0.8733    2.1696   -5.3825   C.3       1 RES1   0.0000
     8 C7       -1.1701    3.5412   -4.7660   C.3       1 RES1   0.0000
     9 C8       -0.6898    3.6934   -3.3175   C.3       1 RES1   0.0000
    10 N1       -1.7336    3.5912   -2.2971   N.am      1 RES1   0.0000
    11 C9       -2.8066    4.5705   -2.3680   C.3       1 RES1   0.0000
    12 C10      -2.2820    6.0042   -2.3408   C.3       1 RES1   0.0000
    13 C11      -1.6158    2.6303   -1.3913   C.2       1 RES1   0.0000
    14 O1       -0.6571    1.8340   -1.3968   O.2       1 RES1   0.0000
    15 C12      -2.6636    2.4607   -0.3002   C.3       1 RES1   0.0000
    16 O2       -2.1445    1.5870    0.7072   O.3       1 RES1   0.0000
    17 C13      -3.1764    0.9163    1.4244   C.3       1 RES1   0.0000
    18 C14      -3.4030   -0.4684    0.7903   C.2       1 RES1   0.0000
    19 O3       -2.5678   -0.8447   -0.0476   O.2       1 RES1   0.0000
    20 N2       -4.4445   -1.1869    1.2027   N.am      1 RES1   0.0000
    21 C15      -5.4217   -0.6741    2.1549   C.3       1 RES1   0.0000
    22 C16      -6.4472    0.3004    1.5845   C.3       1 RES1   0.0000
    23 C17      -4.6482   -2.5736    0.7871   C.3       1 RES1   0.0000
    24 C18      -5.8600   -2.7488   -0.1401   C.3       1 RES1   0.0000
    25 C19      -6.4756   -4.1519   -0.1159   C.3       1 RES1   0.0000
    26 C20      -5.6105   -5.3104   -0.6327   C.3       1 RES1   0.0000
    27 C21      -5.9067   -5.7491   -2.0772   C.3       1 RES1   0.0000
    28 C22      -4.8537   -5.3306   -3.1005   C.3       1 RES1   0.0000
    29 C23      -4.8205   -3.8189   -3.3478   C.3       1 RES1   0.0000
    30 C24      -3.6364   -3.1569   -2.6455   C.3       1 RES1   0.0000
    31 H1        5.2471    0.2603   -4.5469   H         1 RES1   0.0000
    32 H2        3.9712    0.4157   -3.3351   H         1 RES1   0.0000
    33 H3        4.2127    1.6843   -4.5485   H         1 RES1   0.0000
    34 H4        3.2801   -1.1771   -5.0873   H         1 RES1   0.0000
    35 H5        3.6065    0.0271   -6.3315   H         1 RES1   0.0000
    36 H6        1.4408    0.2349   -4.1864   H         1 RES1   0.0000
    37 H7        1.2323   -0.1946   -5.8854   H         1 RES1   0.0000
    38 H8        2.4777    2.1174   -6.3073   H         1 RES1   0.0000
    39 H9        1.7908    2.5376   -4.7453   H         1 RES1   0.0000
    40 H10       0.2007    1.3750   -7.0557   H         1 RES1   0.0000
    41 H11       0.4043    3.0980   -6.8351   H         1 RES1   0.0000
    42 H12      -0.7580    1.4337   -4.5872   H         1 RES1   0.0000
    43 H13      -1.7319    1.8775   -5.9846   H         1 RES1   0.0000
    44 H14      -2.2385    3.7261   -4.8353   H         1 RES1   0.0000
    45 H15      -0.6902    4.3090   -5.3702   H         1 RES1   0.0000
    46 H16      -0.1840    4.6494   -3.1907   H         1 RES1   0.0000
    47 H17       0.0235    2.9007   -3.0975   H         1 RES1   0.0000
    48 H18      -3.5076    4.4188   -1.5522   H         1 RES1   0.0000
    49 H19      -3.3602    4.4030   -3.2938   H         1 RES1   0.0000
    50 H20      -1.5193    6.1324   -1.5761   H         1 RES1   0.0000
    51 H21      -3.0982    6.6820   -2.1095   H         1 RES1   0.0000
    52 H22      -1.8751    6.2931   -3.3051   H         1 RES1   0.0000
    53 H23      -3.5752    2.0321   -0.7479   H         1 RES1   0.0000
    54 H24      -2.8921    3.4199    0.1804   H         1 RES1   0.0000
    55 H25      -4.0850    1.5209    1.4499   H         1 RES1   0.0000
    56 H26      -2.8061    0.7799    2.4501   H         1 RES1   0.0000
    57 H27      -4.8935   -0.1846    2.9741   H         1 RES1   0.0000
    58 H28      -5.9554   -1.5380    2.5539   H         1 RES1   0.0000
    59 H29      -5.9932    1.1139    1.0278   H         1 RES1   0.0000
    60 H30      -7.0092    0.7199    2.4125   H         1 RES1   0.0000
    61 H31      -7.1589   -0.1908    0.9312   H         1 RES1   0.0000
    62 H32      -4.7972   -3.1622    1.6986   H         1 RES1   0.0000
    63 H33      -3.7300   -2.9143    0.3062   H         1 RES1   0.0000
    64 H34      -5.5893   -2.4690   -1.1543   H         1 RES1   0.0000
    65 H35      -6.6440   -2.0645    0.1766   H         1 RES1   0.0000
    66 H36      -7.3846   -4.1076   -0.7141   H         1 RES1   0.0000
    67 H37      -6.7973   -4.3741    0.9022   H         1 RES1   0.0000
    68 H38      -5.7773   -6.1658    0.0226   H         1 RES1   0.0000
    69 H39      -4.5544   -5.0601   -0.5456   H         1 RES1   0.0000
    70 H40      -6.8703   -5.3498   -2.3912   H         1 RES1   0.0000
    71 H41      -5.9902   -6.8352   -2.1058   H         1 RES1   0.0000
    72 H42      -5.0551   -5.8521   -4.0362   H         1 RES1   0.0000
    73 H43      -3.8720   -5.6603   -2.7568   H         1 RES1   0.0000
    74 H44      -5.7617   -3.3865   -3.0087   H         1 RES1   0.0000
    75 H45      -4.7665   -3.6251   -4.4204   H         1 RES1   0.0000
    76 H46      -3.5909   -3.4626   -1.6063   H         1 RES1   0.0000
    77 H47      -3.7037   -2.0703   -2.6706   H         1 RES1   0.0000
    78 H48      -2.7060   -3.4631   -3.1154   H         1 RES1   0.0000
    79 C25      -5.2342    4.4425    1.2641   C.3       1 RES1   0.0000
    80 C26      -4.0738    4.5942    2.2448   C.3       1 RES1   0.0000
    81 C27      -3.0630    5.6430    1.7796   C.3       1 RES1   0.0000
    82 C28      -1.8910    5.8131    2.7462   C.3       1 RES1   0.0000
    83 C29      -0.9503    4.6031    2.8449   C.3       1 RES1   0.0000
    84 C30       0.3802    4.7853    2.1220   C.3       1 RES1   0.0000
    85 C31       0.2360    4.9773    0.6169   C.3       1 RES1   0.0000
    86 C32       1.5934    5.0934   -0.0765   C.3       1 RES1   0.0000
    87 N3        2.0478    3.9098   -0.8194   N.am      1 RES1   0.0000
    88 C33       2.9970    4.2566   -1.8794   C.3       1 RES1   0.0000
    89 C34       4.4343    4.2760   -1.3741   C.3       1 RES1   0.0000
    90 C35       1.7897    2.6420   -0.5123   C.2       1 RES1   0.0000
    91 O4        1.1011    2.2277    0.4395   O.2       1 RES1   0.0000
    92 C36       2.3959    1.5902   -1.4618   C.3       1 RES1   0.0000
    93 O5        2.1449    0.2741   -0.9749   O.3       1 RES1   0.0000
    94 C37       3.3267   -0.4489   -0.6323   C.3       1 RES1   0.0000
    95 C38       3.0741   -1.2280    0.6631   C.2       1 RES1   0.0000
    96 O6        1.9805   -1.0538    1.2253   O.2       1 RES1   0.0000
    97 N4        4.0379   -2.0274    1.1167   N.am      1 RES1   0.0000
    98 C39       5.3524   -2.1720    0.4894   C.3       1 RES1   0.0000
    99 C40       5.5808   -3.4903   -0.2487   C.3       1 RES1   0.0000
   100 C41       3.8967   -2.6190    2.4503   C.3       1 RES1   0.0000
   101 C42       2.9646   -3.8309    2.5640   C.3       1 RES1   0.0000
   102 C43       3.2140   -4.9854    1.5916   C.3       1 RES1   0.0000
   103 C44       2.2452   -6.1678    1.7810   C.3       1 RES1   0.0000
   104 C45       0.9741   -6.0748    0.9338   C.3       1 RES1   0.0000
   105 C46       0.3066   -7.4167    0.6455   C.3       1 RES1   0.0000
   106 C47      -0.7648   -7.2827   -0.4411   C.3       1 RES1   0.0000
   107 C48      -1.9746   -6.4436   -0.0401   C.3       1 RES1   0.0000
   108 H49      -5.9424    3.6906    1.6084   H         1 RES1   0.0000
   109 H50      -4.8937    4.1597    0.2664   H         1 RES1   0.0000
   110 H51      -5.7662    5.3857    1.1730   H         1 RES1   0.0000
   111 H52      -4.4771    4.8978    3.2109   H         1 RES1   0.0000
   112 H53      -3.5765    3.6313    2.3966   H         1 RES1   0.0000
   113 H54      -3.5788    6.6006    1.6872   H         1 RES1   0.0000
   114 H55      -2.6821    5.3881    0.7861   H         1 RES1   0.0000
   115 H56      -2.2974    6.0374    3.7328   H         1 RES1   0.0000
   116 H57      -1.3140    6.6854    2.4383   H         1 RES1   0.0000
   117 H58      -1.4277    3.6980    2.4625   H         1 RES1   0.0000
   118 H59      -0.7194    4.4354    3.8951   H         1 RES1   0.0000
   119 H60       0.9954    3.9016    2.3003   H         1 RES1   0.0000
   120 H61       0.8898    5.6514    2.5469   H         1 RES1   0.0000
   121 H62      -0.3265    5.8917    0.4246   H         1 RES1   0.0000
   122 H63      -0.3207    4.1439    0.1884   H         1 RES1   0.0000
   123 H64       2.3613    5.3783    0.6534   H         1 RES1   0.0000
   124 H65       1.5344    5.8985   -0.8132   H         1 RES1   0.0000
   125 H66       2.7423    5.2527   -2.2444   H         1 RES1   0.0000
   126 H67       2.8924    3.5754   -2.7236   H         1 RES1   0.0000
   127 H68       4.5529    4.9867   -0.5630   H         1 RES1   0.0000
   128 H69       5.0911    4.5808   -2.1806   H         1 RES1   0.0000
   129 H70       4.7579    3.3019   -1.0180   H         1 RES1   0.0000
   130 H71       3.4711    1.7616   -1.5648   H         1 RES1   0.0000
   131 H72       1.9049    1.6734   -2.4403   H         1 RES1   0.0000
   132 H73       4.1610    0.2434   -0.4540   H         1 RES1   0.0000
   133 H74       3.5786   -1.1325   -1.4554   H         1 RES1   0.0000
   134 H75       6.0994   -2.0936    1.2829   H         1 RES1   0.0000
   135 H76       5.5233   -1.3483   -0.1996   H         1 RES1   0.0000
   136 H77       5.6351   -4.3286    0.4372   H         1 RES1   0.0000
   137 H78       6.5390   -3.4348   -0.7585   H         1 RES1   0.0000
   138 H79       4.8101   -3.6890   -0.9898   H         1 RES1   0.0000
   139 H80       3.4898   -1.8440    3.1096   H         1 RES1   0.0000
   140 H81       4.8927   -2.8878    2.8002   H         1 RES1   0.0000
   141 H82       1.9506   -3.4541    2.4646   H         1 RES1   0.0000
   142 H83       3.0735   -4.2058    3.5832   H         1 RES1   0.0000
   143 H84       4.2298   -5.3554    1.7355   H         1 RES1   0.0000
   144 H85       3.1420   -4.6262    0.5622   H         1 RES1   0.0000
   145 H86       1.9837   -6.2612    2.8364   H         1 RES1   0.0000
   146 H87       2.7681   -7.0816    1.5007   H         1 RES1   0.0000
   147 H88       1.2117   -5.6074   -0.0257   H         1 RES1   0.0000
   148 H89       0.2261   -5.4685    1.4337   H         1 RES1   0.0000
   149 H90      -0.1407   -7.8138    1.5586   H         1 RES1   0.0000
   150 H91       1.0571   -8.1298    0.3033   H         1 RES1   0.0000
   151 H92      -1.1185   -8.2800   -0.6995   H         1 RES1   0.0000
   152 H93      -0.3060   -6.8572   -1.3402   H         1 RES1   0.0000
   153 H94      -2.4226   -6.8286    0.8718   H         1 RES1   0.0000
   154 H95      -2.7250   -6.4842   -0.8263   H         1 RES1   0.0000
   155 H96      -1.7058   -5.3992    0.1234   H         1 RES1   0.0000
   156 C49      -0.8716    1.9514    5.1115   C.3       1 RES1   0.0000
   157 C50      -2.2705    2.3595    5.5691   C.3       1 RES1   0.0000
   158 C51      -3.2479    1.1837    5.6022   C.3       1 RES1   0.0000
   159 C52      -2.8550    0.1255    6.6326   C.3       1 RES1   0.0000
   160 C53      -3.7708   -1.1002    6.6835   C.3       1 RES1   0.0000
   161 C54      -3.9938   -1.8190    5.3527   C.3       1 RES1   0.0000
   162 C55      -2.8407   -2.6835    4.8432   C.3       1 RES1   0.0000
   163 C56      -1.6341   -1.8980    4.3133   C.3       1 RES1   0.0000
   164 N5       -0.9382   -2.6666    3.2829   N.am      1 RES1   0.0000
   165 C57      -0.5682   -4.0124    3.7024   C.3       1 RES1   0.0000
   166 C58       0.2177   -3.9984    5.0101   C.3       1 RES1   0.0000
   167 C59      -0.6418   -2.0764    2.1304   C.2       1 RES1   0.0000
   168 O7       -0.7818   -0.8454    1.9609   O.2       1 RES1   0.0000
   169 C60      -0.2533   -2.9577    0.9338   C.3       1 RES1   0.0000
   170 O8        0.0282   -2.1501   -0.1995   O.3       1 RES1   0.0000
   171 C61       0.1418   -2.8611   -1.4297   C.3       1 RES1   0.0000
   172 C62      -0.3269   -1.8847   -2.5226   C.2       1 RES1   0.0000
   173 O9       -0.5592   -0.7157   -2.1672   O.2       1 RES1   0.0000
   174 N6       -0.5410   -2.3390   -3.7507   N.am      1 RES1   0.0000
   175 C63       0.1409   -3.5189   -4.2777   C.3       1 RES1   0.0000
   176 C64      -0.6056   -4.8459   -4.1916   C.3       1 RES1   0.0000
   177 C65      -1.2534   -1.4773   -4.7065   C.3       1 RES1   0.0000
   178 C66      -2.2375   -2.2265   -5.6070   C.3       1 RES1   0.0000
   179 C67      -2.7720   -1.3807   -6.7655   C.3       1 RES1   0.0000
   180 C68      -3.6272   -0.1735   -6.3769   C.3       1 RES1   0.0000
   181 C69      -4.8655   -0.4531   -5.5072   C.3       1 RES1   0.0000
   182 C70      -4.8054    0.3490   -4.2046   C.3       1 RES1   0.0000
   183 C71      -6.0196    0.1336   -3.3046   C.3       1 RES1   0.0000
   184 C72      -5.8472    0.8539   -1.9704   C.3       1 RES1   0.0000
   185 H97      -0.2147    2.8166    5.0871   H         1 RES1   0.0000
   186 H98      -0.8879    1.5129    4.1095   H         1 RES1   0.0000
   187 H99      -0.4330    1.2325    5.7981   H         1 RES1   0.0000
   188 H100     -2.6632    3.1225    4.8924   H         1 RES1   0.0000
   189 H101     -2.2062    2.8074    6.5613   H         1 RES1   0.0000
   190 H102     -3.2786    0.7453    4.5994   H         1 RES1   0.0000
   191 H103     -4.2499    1.5545    5.8248   H         1 RES1   0.0000
   192 H104     -2.8622    0.5919    7.6194   H         1 RES1   0.0000
   193 H105     -1.8346   -0.2028    6.4424   H         1 RES1   0.0000
   194 H106     -4.7508   -0.7974    7.0568   H         1 RES1   0.0000
   195 H107     -3.3535   -1.8016    7.4079   H         1 RES1   0.0000
   196 H108     -4.2543   -1.0862    4.5935   H         1 RES1   0.0000
   197 H109     -4.8525   -2.4813    5.4751   H         1 RES1   0.0000
   198 H110     -3.2349   -3.2952    4.0274   H         1 RES1   0.0000
   199 H111     -2.5412   -3.3588    5.6440   H         1 RES1   0.0000
   200 H112     -0.9363   -1.6480    5.1121   H         1 RES1   0.0000
   201 H113     -1.9576   -0.9671    3.8502   H         1 RES1   0.0000
   202 H114      0.0456   -4.4818    2.9456   H         1 RES1   0.0000
   203 H115     -1.4700   -4.6149    3.8211   H         1 RES1   0.0000
   204 H116      1.0341   -3.2832    4.9632   H         1 RES1   0.0000
   205 H117      0.6274   -4.9878    5.1853   H         1 RES1   0.0000
   206 H118     -0.4079   -3.7585    5.8618   H         1 RES1   0.0000
   207 H119     -1.1114   -3.6089    0.7073   H         1 RES1   0.0000
   208 H120      0.6255   -3.5644    1.1641   H         1 RES1   0.0000
   209 H121     -0.5185   -3.7349   -1.4347   H         1 RES1   0.0000
   210 H122      1.1819   -3.1902   -1.5808   H         1 RES1   0.0000
   211 H123      1.1002   -3.6211   -3.7641   H         1 RES1   0.0000
   212 H124      0.3529   -3.3017   -5.3253   H         1 RES1   0.0000
   213 H125     -0.8196   -5.1365   -3.1683   H         1 RES1   0.0000
   214 H126      0.0310   -5.6086   -4.6292   H         1 RES1   0.0000
   215 H127     -1.5369   -4.8389   -4.7471   H         1 RES1   0.0000
   216 H128     -0.5214   -0.9646   -5.3344   H         1 RES1   0.0000
   217 H129     -1.7860   -0.7335   -4.1109   H         1 RES1   0.0000
   218 H130     -3.0780   -2.5812   -5.0217   H         1 RES1   0.0000
   219 H131     -1.7470   -3.0879   -6.0544   H         1 RES1   0.0000
   220 H132     -3.3561   -2.0392   -7.4090   H         1 RES1   0.0000
   221 H133     -1.9329   -1.0152   -7.3615   H         1 RES1   0.0000
   222 H134     -3.9390    0.3076   -7.3048   H         1 RES1   0.0000
   223 H135     -2.9936    0.5317   -5.8416   H         1 RES1   0.0000
   224 H136     -4.9486   -1.5155   -5.2778   H         1 RES1   0.0000
   225 H137     -5.7721   -0.1764   -6.0479   H         1 RES1   0.0000
   226 H138     -4.7357    1.4136   -4.4483   H         1 RES1   0.0000
   227 H139     -3.8979    0.0803   -3.6493   H         1 RES1   0.0000
   228 H140     -6.1634   -0.9339   -3.1243   H         1 RES1   0.0000
   229 H141     -6.9149    0.5079   -3.8018   H         1 RES1   0.0000
   230 H142     -4.9799    0.4505   -1.4394   H         1 RES1   0.0000
   231 H143     -6.7314    0.7243   -1.3506   H         1 RES1   0.0000
   232 H144     -5.7025    1.9232   -2.1345   H         1 RES1   0.0000
@<TRIPOS>BOND
     1     1    14    1
     2     1    16    1
     3     1    19    1
     4     1    91    1
     5     1    93    1
     6     1    96    1
     7     1   168    1
     8     1   170    1
     9     1   173    1
    10     2     3    1
    11     2    31    1
    12     2    32    1
    13     2    33    1
    14     3     4    1
    15     3    34    1
    16     3    35    1
    17     4     5    1
    18     4    36    1
    19     4    37    1
    20     5     6    1
    21     5    38    1
    22     5    39    1
    23     6     7    1
    24     6    40    1
    25     6    41    1
    26     7     8    1
    27     7    42    1
    28     7    43    1
    29     8     9    1
    30     8    44    1
    31     8    45    1
    32     9    10    1
    33     9    46    1
    34     9    47    1
    35    10    11    1
    36    10    13    1
    37    11    12    1
    38    11    48    1
    39    11    49    1
    40    12    50    1
    41    12    51    1
    42    12    52    1
    43    13    14    2
    44    13    15    1
    45    15    16    1
    46    15    53    1
    47    15    54    1
    48    16    17    1
    49    17    18    1
    50    17    55    1
    51    17    56    1
    52    18    19    2
    53    18    20    1
    54    20    21    1
    55    20    23    1
    56    21    22    1
    57    21    57    1
    58    21    58    1
    59    22    59    1
    60    22    60    1
    61    22    61    1
    62    23    24    1
    63    23    62    1
    64    23    63    1
    65    24    25    1
    66    24    64    1
    67    24    65    1
    68    25    26    1
    69    25    66    1
    70    25    67    1
    71    26    27    1
    72    26    68    1
    73    26    69    1
    74    27    28    1
    75    27    70    1
    76    27    71    1
    77    28    29    1
    78    28    72    1
    79    28    73    1
    80    29    30    1
    81    29    74    1
    82    29    75    1
    83    30    76    1
    84    30    77    1
    85    30    78    1
    86    79    80    1
    87    79   108    1
    88    79   109    1
    89    79   110    1
    90    80    81    1
    91    80   111    1
    92    80   112    1
    93    81    82    1
    94    81   113    1
    95    81   114    1
    96    82    83    1
    97    82   115    1
    98    82   116    1
    99    83    84    1
   100    83   117    1
   101    83   118    1
   102    84    85    1
   103    84   119    1
   104    84   120    1
   105    85    86    1
   106    85   121    1
   107    85   122    1
   108    86    87    1
   109    86   123    1
   110    86   124    1
   111    87    88    1
   112    87    90    1
   113    88    89    1
   114    88   125    1
   115    88   126    1
   116    89   127    1
   117    89   128    1
   118    89   129    1
   119    90    91    2
   120    90    92    1
   121    92    93    1
   122    92   130    1
   123    92   131    1
   124    93    94    1
   125    94    95    1
   126    94   132    1
   127    94   133    1
   128    95    96    2
   129    95    97    1
   130    97    98    1
   131    97   100    1
   132    98    99    1
   133    98   134    1
   134    98   135    1
   135    99   136    1
   136    99   137    1
   137    99   138    1
   138   100   101    1
   139   100   139    1
   140   100   140    1
   141   101   102    1
   142   101   141    1
   143   101   142    1
   144   102   103    1
   145   102   143    1
   146   102   144    1
   147   103   104    1
   148   103   145    1
   149   103   146    1
   150   104   105    1
   151   104   147    1
   152   104   148    1
   153   105   106    1
   154   105   149    1
   155   105   150    1
   156   106   107    1
   157   106   151    1
   158   106   152    1
   159   107   153    1
   160   107   154    1
   161   107   155    1
   162   156   157    1
   163   156   185    1
   164   156   186    1
   165   156   187    1
   166   157   158    1
   167   157   188    1
   168   157   189    1
   169   158   159    1
   170   158   190    1
   171   158   191    1
   172   159   160    1
   173   159   192    1
   174   159   193    1
   175   160   161    1
   176   160   194    1
   177   160   195    1
   178   161   162    1
   179   161   196    1
   180   161   197    1
   181   162   163    1
   182   162   198    1
   183   162   199    1
   184   163   164    1
   185   163   200    1
   186   163   201    1
   187   164   165    1
   188   164   167    1
   189   165   166    1
   190   165   202    1
   191   165   203    1
   192   166   204    1
   193   166   205    1
   194   166   206    1
   195   167   168    2
   196   167   169    1
   197   169   170    1
   198   169   207    1
   199   169   208    1
   200   170   171    1
   201   171   172    1
   202   171   209    1
   203   171   210    1
   204   172   173    2
   205   172   174    1
   206   174   175    1
   207   174   177    1
   208   175   176    1
   209   175   211    1
   210   175   212    1
   211   176   213    1
   212   176   214    1
   213   176   215    1
   214   177   178    1
   215   177   216    1
   216   177   217    1
   217   178   179    1
   218   178   218    1
   219   178   219    1
   220   179   180    1
   221   179   220    1
   222   179   221    1
   223   180   181    1
   224   180   222    1
   225   180   223    1
   226   181   182    1
   227   181   224    1
   228   181   225    1
   229   182   183    1
   230   182   226    1
   231   182   227    1
   232   183   184    1
   233   183   228    1
   234   183   229    1
   235   184   230    1
   236   184   231    1
   237   184   232    1
@<TRIPOS>SUBSTRUCTURE
     1 RES1      232 GROUP             0 ****  ****    0  
