@<TRIPOS>MOLECULE
tri_tri_mer_capped_0_nunpairedes_0_charge_3 Charge: 3 Unpaired_Electrons: 3 XTB_Unpaired_Electrons: 0 XTB_Charge: 3
   358   363     1     0     0
SMALL
NoCharges
****
Generated from Architector

@<TRIPOS>ATOM
     1 Nd1      -0.0362    0.0871    0.1253   Nd        1 RES1   0.0000
     2 C1        4.0782   -6.3378   -1.3393   C.3       1 RES1   0.0000
     3 C2        4.8529   -7.3228   -0.4696   C.3       1 RES1   0.0000
     4 C3        4.4607   -7.2606    1.0057   C.3       1 RES1   0.0000
     5 C4        3.0498   -7.7815    1.2776   C.3       1 RES1   0.0000
     6 C5        2.7332   -7.9047    2.7701   C.3       1 RES1   0.0000
     7 C6        2.6775   -6.5600    3.5000   C.3       1 RES1   0.0000
     8 C7        1.4061   -5.7835    3.1629   C.3       1 RES1   0.0000
     9 C8        1.4710   -4.3340    3.6596   C.3       1 RES1   0.0000
    10 N1        0.4661   -3.5078    2.9971   N.am      1 RES1   0.0000
    11 C9       -0.9225   -3.9469    3.2022   C.3       1 RES1   0.0000
    12 C10      -1.2043   -4.2001    4.6845   C.3       1 RES1   0.0000
    13 C11      -2.5680   -4.7854    5.0612   C.3       1 RES1   0.0000
    14 C12      -3.7594   -4.1261    4.3731   C.3       1 RES1   0.0000
    15 C13      -4.1315   -4.9176    3.1240   C.3       1 RES1   0.0000
    16 C14      -5.0665   -4.1632    2.1927   C.3       1 RES1   0.0000
    17 C15      -5.4343   -4.9924    0.9648   C.3       1 RES1   0.0000
    18 C16      -4.2255   -5.3407    0.1016   C.3       1 RES1   0.0000
    19 C17       0.7367   -2.5160    2.1635   C.2       1 RES1   0.0000
    20 O1       -0.1335   -1.8600    1.5504   O.2       1 RES1   0.0000
    21 C18       2.2097   -2.1915    1.8696   C.3       1 RES1   0.0000
    22 C19       2.7557   -3.2661    0.9350   C.3       1 RES1   0.0000
    23 O2        2.2871   -0.9203    1.2142   O.3       1 RES1   0.0000
    24 C20       3.0979    0.0597    1.8673   C.3       1 RES1   0.0000
    25 C21       3.8435    0.8629    0.8054   C.3       1 RES1   0.0000
    26 C22       2.1968    1.0955    2.5476   C.2       1 RES1   0.0000
    27 O3        1.1047    1.3251    1.9893   O.2       1 RES1   0.0000
    28 N2        2.6515    1.7938    3.5790   N.am      1 RES1   0.0000
    29 C23       4.0094    1.7138    4.0950   C.3       1 RES1   0.0000
    30 C24       4.3764    0.4879    4.9365   C.3       1 RES1   0.0000
    31 C25       5.8988    0.3583    4.9623   C.3       1 RES1   0.0000
    32 C26       6.3772   -0.9215    5.6386   C.3       1 RES1   0.0000
    33 C27       6.2084   -2.1539    4.7497   C.3       1 RES1   0.0000
    34 C28       6.7780   -3.4216    5.3942   C.3       1 RES1   0.0000
    35 C29       5.7506   -4.2112    6.2065   C.3       1 RES1   0.0000
    36 C30       5.2588   -3.4845    7.4532   C.3       1 RES1   0.0000
    37 C31       1.7659    2.7944    4.1571   C.3       1 RES1   0.0000
    38 C32       0.6554    2.1292    4.9593   C.3       1 RES1   0.0000
    39 C33       1.1574    1.2362    6.0893   C.3       1 RES1   0.0000
    40 C34       1.9077    1.9831    7.1931   C.3       1 RES1   0.0000
    41 C35       1.0271    2.9405    7.9991   C.3       1 RES1   0.0000
    42 C36      -0.0952    2.2248    8.7448   C.3       1 RES1   0.0000
    43 C37      -0.8615    3.1481    9.6843   C.3       1 RES1   0.0000
    44 C38      -1.9880    2.4070   10.3929   C.3       1 RES1   0.0000
    45 H1        4.4629   -6.3557   -2.3554   H         1 RES1   0.0000
    46 H2        3.0212   -6.5903   -1.3733   H         1 RES1   0.0000
    47 H3        4.1811   -5.3241   -0.9529   H         1 RES1   0.0000
    48 H4        4.6926   -8.3344   -0.8424   H         1 RES1   0.0000
    49 H5        5.9186   -7.1033   -0.5560   H         1 RES1   0.0000
    50 H6        5.1697   -7.8588    1.5787   H         1 RES1   0.0000
    51 H7        4.5546   -6.2277    1.3454   H         1 RES1   0.0000
    52 H8        2.3138   -7.1338    0.7935   H         1 RES1   0.0000
    53 H9        2.9539   -8.7703    0.8271   H         1 RES1   0.0000
    54 H10       1.7739   -8.4142    2.8852   H         1 RES1   0.0000
    55 H11       3.4962   -8.5253    3.2419   H         1 RES1   0.0000
    56 H12       2.7172   -6.7338    4.5744   H         1 RES1   0.0000
    57 H13       3.5553   -5.9674    3.2367   H         1 RES1   0.0000
    58 H14       1.2602   -5.7864    2.0818   H         1 RES1   0.0000
    59 H15       0.5522   -6.3028    3.5960   H         1 RES1   0.0000
    60 H16       1.3064   -4.2948    4.7375   H         1 RES1   0.0000
    61 H17       2.4723   -3.9443    3.4988   H         1 RES1   0.0000
    62 H18      -1.5660   -3.1576    2.8072   H         1 RES1   0.0000
    63 H19      -1.0777   -4.8530    2.6130   H         1 RES1   0.0000
    64 H20      -0.4822   -4.9039    5.0917   H         1 RES1   0.0000
    65 H21      -1.0728   -3.2491    5.1926   H         1 RES1   0.0000
    66 H22      -2.5890   -5.8546    4.8447   H         1 RES1   0.0000
    67 H23      -2.6541   -4.6876    6.1440   H         1 RES1   0.0000
    68 H24      -4.6101   -4.0956    5.0541   H         1 RES1   0.0000
    69 H25      -3.5115   -3.0957    4.1067   H         1 RES1   0.0000
    70 H26      -3.2178   -5.1646    2.5861   H         1 RES1   0.0000
    71 H27      -4.6012   -5.8557    3.4244   H         1 RES1   0.0000
    72 H28      -5.9741   -3.9085    2.7410   H         1 RES1   0.0000
    73 H29      -4.5908   -3.2301    1.8751   H         1 RES1   0.0000
    74 H30      -5.9254   -5.9111    1.2880   H         1 RES1   0.0000
    75 H31      -6.1500   -4.4316    0.3649   H         1 RES1   0.0000
    76 H32      -3.5957   -6.0764    0.5938   H         1 RES1   0.0000
    77 H33      -4.5494   -5.7635   -0.8458   H         1 RES1   0.0000
    78 H34      -3.6305   -4.4492   -0.0972   H         1 RES1   0.0000
    79 H35       2.8009   -2.1592    2.7891   H         1 RES1   0.0000
    80 H36       2.6181   -4.2599    1.3389   H         1 RES1   0.0000
    81 H37       2.2449   -3.2065   -0.0200   H         1 RES1   0.0000
    82 H38       3.8161   -3.1046    0.7919   H         1 RES1   0.0000
    83 H39       3.8087   -0.4281    2.5342   H         1 RES1   0.0000
    84 H40       3.1206    1.5062    0.3069   H         1 RES1   0.0000
    85 H41       4.6387    1.4735    1.2267   H         1 RES1   0.0000
    86 H42       4.2808    0.1913    0.0744   H         1 RES1   0.0000
    87 H43       4.6971    1.7768    3.2464   H         1 RES1   0.0000
    88 H44       4.1725    2.5970    4.7140   H         1 RES1   0.0000
    89 H45       4.0213    0.5966    5.9587   H         1 RES1   0.0000
    90 H46       3.9217   -0.4209    4.5416   H         1 RES1   0.0000
    91 H47       6.2862    0.3812    3.9417   H         1 RES1   0.0000
    92 H48       6.3109    1.2177    5.4888   H         1 RES1   0.0000
    93 H49       7.4376   -0.8196    5.8702   H         1 RES1   0.0000
    94 H50       5.8448   -1.0557    6.5784   H         1 RES1   0.0000
    95 H51       5.1511   -2.3240    4.5158   H         1 RES1   0.0000
    96 H52       6.7236   -1.9692    3.8023   H         1 RES1   0.0000
    97 H53       7.1774   -4.0727    4.6136   H         1 RES1   0.0000
    98 H54       7.6128   -3.1482    6.0404   H         1 RES1   0.0000
    99 H55       4.8950   -4.4577    5.5686   H         1 RES1   0.0000
   100 H56       6.2139   -5.1509    6.5074   H         1 RES1   0.0000
   101 H57       4.5644   -2.6887    7.1976   H         1 RES1   0.0000
   102 H58       4.7452   -4.1752    8.1152   H         1 RES1   0.0000
   103 H59       6.0977   -3.0588    7.9955   H         1 RES1   0.0000
   104 H60       2.3555    3.4598    4.7806   H         1 RES1   0.0000
   105 H61       1.3235    3.3729    3.3417   H         1 RES1   0.0000
   106 H62       0.0113    2.9041    5.3673   H         1 RES1   0.0000
   107 H63       0.0812    1.5289    4.2564   H         1 RES1   0.0000
   108 H64       0.3097    0.7218    6.5376   H         1 RES1   0.0000
   109 H65       1.8005    0.4664    5.6633   H         1 RES1   0.0000
   110 H66       2.3392    1.2465    7.8745   H         1 RES1   0.0000
   111 H67       2.7369    2.5527    6.7697   H         1 RES1   0.0000
   112 H68       1.6611    3.4560    8.7229   H         1 RES1   0.0000
   113 H69       0.6049    3.7059    7.3430   H         1 RES1   0.0000
   114 H70      -0.8065    1.8000    8.0326   H         1 RES1   0.0000
   115 H71       0.3315    1.4045    9.3257   H         1 RES1   0.0000
   116 H72      -0.1722    3.5571   10.4232   H         1 RES1   0.0000
   117 H73      -1.2729    3.9847    9.1145   H         1 RES1   0.0000
   118 H74      -1.5896    1.5840   10.9810   H         1 RES1   0.0000
   119 H75      -2.5214    3.0769   11.0599   H         1 RES1   0.0000
   120 H76      -2.6984    2.0020    9.6739   H         1 RES1   0.0000
   121 C39       6.3315   -3.8361    1.2643   C.3       1 RES1   0.0000
   122 C40       7.6830   -3.9126    0.5681   C.3       1 RES1   0.0000
   123 C41       7.7764   -2.9675   -0.6306   C.3       1 RES1   0.0000
   124 C42       7.8287   -1.4962   -0.2114   C.3       1 RES1   0.0000
   125 C43       8.2457   -0.5474   -1.3380   C.3       1 RES1   0.0000
   126 C44       7.2138   -0.3925   -2.4592   C.3       1 RES1   0.0000
   127 C45       5.9727    0.3690   -2.0013   C.3       1 RES1   0.0000
   128 C46       4.9082    0.5668   -3.0919   C.3       1 RES1   0.0000
   129 N3        3.6802    1.0889   -2.5040   N.am      1 RES1   0.0000
   130 C47       3.7065    2.5320   -2.2554   C.3       1 RES1   0.0000
   131 C48       2.6391    3.3302   -3.0015   C.3       1 RES1   0.0000
   132 C49       2.6369    4.7634   -2.4704   C.3       1 RES1   0.0000
   133 C50       2.1353    4.8387   -1.0171   C.3       1 RES1   0.0000
   134 C51       3.2274    5.2070   -0.0053   C.3       1 RES1   0.0000
   135 C52       2.7389    5.0146    1.4307   C.3       1 RES1   0.0000
   136 C53       3.5860    5.7397    2.4777   C.3       1 RES1   0.0000
   137 C54       4.9965    5.1806    2.6176   C.3       1 RES1   0.0000
   138 C55       2.6897    0.3720   -1.9868   C.2       1 RES1   0.0000
   139 O4        1.7583    0.9040   -1.3346   O.2       1 RES1   0.0000
   140 C56       2.5721   -1.1429   -2.2783   C.3       1 RES1   0.0000
   141 C57       3.7368   -2.0737   -1.9329   C.3       1 RES1   0.0000
   142 O5        1.4262   -1.6271   -1.5535   O.3       1 RES1   0.0000
   143 C58       0.4876   -2.3263   -2.3755   C.3       1 RES1   0.0000
   144 C59      -0.5391   -3.0051   -1.4717   C.3       1 RES1   0.0000
   145 C60      -0.2289   -1.2431   -3.1971   C.2       1 RES1   0.0000
   146 O6       -0.5332   -0.2219   -2.5565   O.2       1 RES1   0.0000
   147 N4       -0.4671   -1.3930   -4.4951   N.am      1 RES1   0.0000
   148 C61      -0.1697   -2.6222   -5.2234   C.3       1 RES1   0.0000
   149 C62       1.2855   -2.6858   -5.6960   C.3       1 RES1   0.0000
   150 C63       1.7154   -4.0828   -6.1389   C.3       1 RES1   0.0000
   151 C64       3.2071   -4.1233   -6.4755   C.3       1 RES1   0.0000
   152 C65       4.1145   -4.0290   -5.2474   C.3       1 RES1   0.0000
   153 C66       5.5949   -3.8810   -5.6211   C.3       1 RES1   0.0000
   154 C67       6.0843   -2.4310   -5.6298   C.3       1 RES1   0.0000
   155 C68       5.4043   -1.5325   -6.6567   C.3       1 RES1   0.0000
   156 C69      -1.0669   -0.2698   -5.2215   C.3       1 RES1   0.0000
   157 C70      -0.1849    0.9832   -5.2095   C.3       1 RES1   0.0000
   158 C71       0.9938    0.9661   -6.1797   C.3       1 RES1   0.0000
   159 C72       0.6001    1.0292   -7.6562   C.3       1 RES1   0.0000
   160 C73      -0.3227    2.1981   -8.0107   C.3       1 RES1   0.0000
   161 C74       0.2149    3.5675   -7.5972   C.3       1 RES1   0.0000
   162 C75      -0.7023    4.6924   -8.0730   C.3       1 RES1   0.0000
   163 C76      -0.2289    6.0609   -7.5989   C.3       1 RES1   0.0000
   164 H77       6.2878   -4.5338    2.0956   H         1 RES1   0.0000
   165 H78       6.1439   -2.8375    1.6544   H         1 RES1   0.0000
   166 H79       5.5527   -4.0996    0.5522   H         1 RES1   0.0000
   167 H80       8.4747   -3.6775    1.2797   H         1 RES1   0.0000
   168 H81       7.8364   -4.9368    0.2264   H         1 RES1   0.0000
   169 H82       8.6828   -3.2049   -1.1878   H         1 RES1   0.0000
   170 H83       6.9251   -3.1493   -1.2916   H         1 RES1   0.0000
   171 H84       6.8636   -1.1860    0.2004   H         1 RES1   0.0000
   172 H85       8.5649   -1.4038    0.5892   H         1 RES1   0.0000
   173 H86       8.4643    0.4338   -0.9096   H         1 RES1   0.0000
   174 H87       9.1675   -0.9289   -1.7782   H         1 RES1   0.0000
   175 H88       7.6789    0.1355   -3.2887   H         1 RES1   0.0000
   176 H89       6.9282   -1.3826   -2.8122   H         1 RES1   0.0000
   177 H90       5.5298   -0.1948   -1.1836   H         1 RES1   0.0000
   178 H91       6.2819    1.3373   -1.6015   H         1 RES1   0.0000
   179 H92       5.2673    1.2830   -3.8307   H         1 RES1   0.0000
   180 H93       4.7135   -0.3576   -3.6276   H         1 RES1   0.0000
   181 H94       3.5631    2.7062   -1.1901   H         1 RES1   0.0000
   182 H95       4.6923    2.9055   -2.5271   H         1 RES1   0.0000
   183 H96       2.8316    3.3219   -4.0733   H         1 RES1   0.0000
   184 H97       1.6630    2.8800   -2.8254   H         1 RES1   0.0000
   185 H98       3.6491    5.1634   -2.5310   H         1 RES1   0.0000
   186 H99       2.0145    5.3818   -3.1147   H         1 RES1   0.0000
   187 H100      1.3424    5.5845   -0.9397   H         1 RES1   0.0000
   188 H101      1.6879    3.8762   -0.7342   H         1 RES1   0.0000
   189 H102      4.1208    4.6036   -0.1763   H         1 RES1   0.0000
   190 H103      3.5083    6.2500   -0.1496   H         1 RES1   0.0000
   191 H104      1.7185    5.3957    1.4970   H         1 RES1   0.0000
   192 H105      2.7135    3.9438    1.6582   H         1 RES1   0.0000
   193 H106      3.6463    6.7970    2.2179   H         1 RES1   0.0000
   194 H107      3.0788    5.6702    3.4438   H         1 RES1   0.0000
   195 H108      5.5885    5.3815    1.7298   H         1 RES1   0.0000
   196 H109      5.4974    5.6451    3.4622   H         1 RES1   0.0000
   197 H110      4.9703    4.1051    2.7834   H         1 RES1   0.0000
   198 H111      2.3840   -1.1975   -3.3602   H         1 RES1   0.0000
   199 H112      4.0993   -1.8764   -0.9312   H         1 RES1   0.0000
   200 H113      3.3629   -3.0965   -1.9661   H         1 RES1   0.0000
   201 H114      4.5574   -2.0210   -2.6375   H         1 RES1   0.0000
   202 H115      1.0164   -3.0663   -2.9805   H         1 RES1   0.0000
   203 H116     -1.0119   -2.2552   -0.8179   H         1 RES1   0.0000
   204 H117     -1.3186   -3.4757   -2.0692   H         1 RES1   0.0000
   205 H118     -0.0639   -3.7695   -0.8603   H         1 RES1   0.0000
   206 H119     -0.3936   -3.4791   -4.5852   H         1 RES1   0.0000
   207 H120     -0.8295   -2.6756   -6.0891   H         1 RES1   0.0000
   208 H121      1.4401   -1.9981   -6.5272   H         1 RES1   0.0000
   209 H122      1.9297   -2.3608   -4.8766   H         1 RES1   0.0000
   210 H123      1.4930   -4.8106   -5.3569   H         1 RES1   0.0000
   211 H124      1.1489   -4.3635   -7.0249   H         1 RES1   0.0000
   212 H125      3.4308   -5.0567   -6.9909   H         1 RES1   0.0000
   213 H126      3.4317   -3.3096   -7.1637   H         1 RES1   0.0000
   214 H127      3.8306   -3.1749   -4.6265   H         1 RES1   0.0000
   215 H128      3.9773   -4.9252   -4.6371   H         1 RES1   0.0000
   216 H129      6.2039   -4.4340   -4.9039   H         1 RES1   0.0000
   217 H130      5.7685   -4.3249   -6.6006   H         1 RES1   0.0000
   218 H131      5.9428   -1.9997   -4.6333   H         1 RES1   0.0000
   219 H132      7.1569   -2.4361   -5.8261   H         1 RES1   0.0000
   220 H133      4.3682   -1.3351   -6.3878   H         1 RES1   0.0000
   221 H134      5.9250   -0.5802   -6.7239   H         1 RES1   0.0000
   222 H135      5.4306   -1.9978   -7.6369   H         1 RES1   0.0000
   223 H136     -1.2508   -0.5824   -6.2486   H         1 RES1   0.0000
   224 H137     -2.0291   -0.0343   -4.7505   H         1 RES1   0.0000
   225 H138     -0.8158    1.8371   -5.4450   H         1 RES1   0.0000
   226 H139      0.1999    1.1246   -4.2017   H         1 RES1   0.0000
   227 H140      1.6283    1.8250   -5.9581   H         1 RES1   0.0000
   228 H141      1.5960    0.0742   -6.0047   H         1 RES1   0.0000
   229 H142      1.5170    1.1029   -8.2433   H         1 RES1   0.0000
   230 H143      0.1066    0.1031   -7.9572   H         1 RES1   0.0000
   231 H144     -0.4739    2.1930   -9.0915   H         1 RES1   0.0000
   232 H145     -1.3061    2.0439   -7.5587   H         1 RES1   0.0000
   233 H146      0.3028    3.6312   -6.5094   H         1 RES1   0.0000
   234 H147      1.2109    3.7084   -8.0197   H         1 RES1   0.0000
   235 H148     -0.7462    4.6834   -9.1623   H         1 RES1   0.0000
   236 H149     -1.7144    4.5119   -7.7012   H         1 RES1   0.0000
   237 H150      0.7673    6.2729   -7.9787   H         1 RES1   0.0000
   238 H151     -0.9016    6.8367   -7.9535   H         1 RES1   0.0000
   239 H152     -0.2010    6.1043   -6.5111   H         1 RES1   0.0000
   240 C77       0.3795    7.8391    2.1215   C.3       1 RES1   0.0000
   241 C78      -0.6832    8.6565    2.8451   C.3       1 RES1   0.0000
   242 C79      -1.7525    7.7808    3.4962   C.3       1 RES1   0.0000
   243 C80      -1.1979    6.9187    4.6323   C.3       1 RES1   0.0000
   244 C81      -2.2902    6.3579    5.5451   C.3       1 RES1   0.0000
   245 C82      -3.2105    5.3497    4.8519   C.3       1 RES1   0.0000
   246 C83      -2.5734    3.9658    4.7330   C.3       1 RES1   0.0000
   247 C84      -3.4159    3.0303    3.8563   C.3       1 RES1   0.0000
   248 N5       -2.6949    1.8388    3.4478   N.am      1 RES1   0.0000
   249 C85      -2.4100    0.8698    4.5075   C.3       1 RES1   0.0000
   250 C86      -3.5645    0.2738    5.3137   C.3       1 RES1   0.0000
   251 C87      -3.0134   -0.1482    6.6836   C.3       1 RES1   0.0000
   252 C88      -1.9943   -1.2839    6.5719   C.3       1 RES1   0.0000
   253 C89      -1.1263   -1.5001    7.8159   C.3       1 RES1   0.0000
   254 C90      -0.0171   -2.5181    7.5306   C.3       1 RES1   0.0000
   255 C91       1.0213   -2.6787    8.6430   C.3       1 RES1   0.0000
   256 C92       1.9731   -1.4955    8.7591   C.3       1 RES1   0.0000
   257 C93      -2.0762    1.6768    2.2798   C.2       1 RES1   0.0000
   258 O7       -1.4691    0.6284    1.9878   O.2       1 RES1   0.0000
   259 C94      -2.1082    2.7887    1.2119   C.3       1 RES1   0.0000
   260 C95      -1.2515    4.0051    1.5553   C.3       1 RES1   0.0000
   261 O8       -1.5318    2.2493    0.0164   O.3       1 RES1   0.0000
   262 C96      -2.3745    2.2031   -1.1345   C.3       1 RES1   0.0000
   263 C97      -1.4742    2.6028   -2.3038   C.3       1 RES1   0.0000
   264 C98      -2.9145    0.7602   -1.2455   C.2       1 RES1   0.0000
   265 O9       -2.2758   -0.1341   -0.6573   O.2       1 RES1   0.0000
   266 N6       -4.0303    0.5119   -1.9238   N.am      1 RES1   0.0000
   267 C99      -4.7781    1.5545   -2.6169   C.3       1 RES1   0.0000
   268 C100     -5.6746    2.3905   -1.6895   C.3       1 RES1   0.0000
   269 C101     -5.8788    3.8041   -2.2421   C.3       1 RES1   0.0000
   270 C102     -6.4214    4.7762   -1.1949   C.3       1 RES1   0.0000
   271 C103     -5.3612    5.2546   -0.2001   C.3       1 RES1   0.0000
   272 C104     -5.9598    6.1252    0.9128   C.3       1 RES1   0.0000
   273 C105     -6.3031    5.3522    2.1883   C.3       1 RES1   0.0000
   274 C106     -7.3639    4.2731    2.0053   C.3       1 RES1   0.0000
   275 C107     -4.5106   -0.8713   -1.9921   C.3       1 RES1   0.0000
   276 C108     -4.8702   -1.4727   -0.6311   C.3       1 RES1   0.0000
   277 C109     -5.9352   -0.7055    0.1489   C.3       1 RES1   0.0000
   278 C110     -7.3301   -0.7076   -0.4810   C.3       1 RES1   0.0000
   279 C111     -8.0059   -2.0802   -0.5123   C.3       1 RES1   0.0000
   280 C112     -8.3768   -2.6078    0.8721   C.3       1 RES1   0.0000
   281 C113     -9.0640   -3.9701    0.7941   C.3       1 RES1   0.0000
   282 C114     -9.2891   -4.5757    2.1732   C.3       1 RES1   0.0000
   283 H153      1.0589    8.4925    1.5823   H         1 RES1   0.0000
   284 H154      0.9624    7.2554    2.8287   H         1 RES1   0.0000
   285 H155     -0.0855    7.1627    1.4052   H         1 RES1   0.0000
   286 H156     -0.2052    9.2713    3.6086   H         1 RES1   0.0000
   287 H157     -1.1645    9.3279    2.1323   H         1 RES1   0.0000
   288 H158     -2.5357    8.4259    3.8954   H         1 RES1   0.0000
   289 H159     -2.2052    7.1535    2.7237   H         1 RES1   0.0000
   290 H160     -0.5932    6.1037    4.2240   H         1 RES1   0.0000
   291 H161     -0.5362    7.5384    5.2395   H         1 RES1   0.0000
   292 H162     -1.8237    5.8856    6.4129   H         1 RES1   0.0000
   293 H163     -2.8965    7.1881    5.9095   H         1 RES1   0.0000
   294 H164     -4.1402    5.2648    5.4130   H         1 RES1   0.0000
   295 H165     -3.4643    5.7226    3.8591   H         1 RES1   0.0000
   296 H166     -1.5741    4.0615    4.3082   H         1 RES1   0.0000
   297 H167     -2.4618    3.5456    5.7323   H         1 RES1   0.0000
   298 H168     -4.3011    2.7194    4.4152   H         1 RES1   0.0000
   299 H169     -3.7739    3.5671    2.9786   H         1 RES1   0.0000
   300 H170     -1.8420    0.0690    4.0320   H         1 RES1   0.0000
   301 H171     -1.7704    1.3774    5.2316   H         1 RES1   0.0000
   302 H172     -4.3534    1.0041    5.4785   H         1 RES1   0.0000
   303 H173     -4.0056   -0.5770    4.7947   H         1 RES1   0.0000
   304 H174     -2.5377    0.7178    7.1498   H         1 RES1   0.0000
   305 H175     -3.8377   -0.4481    7.3286   H         1 RES1   0.0000
   306 H176     -2.5394   -2.1997    6.3431   H         1 RES1   0.0000
   307 H177     -1.3173   -1.0711    5.7388   H         1 RES1   0.0000
   308 H178     -0.6746   -0.5539    8.1123   H         1 RES1   0.0000
   309 H179     -1.7432   -1.8449    8.6455   H         1 RES1   0.0000
   310 H180     -0.4745   -3.4939    7.3565   H         1 RES1   0.0000
   311 H181      0.5106   -2.2221    6.6150   H         1 RES1   0.0000
   312 H182      0.5149   -2.8361    9.5948   H         1 RES1   0.0000
   313 H183      1.6085   -3.5747    8.4268   H         1 RES1   0.0000
   314 H184      1.4622   -0.6223    9.1511   H         1 RES1   0.0000
   315 H185      2.7923   -1.7356    9.4298   H         1 RES1   0.0000
   316 H186      2.3911   -1.2484    7.7844   H         1 RES1   0.0000
   317 H187     -3.1451    3.0908    1.0295   H         1 RES1   0.0000
   318 H188     -0.2436    3.6644    1.7875   H         1 RES1   0.0000
   319 H189     -1.2059    4.6514    0.6806   H         1 RES1   0.0000
   320 H190     -1.6559    4.5816    2.3762   H         1 RES1   0.0000
   321 H191     -3.1931    2.9199   -1.0363   H         1 RES1   0.0000
   322 H192     -0.5352    2.0554   -2.1934   H         1 RES1   0.0000
   323 H193     -1.9068    2.3633   -3.2698   H         1 RES1   0.0000
   324 H194     -1.2677    3.6714   -2.2667   H         1 RES1   0.0000
   325 H195     -4.0696    2.2195   -3.1141   H         1 RES1   0.0000
   326 H196     -5.3832    1.0891   -3.3965   H         1 RES1   0.0000
   327 H197     -6.6448    1.9150   -1.5527   H         1 RES1   0.0000
   328 H198     -5.2176    2.4402   -0.6997   H         1 RES1   0.0000
   329 H199     -4.9348    4.1940   -2.6291   H         1 RES1   0.0000
   330 H200     -6.5774    3.7596   -3.0757   H         1 RES1   0.0000
   331 H201     -6.8206    5.6541   -1.7030   H         1 RES1   0.0000
   332 H202     -7.2450    4.3016   -0.6654   H         1 RES1   0.0000
   333 H203     -4.8495    4.4014    0.2612   H         1 RES1   0.0000
   334 H204     -4.6025    5.8269   -0.7429   H         1 RES1   0.0000
   335 H205     -5.2507    6.9130    1.1753   H         1 RES1   0.0000
   336 H206     -6.8591    6.6138    0.5385   H         1 RES1   0.0000
   337 H207     -5.3940    4.8928    2.5891   H         1 RES1   0.0000
   338 H208     -6.6546    6.0685    2.9319   H         1 RES1   0.0000
   339 H209     -6.9809    3.4351    1.4273   H         1 RES1   0.0000
   340 H210     -7.6863    3.8950    2.9718   H         1 RES1   0.0000
   341 H211     -8.2324    4.6822    1.4986   H         1 RES1   0.0000
   342 H212     -5.3821   -0.8941   -2.6461   H         1 RES1   0.0000
   343 H213     -3.7204   -1.4874   -2.4395   H         1 RES1   0.0000
   344 H214     -5.2075   -2.4916   -0.8076   H         1 RES1   0.0000
   345 H215     -3.9676   -1.5268   -0.0229   H         1 RES1   0.0000
   346 H216     -6.0079   -1.1382    1.1469   H         1 RES1   0.0000
   347 H217     -5.6034    0.3262    0.2785   H         1 RES1   0.0000
   348 H218     -7.9598   -0.0219    0.0911   H         1 RES1   0.0000
   349 H219     -7.2827   -0.3242   -1.5023   H         1 RES1   0.0000
   350 H220     -8.9145   -2.0014   -1.1122   H         1 RES1   0.0000
   351 H221     -7.3560   -2.8012   -1.0142   H         1 RES1   0.0000
   352 H222     -7.4804   -2.7023    1.4869   H         1 RES1   0.0000
   353 H223     -9.0400   -1.8955    1.3664   H         1 RES1   0.0000
   354 H224    -10.0214   -3.8609    0.2833   H         1 RES1   0.0000
   355 H225     -8.4526   -4.6532    0.1995   H         1 RES1   0.0000
   356 H226     -9.9163   -3.9272    2.7787   H         1 RES1   0.0000
   357 H227     -9.7781   -5.5412    2.0868   H         1 RES1   0.0000
   358 H228     -8.3421   -4.7203    2.6889   H         1 RES1   0.0000
@<TRIPOS>BOND
     1     1    20    1
     2     1    23    1
     3     1    27    1
     4     1   139    1
     5     1   142    1
     6     1   146    1
     7     1   258    1
     8     1   261    1
     9     1   265    1
    10     2     3    1
    11     2    45    1
    12     2    46    1
    13     2    47    1
    14     3     4    1
    15     3    48    1
    16     3    49    1
    17     4     5    1
    18     4    50    1
    19     4    51    1
    20     5     6    1
    21     5    52    1
    22     5    53    1
    23     6     7    1
    24     6    54    1
    25     6    55    1
    26     7     8    1
    27     7    56    1
    28     7    57    1
    29     8     9    1
    30     8    58    1
    31     8    59    1
    32     9    10    1
    33     9    60    1
    34     9    61    1
    35    10    11    1
    36    10    19    1
    37    11    12    1
    38    11    62    1
    39    11    63    1
    40    12    13    1
    41    12    64    1
    42    12    65    1
    43    13    14    1
    44    13    66    1
    45    13    67    1
    46    14    15    1
    47    14    68    1
    48    14    69    1
    49    15    16    1
    50    15    70    1
    51    15    71    1
    52    16    17    1
    53    16    72    1
    54    16    73    1
    55    17    18    1
    56    17    74    1
    57    17    75    1
    58    18    76    1
    59    18    77    1
    60    18    78    1
    61    19    20    2
    62    19    21    1
    63    21    22    1
    64    21    23    1
    65    21    79    1
    66    22    80    1
    67    22    81    1
    68    22    82    1
    69    23    24    1
    70    24    25    1
    71    24    26    1
    72    24    83    1
    73    25    84    1
    74    25    85    1
    75    25    86    1
    76    26    27    2
    77    26    28    1
    78    28    29    1
    79    28    37    1
    80    29    30    1
    81    29    87    1
    82    29    88    1
    83    30    31    1
    84    30    89    1
    85    30    90    1
    86    31    32    1
    87    31    91    1
    88    31    92    1
    89    32    33    1
    90    32    93    1
    91    32    94    1
    92    33    34    1
    93    33    95    1
    94    33    96    1
    95    34    35    1
    96    34    97    1
    97    34    98    1
    98    35    36    1
    99    35    99    1
   100    35   100    1
   101    36   101    1
   102    36   102    1
   103    36   103    1
   104    37    38    1
   105    37   104    1
   106    37   105    1
   107    38    39    1
   108    38   106    1
   109    38   107    1
   110    39    40    1
   111    39   108    1
   112    39   109    1
   113    40    41    1
   114    40   110    1
   115    40   111    1
   116    41    42    1
   117    41   112    1
   118    41   113    1
   119    42    43    1
   120    42   114    1
   121    42   115    1
   122    43    44    1
   123    43   116    1
   124    43   117    1
   125    44   118    1
   126    44   119    1
   127    44   120    1
   128   121   122    1
   129   121   164    1
   130   121   165    1
   131   121   166    1
   132   122   123    1
   133   122   167    1
   134   122   168    1
   135   123   124    1
   136   123   169    1
   137   123   170    1
   138   124   125    1
   139   124   171    1
   140   124   172    1
   141   125   126    1
   142   125   173    1
   143   125   174    1
   144   126   127    1
   145   126   175    1
   146   126   176    1
   147   127   128    1
   148   127   177    1
   149   127   178    1
   150   128   129    1
   151   128   179    1
   152   128   180    1
   153   129   130    1
   154   129   138    1
   155   130   131    1
   156   130   181    1
   157   130   182    1
   158   131   132    1
   159   131   183    1
   160   131   184    1
   161   132   133    1
   162   132   185    1
   163   132   186    1
   164   133   134    1
   165   133   187    1
   166   133   188    1
   167   134   135    1
   168   134   189    1
   169   134   190    1
   170   135   136    1
   171   135   191    1
   172   135   192    1
   173   136   137    1
   174   136   193    1
   175   136   194    1
   176   137   195    1
   177   137   196    1
   178   137   197    1
   179   138   139    2
   180   138   140    1
   181   140   141    1
   182   140   142    1
   183   140   198    1
   184   141   199    1
   185   141   200    1
   186   141   201    1
   187   142   143    1
   188   143   144    1
   189   143   145    1
   190   143   202    1
   191   144   203    1
   192   144   204    1
   193   144   205    1
   194   145   146    2
   195   145   147    1
   196   147   148    1
   197   147   156    1
   198   148   149    1
   199   148   206    1
   200   148   207    1
   201   149   150    1
   202   149   208    1
   203   149   209    1
   204   150   151    1
   205   150   210    1
   206   150   211    1
   207   151   152    1
   208   151   212    1
   209   151   213    1
   210   152   153    1
   211   152   214    1
   212   152   215    1
   213   153   154    1
   214   153   216    1
   215   153   217    1
   216   154   155    1
   217   154   218    1
   218   154   219    1
   219   155   220    1
   220   155   221    1
   221   155   222    1
   222   156   157    1
   223   156   223    1
   224   156   224    1
   225   157   158    1
   226   157   225    1
   227   157   226    1
   228   158   159    1
   229   158   227    1
   230   158   228    1
   231   159   160    1
   232   159   229    1
   233   159   230    1
   234   160   161    1
   235   160   231    1
   236   160   232    1
   237   161   162    1
   238   161   233    1
   239   161   234    1
   240   162   163    1
   241   162   235    1
   242   162   236    1
   243   163   237    1
   244   163   238    1
   245   163   239    1
   246   240   241    1
   247   240   283    1
   248   240   284    1
   249   240   285    1
   250   241   242    1
   251   241   286    1
   252   241   287    1
   253   242   243    1
   254   242   288    1
   255   242   289    1
   256   243   244    1
   257   243   290    1
   258   243   291    1
   259   244   245    1
   260   244   292    1
   261   244   293    1
   262   245   246    1
   263   245   294    1
   264   245   295    1
   265   246   247    1
   266   246   296    1
   267   246   297    1
   268   247   248    1
   269   247   298    1
   270   247   299    1
   271   248   249    1
   272   248   257    1
   273   249   250    1
   274   249   300    1
   275   249   301    1
   276   250   251    1
   277   250   302    1
   278   250   303    1
   279   251   252    1
   280   251   304    1
   281   251   305    1
   282   252   253    1
   283   252   306    1
   284   252   307    1
   285   253   254    1
   286   253   308    1
   287   253   309    1
   288   254   255    1
   289   254   310    1
   290   254   311    1
   291   255   256    1
   292   255   312    1
   293   255   313    1
   294   256   314    1
   295   256   315    1
   296   256   316    1
   297   257   258    2
   298   257   259    1
   299   259   260    1
   300   259   261    1
   301   259   317    1
   302   260   318    1
   303   260   319    1
   304   260   320    1
   305   261   262    1
   306   262   263    1
   307   262   264    1
   308   262   321    1
   309   263   322    1
   310   263   323    1
   311   263   324    1
   312   264   265    2
   313   264   266    1
   314   266   267    1
   315   266   275    1
   316   267   268    1
   317   267   325    1
   318   267   326    1
   319   268   269    1
   320   268   327    1
   321   268   328    1
   322   269   270    1
   323   269   329    1
   324   269   330    1
   325   270   271    1
   326   270   331    1
   327   270   332    1
   328   271   272    1
   329   271   333    1
   330   271   334    1
   331   272   273    1
   332   272   335    1
   333   272   336    1
   334   273   274    1
   335   273   337    1
   336   273   338    1
   337   274   339    1
   338   274   340    1
   339   274   341    1
   340   275   276    1
   341   275   342    1
   342   275   343    1
   343   276   277    1
   344   276   344    1
   345   276   345    1
   346   277   278    1
   347   277   346    1
   348   277   347    1
   349   278   279    1
   350   278   348    1
   351   278   349    1
   352   279   280    1
   353   279   350    1
   354   279   351    1
   355   280   281    1
   356   280   352    1
   357   280   353    1
   358   281   282    1
   359   281   354    1
   360   281   355    1
   361   282   356    1
   362   282   357    1
   363   282   358    1
@<TRIPOS>SUBSTRUCTURE
     1 RES1      358 GROUP             0 ****  ****    0  
