@<TRIPOS>MOLECULE
tri_tri_mer_capped_0_nunpairedes_0_charge_3 Charge: 3 Unpaired_Electrons: 3 XTB_Unpaired_Electrons: 0 XTB_Charge: 3
   361   369     1     0     0
SMALL
NoCharges
****
Generated from Architector

@<TRIPOS>ATOM
     1 Nd1      -0.1045   -0.3540   -0.0084   Nd        1 RES1   0.0000
     2 C1        7.2105    1.4868    6.3379   C.3       1 RES1   0.0000
     3 C2        6.0535    1.9437    7.2200   C.3       1 RES1   0.0000
     4 C3        5.2661    0.7658    7.7905   C.3       1 RES1   0.0000
     5 C4        4.2648    1.1782    8.8696   C.3       1 RES1   0.0000
     6 C5        3.0731    1.9969    8.3697   C.3       1 RES1   0.0000
     7 C6        2.1480    1.1977    7.4340   C.3       1 RES1   0.0000
     8 C7        2.2490    1.6289    5.9714   C.3       1 RES1   0.0000
     9 C8        1.3773    0.7773    5.0476   C.3       1 RES1   0.0000
    10 P1        1.2333    1.5273    3.3786   P.3       1 RES1   0.0000
    11 O1        0.3280    0.8214    2.4238   O.2       1 RES1   0.0000
    12 C9        0.7500    3.2997    3.5716   C.3       1 RES1   0.0000
    13 C10      -0.7296    3.3605    3.9518   C.3       1 RES1   0.0000
    14 C11      -1.0514    3.3957    5.4418   C.3       1 RES1   0.0000
    15 C12      -2.5574    3.1887    5.6146   C.3       1 RES1   0.0000
    16 C13      -3.0128    2.8953    7.0445   C.3       1 RES1   0.0000
    17 C14      -2.3395    1.6814    7.6943   C.3       1 RES1   0.0000
    18 C15      -2.4367    0.3898    6.8806   C.3       1 RES1   0.0000
    19 C16      -1.7315   -0.7636    7.5869   C.3       1 RES1   0.0000
    20 C17       2.9701    1.5720    2.7254   C.3       1 RES1   0.0000
    21 C18       3.6787    0.2694    2.8531   C.ar      1 RES1   0.0000
    22 C19       4.7137    0.0175    3.7343   C.ar      1 RES1   0.0000
    23 C20       5.3129   -1.2334    3.7692   C.ar      1 RES1   0.0000
    24 C21       4.8669   -2.2127    2.8958   C.ar      1 RES1   0.0000
    25 C22       3.8317   -1.9453    2.0200   C.ar      1 RES1   0.0000
    26 C23       3.2247   -2.8997    1.0579   C.3       1 RES1   0.0000
    27 P2        1.4602   -3.3223    1.5466   P.3       1 RES1   0.0000
    28 O2        0.4701   -2.4608    0.8389   O.2       1 RES1   0.0000
    29 C24       1.0698   -5.0308    0.9584   C.3       1 RES1   0.0000
    30 C25       1.9962   -6.2130    1.1885   C.3       1 RES1   0.0000
    31 C26       2.2285   -6.4274    2.6769   C.3       1 RES1   0.0000
    32 C27       3.1992   -7.5530    3.0087   C.3       1 RES1   0.0000
    33 C28       3.3374   -7.7538    4.5195   C.3       1 RES1   0.0000
    34 C29       3.8527   -6.5248    5.2760   C.3       1 RES1   0.0000
    35 C30       5.1825   -5.9706    4.7601   C.3       1 RES1   0.0000
    36 C31       6.3183   -6.9800    4.8624   C.3       1 RES1   0.0000
    37 C32       1.3090   -2.9500    3.3522   C.3       1 RES1   0.0000
    38 C33      -0.1677   -2.8440    3.6990   C.3       1 RES1   0.0000
    39 C34      -0.8445   -4.2032    3.8120   C.3       1 RES1   0.0000
    40 C35      -0.4764   -5.0166    5.0475   C.3       1 RES1   0.0000
    41 C36      -1.3548   -4.6272    6.2327   C.3       1 RES1   0.0000
    42 C37      -1.3422   -5.6543    7.3657   C.3       1 RES1   0.0000
    43 C38      -0.2464   -5.4126    8.4036   C.3       1 RES1   0.0000
    44 C39       1.1691   -5.5106    7.8436   C.3       1 RES1   0.0000
    45 N1        3.2504   -0.7156    2.0239   N.ar      1 RES1   0.0000
    46 O3        2.2677   -0.4902    1.2252   O.co2     1 RES1   0.0000
    47 H1        7.7516    2.3400    5.9342   H         1 RES1   0.0000
    48 H2        6.8612    0.8785    5.5045   H         1 RES1   0.0000
    49 H3        7.9081    0.8875    6.9169   H         1 RES1   0.0000
    50 H4        5.3946    2.6004    6.6466   H         1 RES1   0.0000
    51 H5        6.4571    2.5304    8.0448   H         1 RES1   0.0000
    52 H6        5.9744    0.0665    8.2382   H         1 RES1   0.0000
    53 H7        4.7570    0.2326    6.9824   H         1 RES1   0.0000
    54 H8        4.7925    1.7577    9.6290   H         1 RES1   0.0000
    55 H9        3.8810    0.2769    9.3519   H         1 RES1   0.0000
    56 H10       3.4270    2.9011    7.8728   H         1 RES1   0.0000
    57 H11       2.5055    2.3174    9.2449   H         1 RES1   0.0000
    58 H12       1.1128    1.3255    7.7532   H         1 RES1   0.0000
    59 H13       2.3838    0.1368    7.5221   H         1 RES1   0.0000
    60 H14       3.2867    1.5810    5.6508   H         1 RES1   0.0000
    61 H15       1.9425    2.6722    5.9201   H         1 RES1   0.0000
    62 H16       0.3801    0.6563    5.4726   H         1 RES1   0.0000
    63 H17       1.7994   -0.2241    4.9311   H         1 RES1   0.0000
    64 H18       0.9167    3.7720    2.5986   H         1 RES1   0.0000
    65 H19       1.3734    3.8145    4.2978   H         1 RES1   0.0000
    66 H20      -1.1962    2.4553    3.5542   H         1 RES1   0.0000
    67 H21      -1.1951    4.2273    3.4823   H         1 RES1   0.0000
    68 H22      -0.7506    4.3404    5.8922   H         1 RES1   0.0000
    69 H23      -0.5128    2.6011    5.9490   H         1 RES1   0.0000
    70 H24      -2.8682    2.3560    4.9799   H         1 RES1   0.0000
    71 H25      -3.0886    4.0730    5.2579   H         1 RES1   0.0000
    72 H26      -4.0955    2.7367    7.0241   H         1 RES1   0.0000
    73 H27      -2.8159    3.7642    7.6739   H         1 RES1   0.0000
    74 H28      -2.8091    1.5125    8.6659   H         1 RES1   0.0000
    75 H29      -1.2871    1.9075    7.8867   H         1 RES1   0.0000
    76 H30      -1.9838    0.5285    5.8941   H         1 RES1   0.0000
    77 H31      -3.4877    0.1348    6.7260   H         1 RES1   0.0000
    78 H32      -0.6807   -0.5282    7.7519   H         1 RES1   0.0000
    79 H33      -1.7927   -1.6762    6.9958   H         1 RES1   0.0000
    80 H34      -2.1876   -0.9518    8.5550   H         1 RES1   0.0000
    81 H35       3.5448    2.3707    3.1871   H         1 RES1   0.0000
    82 H36       2.7940    1.7631    1.6623   H         1 RES1   0.0000
    83 H37       5.0379    0.8070    4.3917   H         1 RES1   0.0000
    84 H38       6.1022   -1.4479    4.4705   H         1 RES1   0.0000
    85 H39       5.3318   -3.1857    2.8933   H         1 RES1   0.0000
    86 H40       3.8390   -3.7879    0.9477   H         1 RES1   0.0000
    87 H41       3.0824   -2.3837    0.0998   H         1 RES1   0.0000
    88 H42       0.9011   -4.8522   -0.1009   H         1 RES1   0.0000
    89 H43       0.0894   -5.2624    1.3741   H         1 RES1   0.0000
    90 H44       2.9471   -6.0663    0.6728   H         1 RES1   0.0000
    91 H45       1.5164   -7.0973    0.7562   H         1 RES1   0.0000
    92 H46       1.2725   -6.6418    3.1539   H         1 RES1   0.0000
    93 H47       2.6111   -5.4962    3.0938   H         1 RES1   0.0000
    94 H48       4.1760   -7.3490    2.5699   H         1 RES1   0.0000
    95 H49       2.8374   -8.4813    2.5694   H         1 RES1   0.0000
    96 H50       4.0079   -8.5948    4.7028   H         1 RES1   0.0000
    97 H51       2.3613   -8.0216    4.9346   H         1 RES1   0.0000
    98 H52       3.9755   -6.8032    6.3249   H         1 RES1   0.0000
    99 H53       3.1006   -5.7291    5.2437   H         1 RES1   0.0000
   100 H54       5.4329   -5.0889    5.3562   H         1 RES1   0.0000
   101 H55       5.0742   -5.6460    3.7210   H         1 RES1   0.0000
   102 H56       6.3977   -7.3538    5.8793   H         1 RES1   0.0000
   103 H57       7.2644   -6.5187    4.5912   H         1 RES1   0.0000
   104 H58       6.1536   -7.8258    4.2013   H         1 RES1   0.0000
   105 H59       1.7535   -1.9615    3.4738   H         1 RES1   0.0000
   106 H60       1.8398   -3.6523    3.9873   H         1 RES1   0.0000
   107 H61      -0.6335   -2.2748    2.8854   H         1 RES1   0.0000
   108 H62      -0.2976   -2.2888    4.6287   H         1 RES1   0.0000
   109 H63      -0.5971   -4.7851    2.9317   H         1 RES1   0.0000
   110 H64      -1.9242   -4.0625    3.8258   H         1 RES1   0.0000
   111 H65       0.5764   -4.9013    5.2921   H         1 RES1   0.0000
   112 H66      -0.6379   -6.0757    4.8370   H         1 RES1   0.0000
   113 H67      -2.3804   -4.5287    5.8661   H         1 RES1   0.0000
   114 H68      -1.0513   -3.6561    6.6279   H         1 RES1   0.0000
   115 H69      -1.2333   -6.6567    6.9439   H         1 RES1   0.0000
   116 H70      -2.3080   -5.6201    7.8749   H         1 RES1   0.0000
   117 H71      -0.3659   -6.1542    9.1943   H         1 RES1   0.0000
   118 H72      -0.3876   -4.4229    8.8458   H         1 RES1   0.0000
   119 H73       1.2827   -6.4101    7.2419   H         1 RES1   0.0000
   120 H74       1.8938   -5.5481    8.6529   H         1 RES1   0.0000
   121 H75       1.4070   -4.6427    7.2310   H         1 RES1   0.0000
   122 C40      -6.8982    5.5803    3.3446   C.3       1 RES1   0.0000
   123 C41      -6.9988    5.8424    1.8461   C.3       1 RES1   0.0000
   124 C42      -7.7024    4.7061    1.1047   C.3       1 RES1   0.0000
   125 C43      -8.1400    5.0985   -0.3074   C.3       1 RES1   0.0000
   126 C44      -7.0091    5.3690   -1.3030   C.3       1 RES1   0.0000
   127 C45      -6.2038    4.1100   -1.6645   C.3       1 RES1   0.0000
   128 C46      -4.8666    4.0016   -0.9284   C.3       1 RES1   0.0000
   129 C47      -4.2003    2.6446   -1.1542   C.3       1 RES1   0.0000
   130 P3       -2.4497    2.6201   -0.6117   P.3       1 RES1   0.0000
   131 O4       -1.7384    1.3327   -0.8752   O.2       1 RES1   0.0000
   132 C48      -1.5066    4.0444   -1.3001   C.3       1 RES1   0.0000
   133 C49      -1.1050    3.7490   -2.7403   C.3       1 RES1   0.0000
   134 C50      -2.1427    4.0917   -3.8036   C.3       1 RES1   0.0000
   135 C51      -1.7017    3.4973   -5.1455   C.3       1 RES1   0.0000
   136 C52      -2.8040    3.4103   -6.2034   C.3       1 RES1   0.0000
   137 C53      -4.0699    2.6764   -5.7485   C.3       1 RES1   0.0000
   138 C54      -3.8194    1.2935   -5.1455   C.3       1 RES1   0.0000
   139 C55      -5.1217    0.6368   -4.6988   C.3       1 RES1   0.0000
   140 C56      -2.4433    2.9987    1.2035   C.3       1 RES1   0.0000
   141 C57      -3.4026    2.1825    1.9946   C.ar      1 RES1   0.0000
   142 C58      -4.5320    2.6917    2.6063   C.ar      1 RES1   0.0000
   143 C59      -5.3738    1.8578    3.3257   C.ar      1 RES1   0.0000
   144 C60      -5.0580    0.5126    3.4205   C.ar      1 RES1   0.0000
   145 C61      -3.9211    0.0249    2.8101   C.ar      1 RES1   0.0000
   146 C62      -3.4731   -1.3896    2.8136   C.3       1 RES1   0.0000
   147 P4       -3.2867   -2.0941    1.0644   P.3       1 RES1   0.0000
   148 O5       -2.0173   -1.8199    0.3237   O.2       1 RES1   0.0000
   149 C63      -3.2523   -3.9315    1.2966   C.3       1 RES1   0.0000
   150 C64      -4.1434   -4.6271    2.3096   C.3       1 RES1   0.0000
   151 C65      -5.6054   -4.4545    1.9340   C.3       1 RES1   0.0000
   152 C66      -6.5802   -5.0772    2.9266   C.3       1 RES1   0.0000
   153 C67      -8.0334   -4.8113    2.5255   C.3       1 RES1   0.0000
   154 C68      -8.3864   -3.3286    2.3637   C.3       1 RES1   0.0000
   155 C69      -8.0450   -2.4526    3.5706   C.3       1 RES1   0.0000
   156 C70      -8.8202   -2.8516    4.8190   C.3       1 RES1   0.0000
   157 C71      -4.7182   -1.3520    0.1464   C.3       1 RES1   0.0000
   158 C72      -4.3823   -1.3088   -1.3354   C.3       1 RES1   0.0000
   159 C73      -4.2937   -2.7170   -1.9092   C.3       1 RES1   0.0000
   160 C74      -5.6152   -3.4573   -2.0879   C.3       1 RES1   0.0000
   161 C75      -6.2758   -3.0934   -3.4147   C.3       1 RES1   0.0000
   162 C76      -7.6549   -3.7341   -3.5893   C.3       1 RES1   0.0000
   163 C77      -8.8036   -2.8462   -3.1043   C.3       1 RES1   0.0000
   164 C78      -8.7603   -2.5188   -1.6133   C.3       1 RES1   0.0000
   165 N2       -3.1118    0.8664    2.1169   N.ar      1 RES1   0.0000
   166 O6       -2.0602    0.3835    1.5613   O.co2     1 RES1   0.0000
   167 H76      -6.3885    6.3994    3.8463   H         1 RES1   0.0000
   168 H77      -6.3565    4.6606    3.5563   H         1 RES1   0.0000
   169 H78      -7.8913    5.4873    3.7755   H         1 RES1   0.0000
   170 H79      -6.0000    6.0083    1.4335   H         1 RES1   0.0000
   171 H80      -7.5669    6.7602    1.6959   H         1 RES1   0.0000
   172 H81      -8.5993    4.4355    1.6654   H         1 RES1   0.0000
   173 H82      -7.0647    3.8178    1.0757   H         1 RES1   0.0000
   174 H83      -8.7561    5.9969   -0.2346   H         1 RES1   0.0000
   175 H84      -8.7679    4.3014   -0.7127   H         1 RES1   0.0000
   176 H85      -6.3464    6.1451   -0.9186   H         1 RES1   0.0000
   177 H86      -7.4682    5.7635   -2.2109   H         1 RES1   0.0000
   178 H87      -6.0004    4.1072   -2.7363   H         1 RES1   0.0000
   179 H88      -6.8123    3.2308   -1.4488   H         1 RES1   0.0000
   180 H89      -5.0240    4.1642    0.1350   H         1 RES1   0.0000
   181 H90      -4.2181    4.7997   -1.2896   H         1 RES1   0.0000
   182 H91      -4.2263    2.3821   -2.2126   H         1 RES1   0.0000
   183 H92      -4.7251    1.8518   -0.6142   H         1 RES1   0.0000
   184 H93      -0.6107    4.1006   -0.6725   H         1 RES1   0.0000
   185 H94      -2.0370    4.9889   -1.2113   H         1 RES1   0.0000
   186 H95      -0.9266    2.6718   -2.7901   H         1 RES1   0.0000
   187 H96      -0.1807    4.2758   -2.9844   H         1 RES1   0.0000
   188 H97      -2.2658    5.1715   -3.8927   H         1 RES1   0.0000
   189 H98      -3.1012    3.6703   -3.5117   H         1 RES1   0.0000
   190 H99      -1.3161    2.4897   -4.9713   H         1 RES1   0.0000
   191 H100     -0.8768    4.0871   -5.5512   H         1 RES1   0.0000
   192 H101     -2.3858    2.9011   -7.0763   H         1 RES1   0.0000
   193 H102     -3.0943    4.4148   -6.5138   H         1 RES1   0.0000
   194 H103     -4.7269    2.5622   -6.6131   H         1 RES1   0.0000
   195 H104     -4.6077    3.2932   -5.0238   H         1 RES1   0.0000
   196 H105     -3.1544    1.3695   -4.2814   H         1 RES1   0.0000
   197 H106     -3.3278    0.6576   -5.8851   H         1 RES1   0.0000
   198 H107     -5.6269    1.2545   -3.9565   H         1 RES1   0.0000
   199 H108     -4.9298   -0.3424   -4.2620   H         1 RES1   0.0000
   200 H109     -5.7958    0.5131   -5.5424   H         1 RES1   0.0000
   201 H110     -2.6318    4.0570    1.3717   H         1 RES1   0.0000
   202 H111     -1.4169    2.7278    1.4881   H         1 RES1   0.0000
   203 H112     -4.7367    3.7439    2.5139   H         1 RES1   0.0000
   204 H113     -6.2608    2.2402    3.7945   H         1 RES1   0.0000
   205 H114     -5.6943   -0.1634    3.9667   H         1 RES1   0.0000
   206 H115     -4.1738   -1.9971    3.3846   H         1 RES1   0.0000
   207 H116     -2.4782   -1.4398    3.2671   H         1 RES1   0.0000
   208 H117     -2.1948   -4.0756    1.5219   H         1 RES1   0.0000
   209 H118     -3.4287   -4.3720    0.3159   H         1 RES1   0.0000
   210 H119     -3.9737   -4.2263    3.3085   H         1 RES1   0.0000
   211 H120     -3.8901   -5.6900    2.3413   H         1 RES1   0.0000
   212 H121     -5.7780   -4.8871    0.9477   H         1 RES1   0.0000
   213 H122     -5.7992   -3.3842    1.8735   H         1 RES1   0.0000
   214 H123     -6.3905   -4.6872    3.9283   H         1 RES1   0.0000
   215 H124     -6.4218   -6.1555    2.9657   H         1 RES1   0.0000
   216 H125     -8.6906   -5.2586    3.2718   H         1 RES1   0.0000
   217 H126     -8.2360   -5.3121    1.5749   H         1 RES1   0.0000
   218 H127     -9.4595   -3.2589    2.1779   H         1 RES1   0.0000
   219 H128     -7.8867   -2.9229    1.4786   H         1 RES1   0.0000
   220 H129     -8.2866   -1.4173    3.3146   H         1 RES1   0.0000
   221 H130     -6.9721   -2.4976    3.7791   H         1 RES1   0.0000
   222 H131     -9.8866   -2.8529    4.6122   H         1 RES1   0.0000
   223 H132     -8.6285   -2.1541    5.6309   H         1 RES1   0.0000
   224 H133     -8.5387   -3.8453    5.1550   H         1 RES1   0.0000
   225 H134     -4.8698   -0.3413    0.5312   H         1 RES1   0.0000
   226 H135     -5.6339   -1.9136    0.3113   H         1 RES1   0.0000
   227 H136     -3.4103   -0.8177   -1.4591   H         1 RES1   0.0000
   228 H137     -5.1278   -0.7289   -1.8749   H         1 RES1   0.0000
   229 H138     -3.6620   -3.2841   -1.2337   H         1 RES1   0.0000
   230 H139     -3.7984   -2.6890   -2.8790   H         1 RES1   0.0000
   231 H140     -6.2922   -3.2520   -1.2638   H         1 RES1   0.0000
   232 H141     -5.4318   -4.5352   -2.0872   H         1 RES1   0.0000
   233 H142     -5.6160   -3.4248   -4.2204   H         1 RES1   0.0000
   234 H143     -6.3801   -2.0109   -3.5053   H         1 RES1   0.0000
   235 H144     -7.6803   -4.6914   -3.0640   H         1 RES1   0.0000
   236 H145     -7.8183   -3.9402   -4.6487   H         1 RES1   0.0000
   237 H146     -9.7435   -3.3572   -3.3201   H         1 RES1   0.0000
   238 H147     -8.7919   -1.9111   -3.6716   H         1 RES1   0.0000
   239 H148     -8.6319   -3.4267   -1.0239   H         1 RES1   0.0000
   240 H149     -9.6924   -2.0468   -1.3087   H         1 RES1   0.0000
   241 H150     -7.9501   -1.8243   -1.3906   H         1 RES1   0.0000
   242 C79       3.2778    3.2268   -8.2396   C.3       1 RES1   0.0000
   243 C80       4.5670    2.9122   -7.4855   C.3       1 RES1   0.0000
   244 C81       4.9333    1.4276   -7.5328   C.3       1 RES1   0.0000
   245 C82       6.4010    1.1591   -7.1957   C.3       1 RES1   0.0000
   246 C83       6.8276    1.4600   -5.7565   C.3       1 RES1   0.0000
   247 C84       6.1662    0.5410   -4.7156   C.3       1 RES1   0.0000
   248 C85       4.9624    1.1840   -4.0264   C.3       1 RES1   0.0000
   249 C86       4.1331    0.2017   -3.2012   C.3       1 RES1   0.0000
   250 P5        2.9316    1.1056   -2.1532   P.3       1 RES1   0.0000
   251 O7        2.1245    0.2274   -1.2557   O.2       1 RES1   0.0000
   252 C87       3.7701    2.4656   -1.2224   C.3       1 RES1   0.0000
   253 C88       4.6608    1.8964   -0.1196   C.3       1 RES1   0.0000
   254 C89       6.0859    1.4930   -0.4948   C.3       1 RES1   0.0000
   255 C90       6.7498    0.8497    0.7291   C.3       1 RES1   0.0000
   256 C91       8.0479    0.0878    0.4492   C.3       1 RES1   0.0000
   257 C92       7.9484   -0.9771   -0.6482   C.3       1 RES1   0.0000
   258 C93       6.7969   -1.9678   -0.4732   C.3       1 RES1   0.0000
   259 C94       6.7223   -2.9482   -1.6392   C.3       1 RES1   0.0000
   260 C95       1.8528    2.0607   -3.3171   C.3       1 RES1   0.0000
   261 C96       1.2102    1.1916   -4.3372   C.ar      1 RES1   0.0000
   262 C97       1.5872    1.1885   -5.6673   C.ar      1 RES1   0.0000
   263 C98       0.9740    0.3440   -6.5743   C.ar      1 RES1   0.0000
   264 C99       0.0029   -0.5243   -6.1083   C.ar      1 RES1   0.0000
   265 C100     -0.3444   -0.5235   -4.7680   C.ar      1 RES1   0.0000
   266 C101     -1.2653   -1.5027   -4.1413   C.3       1 RES1   0.0000
   267 P6       -0.2398   -2.6027   -3.0044   P.3       1 RES1   0.0000
   268 O8        0.0623   -1.9520   -1.6977   O.2       1 RES1   0.0000
   269 C102     -1.2594   -4.0686   -2.5304   C.3       1 RES1   0.0000
   270 C103     -1.9710   -4.9537   -3.5343   C.3       1 RES1   0.0000
   271 C104     -0.9456   -5.6155   -4.4422   C.3       1 RES1   0.0000
   272 C105     -1.5330   -6.3123   -5.6625   C.3       1 RES1   0.0000
   273 C106     -0.4379   -6.7666   -6.6321   C.3       1 RES1   0.0000
   274 C107      0.5174   -5.6590   -7.0944   C.3       1 RES1   0.0000
   275 C108     -0.1617   -4.3886   -7.6121   C.3       1 RES1   0.0000
   276 C109     -1.0153   -4.6433   -8.8472   C.3       1 RES1   0.0000
   277 C110      1.3666   -2.8730   -3.8984   C.3       1 RES1   0.0000
   278 C111      2.4346   -3.2307   -2.8759   C.3       1 RES1   0.0000
   279 C112      2.2392   -4.6025   -2.2435   C.3       1 RES1   0.0000
   280 C113      2.7806   -5.7896   -3.0330   C.3       1 RES1   0.0000
   281 C114      4.2476   -6.0501   -2.6958   C.3       1 RES1   0.0000
   282 C115      4.8432   -7.2144   -3.4923   C.3       1 RES1   0.0000
   283 C116      5.5051   -6.7828   -4.8033   C.3       1 RES1   0.0000
   284 C117      4.5566   -6.1243   -5.8014   C.3       1 RES1   0.0000
   285 N3        0.2305    0.3586   -3.9097   N.ar      1 RES1   0.0000
   286 O9       -0.1726    0.4302   -2.6902   O.co2     1 RES1   0.0000
   287 H151      3.0492    4.2884   -8.1790   H         1 RES1   0.0000
   288 H152      2.4236    2.6769   -7.8501   H         1 RES1   0.0000
   289 H153      3.3858    2.9661   -9.2887   H         1 RES1   0.0000
   290 H154      4.4846    3.2596   -6.4514   H         1 RES1   0.0000
   291 H155      5.3727    3.4819   -7.9479   H         1 RES1   0.0000
   292 H156      4.7578    1.0674   -8.5484   H         1 RES1   0.0000
   293 H157      4.2836    0.8462   -6.8734   H         1 RES1   0.0000
   294 H158      7.0198    1.7576   -7.8666   H         1 RES1   0.0000
   295 H159      6.6142    0.1076   -7.4014   H         1 RES1   0.0000
   296 H160      6.6325    2.5060   -5.5145   H         1 RES1   0.0000
   297 H161      7.9086    1.3185   -5.7089   H         1 RES1   0.0000
   298 H162      6.8980    0.2787   -3.9500   H         1 RES1   0.0000
   299 H163      5.8614   -0.3855   -5.2033   H         1 RES1   0.0000
   300 H164      4.3269    1.6453   -4.7762   H         1 RES1   0.0000
   301 H165      5.3331    1.9775   -3.3792   H         1 RES1   0.0000
   302 H166      4.7700   -0.4189   -2.5686   H         1 RES1   0.0000
   303 H167      3.5622   -0.4760   -3.8412   H         1 RES1   0.0000
   304 H168      2.9442    3.0239   -0.7650   H         1 RES1   0.0000
   305 H169      4.3075    3.1554   -1.8690   H         1 RES1   0.0000
   306 H170      4.1533    0.9938    0.2265   H         1 RES1   0.0000
   307 H171      4.7242    2.6066    0.7085   H         1 RES1   0.0000
   308 H172      6.6667    2.3552   -0.8228   H         1 RES1   0.0000
   309 H173      6.0542    0.7769   -1.3119   H         1 RES1   0.0000
   310 H174      6.0391    0.1536    1.1808   H         1 RES1   0.0000
   311 H175      6.9601    1.6195    1.4752   H         1 RES1   0.0000
   312 H176      8.3563   -0.3866    1.3853   H         1 RES1   0.0000
   313 H177      8.8320    0.7887    0.1602   H         1 RES1   0.0000
   314 H178      8.8858   -1.5369   -0.6659   H         1 RES1   0.0000
   315 H179      7.8539   -0.4886   -1.6213   H         1 RES1   0.0000
   316 H180      5.8461   -1.4334   -0.4079   H         1 RES1   0.0000
   317 H181      6.9271   -2.5196    0.4599   H         1 RES1   0.0000
   318 H182      6.6041   -2.4119   -2.5802   H         1 RES1   0.0000
   319 H183      5.8790   -3.6282   -1.5218   H         1 RES1   0.0000
   320 H184      7.6344   -3.5357   -1.7021   H         1 RES1   0.0000
   321 H185      2.4224    2.8507   -3.7983   H         1 RES1   0.0000
   322 H186      1.0917    2.4869   -2.6610   H         1 RES1   0.0000
   323 H187      2.3545    1.8772   -5.9733   H         1 RES1   0.0000
   324 H188      1.2593    0.3536   -7.6134   H         1 RES1   0.0000
   325 H189     -0.4669   -1.2250   -6.7775   H         1 RES1   0.0000
   326 H190     -1.7928   -2.0718   -4.9009   H         1 RES1   0.0000
   327 H191     -1.9712   -0.9790   -3.4904   H         1 RES1   0.0000
   328 H192     -1.9349   -3.5835   -1.8288   H         1 RES1   0.0000
   329 H193     -0.5906   -4.6863   -1.9340   H         1 RES1   0.0000
   330 H194     -2.6829   -4.3766   -4.1217   H         1 RES1   0.0000
   331 H195     -2.5430   -5.7104   -2.9934   H         1 RES1   0.0000
   332 H196     -0.3530   -6.3280   -3.8652   H         1 RES1   0.0000
   333 H197     -0.2865   -4.8230   -4.7862   H         1 RES1   0.0000
   334 H198     -2.2227   -5.6394   -6.1761   H         1 RES1   0.0000
   335 H199     -2.1036   -7.1873   -5.3499   H         1 RES1   0.0000
   336 H200     -0.9112   -7.2159   -7.5049   H         1 RES1   0.0000
   337 H201      0.1610   -7.5478   -6.1572   H         1 RES1   0.0000
   338 H202      1.1421   -6.0655   -7.8924   H         1 RES1   0.0000
   339 H203      1.1932   -5.3936   -6.2752   H         1 RES1   0.0000
   340 H204      0.6223   -3.6671   -7.8603   H         1 RES1   0.0000
   341 H205     -0.7811   -3.9426   -6.8283   H         1 RES1   0.0000
   342 H206     -0.4167   -5.1062   -9.6266   H         1 RES1   0.0000
   343 H207     -1.4216   -3.7109   -9.2326   H         1 RES1   0.0000
   344 H208     -1.8459   -5.3049   -8.6192   H         1 RES1   0.0000
   345 H209      1.6373   -1.9295   -4.3773   H         1 RES1   0.0000
   346 H210      1.2795   -3.6057   -4.6932   H         1 RES1   0.0000
   347 H211      2.3585   -2.4768   -2.0894   H         1 RES1   0.0000
   348 H212      3.4254   -3.1696   -3.3237   H         1 RES1   0.0000
   349 H213      1.1772   -4.7482   -2.0858   H         1 RES1   0.0000
   350 H214      2.7307   -4.5982   -1.2715   H         1 RES1   0.0000
   351 H215      2.6594   -5.6249   -4.1003   H         1 RES1   0.0000
   352 H216      2.2144   -6.6889   -2.7767   H         1 RES1   0.0000
   353 H217      4.3152   -6.2744   -1.6258   H         1 RES1   0.0000
   354 H218      4.8464   -5.1548   -2.8789   H         1 RES1   0.0000
   355 H219      4.0615   -7.9497   -3.6985   H         1 RES1   0.0000
   356 H220      5.6018   -7.7075   -2.8802   H         1 RES1   0.0000
   357 H221      5.9400   -7.6684   -5.2685   H         1 RES1   0.0000
   358 H222      6.3199   -6.0889   -4.5785   H         1 RES1   0.0000
   359 H223      3.6644   -6.7326   -5.9430   H         1 RES1   0.0000
   360 H224      5.0465   -6.0150   -6.7663   H         1 RES1   0.0000
   361 H225      4.2647   -5.1303   -5.4648   H         1 RES1   0.0000
@<TRIPOS>BOND
     1     1    11    1
     2     1    28    1
     3     1    46    1
     4     1   131    1
     5     1   148    1
     6     1   166    1
     7     1   251    1
     8     1   268    1
     9     1   286    1
    10     2     3    1
    11     2    47    1
    12     2    48    1
    13     2    49    1
    14     3     4    1
    15     3    50    1
    16     3    51    1
    17     4     5    1
    18     4    52    1
    19     4    53    1
    20     5     6    1
    21     5    54    1
    22     5    55    1
    23     6     7    1
    24     6    56    1
    25     6    57    1
    26     7     8    1
    27     7    58    1
    28     7    59    1
    29     8     9    1
    30     8    60    1
    31     8    61    1
    32     9    10    1
    33     9    62    1
    34     9    63    1
    35    10    11    2
    36    10    12    1
    37    10    20    1
    38    12    13    1
    39    12    64    1
    40    12    65    1
    41    13    14    1
    42    13    66    1
    43    13    67    1
    44    14    15    1
    45    14    68    1
    46    14    69    1
    47    15    16    1
    48    15    70    1
    49    15    71    1
    50    16    17    1
    51    16    72    1
    52    16    73    1
    53    17    18    1
    54    17    74    1
    55    17    75    1
    56    18    19    1
    57    18    76    1
    58    18    77    1
    59    19    78    1
    60    19    79    1
    61    19    80    1
    62    20    21    1
    63    20    81    1
    64    20    82    1
    65    21    22    1
    66    21    45    2
    67    22    23    2
    68    22    83    1
    69    23    24    1
    70    23    84    1
    71    24    25    2
    72    24    85    1
    73    25    26    1
    74    25    45    1
    75    26    27    1
    76    26    86    1
    77    26    87    1
    78    27    28    2
    79    27    29    1
    80    27    37    1
    81    29    30    1
    82    29    88    1
    83    29    89    1
    84    30    31    1
    85    30    90    1
    86    30    91    1
    87    31    32    1
    88    31    92    1
    89    31    93    1
    90    32    33    1
    91    32    94    1
    92    32    95    1
    93    33    34    1
    94    33    96    1
    95    33    97    1
    96    34    35    1
    97    34    98    1
    98    34    99    1
    99    35    36    1
   100    35   100    1
   101    35   101    1
   102    36   102    1
   103    36   103    1
   104    36   104    1
   105    37    38    1
   106    37   105    1
   107    37   106    1
   108    38    39    1
   109    38   107    1
   110    38   108    1
   111    39    40    1
   112    39   109    1
   113    39   110    1
   114    40    41    1
   115    40   111    1
   116    40   112    1
   117    41    42    1
   118    41   113    1
   119    41   114    1
   120    42    43    1
   121    42   115    1
   122    42   116    1
   123    43    44    1
   124    43   117    1
   125    43   118    1
   126    44   119    1
   127    44   120    1
   128    44   121    1
   129    45    46    1
   130   122   123    1
   131   122   167    1
   132   122   168    1
   133   122   169    1
   134   123   124    1
   135   123   170    1
   136   123   171    1
   137   124   125    1
   138   124   172    1
   139   124   173    1
   140   125   126    1
   141   125   174    1
   142   125   175    1
   143   126   127    1
   144   126   176    1
   145   126   177    1
   146   127   128    1
   147   127   178    1
   148   127   179    1
   149   128   129    1
   150   128   180    1
   151   128   181    1
   152   129   130    1
   153   129   182    1
   154   129   183    1
   155   130   131    2
   156   130   132    1
   157   130   140    1
   158   132   133    1
   159   132   184    1
   160   132   185    1
   161   133   134    1
   162   133   186    1
   163   133   187    1
   164   134   135    1
   165   134   188    1
   166   134   189    1
   167   135   136    1
   168   135   190    1
   169   135   191    1
   170   136   137    1
   171   136   192    1
   172   136   193    1
   173   137   138    1
   174   137   194    1
   175   137   195    1
   176   138   139    1
   177   138   196    1
   178   138   197    1
   179   139   198    1
   180   139   199    1
   181   139   200    1
   182   140   141    1
   183   140   201    1
   184   140   202    1
   185   141   142    1
   186   141   165    2
   187   142   143    2
   188   142   203    1
   189   143   144    1
   190   143   204    1
   191   144   145    2
   192   144   205    1
   193   145   146    1
   194   145   165    1
   195   146   147    1
   196   146   206    1
   197   146   207    1
   198   147   148    2
   199   147   149    1
   200   147   157    1
   201   149   150    1
   202   149   208    1
   203   149   209    1
   204   150   151    1
   205   150   210    1
   206   150   211    1
   207   151   152    1
   208   151   212    1
   209   151   213    1
   210   152   153    1
   211   152   214    1
   212   152   215    1
   213   153   154    1
   214   153   216    1
   215   153   217    1
   216   154   155    1
   217   154   218    1
   218   154   219    1
   219   155   156    1
   220   155   220    1
   221   155   221    1
   222   156   222    1
   223   156   223    1
   224   156   224    1
   225   157   158    1
   226   157   225    1
   227   157   226    1
   228   158   159    1
   229   158   227    1
   230   158   228    1
   231   159   160    1
   232   159   229    1
   233   159   230    1
   234   160   161    1
   235   160   231    1
   236   160   232    1
   237   161   162    1
   238   161   233    1
   239   161   234    1
   240   162   163    1
   241   162   235    1
   242   162   236    1
   243   163   164    1
   244   163   237    1
   245   163   238    1
   246   164   239    1
   247   164   240    1
   248   164   241    1
   249   165   166    1
   250   242   243    1
   251   242   287    1
   252   242   288    1
   253   242   289    1
   254   243   244    1
   255   243   290    1
   256   243   291    1
   257   244   245    1
   258   244   292    1
   259   244   293    1
   260   245   246    1
   261   245   294    1
   262   245   295    1
   263   246   247    1
   264   246   296    1
   265   246   297    1
   266   247   248    1
   267   247   298    1
   268   247   299    1
   269   248   249    1
   270   248   300    1
   271   248   301    1
   272   249   250    1
   273   249   302    1
   274   249   303    1
   275   250   251    2
   276   250   252    1
   277   250   260    1
   278   252   253    1
   279   252   304    1
   280   252   305    1
   281   253   254    1
   282   253   306    1
   283   253   307    1
   284   254   255    1
   285   254   308    1
   286   254   309    1
   287   255   256    1
   288   255   310    1
   289   255   311    1
   290   256   257    1
   291   256   312    1
   292   256   313    1
   293   257   258    1
   294   257   314    1
   295   257   315    1
   296   258   259    1
   297   258   316    1
   298   258   317    1
   299   259   318    1
   300   259   319    1
   301   259   320    1
   302   260   261    1
   303   260   321    1
   304   260   322    1
   305   261   262    1
   306   261   285    2
   307   262   263    2
   308   262   323    1
   309   263   264    1
   310   263   324    1
   311   264   265    2
   312   264   325    1
   313   265   266    1
   314   265   285    1
   315   266   267    1
   316   266   326    1
   317   266   327    1
   318   267   268    2
   319   267   269    1
   320   267   277    1
   321   269   270    1
   322   269   328    1
   323   269   329    1
   324   270   271    1
   325   270   330    1
   326   270   331    1
   327   271   272    1
   328   271   332    1
   329   271   333    1
   330   272   273    1
   331   272   334    1
   332   272   335    1
   333   273   274    1
   334   273   336    1
   335   273   337    1
   336   274   275    1
   337   274   338    1
   338   274   339    1
   339   275   276    1
   340   275   340    1
   341   275   341    1
   342   276   342    1
   343   276   343    1
   344   276   344    1
   345   277   278    1
   346   277   345    1
   347   277   346    1
   348   278   279    1
   349   278   347    1
   350   278   348    1
   351   279   280    1
   352   279   349    1
   353   279   350    1
   354   280   281    1
   355   280   351    1
   356   280   352    1
   357   281   282    1
   358   281   353    1
   359   281   354    1
   360   282   283    1
   361   282   355    1
   362   282   356    1
   363   283   284    1
   364   283   357    1
   365   283   358    1
   366   284   359    1
   367   284   360    1
   368   284   361    1
   369   285   286    1
@<TRIPOS>SUBSTRUCTURE
     1 RES1      361 GROUP             0 ****  ****    0  
