@<TRIPOS>MOLECULE
tri_tri_mer_capped_0_nunpairedes_0_charge_3 Charge: 3 Unpaired_Electrons: 3 XTB_Unpaired_Electrons: 0 XTB_Charge: 3
   322   327     1     0     0
SMALL
NoCharges
****
Generated from Architector

@<TRIPOS>ATOM
     1 Nd1       0.0391   -0.2269   -0.0362   Nd        1 RES1   0.0000
     2 C1       -2.1296   -5.3375   -1.6430   C.3       1 RES1   0.0000
     3 C2       -1.5225   -5.3102   -0.2420   C.3       1 RES1   0.0000
     4 C3       -0.0334   -5.6545   -0.2669   C.3       1 RES1   0.0000
     5 C4        0.6009   -5.7547    1.1217   C.3       1 RES1   0.0000
     6 C5        0.6495   -4.4308    1.8861   C.3       1 RES1   0.0000
     7 C6        1.3295   -4.6120    3.2435   C.3       1 RES1   0.0000
     8 C7        1.2692   -3.4039    4.2039   C.3       1 RES1   0.0000
     9 C8        2.5063   -3.4626    5.1165   C.3       1 RES1   0.0000
    10 C9        2.9941   -2.1812    5.8037   C.3       1 RES1   0.0000
    11 C10       2.1495   -1.5718    6.9277   C.3       1 RES1   0.0000
    12 C11       1.9194   -2.5044    8.1147   C.3       1 RES1   0.0000
    13 C12       0.0012   -3.4277    5.0722   C.3       1 RES1   0.0000
    14 C13      -1.3001   -3.0947    4.3359   C.3       1 RES1   0.0000
    15 C14      -1.8862   -1.7095    4.5942   C.3       1 RES1   0.0000
    16 N1       -1.0284   -0.5283    4.4145   N.am      1 RES1   0.0000
    17 C15      -1.0133    0.4251    5.5187   C.3       1 RES1   0.0000
    18 C16      -0.4288   -0.2282    3.2688   C.2       1 RES1   0.0000
    19 O1       -0.2990   -0.9886    2.2892   O.2       1 RES1   0.0000
    20 C17       0.0847    1.2116    3.1125   C.3       1 RES1   0.0000
    21 O2        0.9572    1.2894    2.0045   O.3       1 RES1   0.0000
    22 C18       2.3161    1.1213    2.4121   C.3       1 RES1   0.0000
    23 C19       3.0630    0.7817    1.1256   C.2       1 RES1   0.0000
    24 O3        2.4589    0.0022    0.3629   O.2       1 RES1   0.0000
    25 N2        4.2683    1.2711    0.8937   N.am      1 RES1   0.0000
    26 C20       5.0949    1.8609    1.9293   C.3       1 RES1   0.0000
    27 C21       4.9730    0.9790   -0.3555   C.3       1 RES1   0.0000
    28 C22       5.4013    2.2321   -1.1387   C.3       1 RES1   0.0000
    29 C23       4.2594    2.7692   -2.0124   C.3       1 RES1   0.0000
    30 C24       3.9852    4.2867   -2.1460   C.3       1 RES1   0.0000
    31 C25       2.8616    4.3355   -3.2117   C.3       1 RES1   0.0000
    32 C26       1.8612    5.4875   -3.3327   C.3       1 RES1   0.0000
    33 C27       0.7317    5.0287   -4.2693   C.3       1 RES1   0.0000
    34 C28      -0.5175    5.8967   -4.2268   C.3       1 RES1   0.0000
    35 C29       3.5769    4.9630   -0.8324   C.3       1 RES1   0.0000
    36 C30       4.7431    5.5126   -0.0123   C.3       1 RES1   0.0000
    37 C31       4.2795    6.3407    1.1866   C.3       1 RES1   0.0000
    38 C32       3.5995    5.5142    2.2767   C.3       1 RES1   0.0000
    39 C33       3.2400    6.3451    3.5100   C.3       1 RES1   0.0000
    40 C34       2.1944    7.4184    3.2287   C.3       1 RES1   0.0000
    41 H1       -3.2082   -5.1849   -1.5965   H         1 RES1   0.0000
    42 H2       -1.6869   -4.5575   -2.2643   H         1 RES1   0.0000
    43 H3       -1.9502   -6.3001   -2.1180   H         1 RES1   0.0000
    44 H4       -1.6604   -4.3088    0.1815   H         1 RES1   0.0000
    45 H5       -2.0514   -6.0267    0.3893   H         1 RES1   0.0000
    46 H6        0.0928   -6.6140   -0.7757   H         1 RES1   0.0000
    47 H7        0.4795   -4.8928   -0.8596   H         1 RES1   0.0000
    48 H8        0.0360   -6.4813    1.7086   H         1 RES1   0.0000
    49 H9        1.6103   -6.1554    1.0098   H         1 RES1   0.0000
    50 H10       1.1714   -3.6659    1.3029   H         1 RES1   0.0000
    51 H11      -0.3758   -4.0915    2.0120   H         1 RES1   0.0000
    52 H12       0.8838   -5.4732    3.7392   H         1 RES1   0.0000
    53 H13       2.3738   -4.8805    3.0603   H         1 RES1   0.0000
    54 H14       1.2895   -2.4861    3.6063   H         1 RES1   0.0000
    55 H15       2.3247   -4.2227    5.8734   H         1 RES1   0.0000
    56 H16       3.3542   -3.8079    4.5206   H         1 RES1   0.0000
    57 H17       3.9681   -2.4237    6.2354   H         1 RES1   0.0000
    58 H18       3.1649   -1.4095    5.0448   H         1 RES1   0.0000
    59 H19       2.6807   -0.6859    7.2903   H         1 RES1   0.0000
    60 H20       1.1862   -1.2278    6.5413   H         1 RES1   0.0000
    61 H21       2.8676   -2.8090    8.5519   H         1 RES1   0.0000
    62 H22       1.3454   -1.9884    8.8828   H         1 RES1   0.0000
    63 H23       1.3715   -3.4014    7.8322   H         1 RES1   0.0000
    64 H24      -0.0823   -4.4297    5.4903   H         1 RES1   0.0000
    65 H25       0.1300   -2.7610    5.9213   H         1 RES1   0.0000
    66 H26      -1.1718   -3.2302    3.2675   H         1 RES1   0.0000
    67 H27      -2.0842   -3.7742    4.6707   H         1 RES1   0.0000
    68 H28      -2.7579   -1.5825    3.9414   H         1 RES1   0.0000
    69 H29      -2.2389   -1.6768    5.6227   H         1 RES1   0.0000
    70 H30      -1.5341   -0.0001    6.3720   H         1 RES1   0.0000
    71 H31       0.0083    0.6368    5.8454   H         1 RES1   0.0000
    72 H32      -1.5205    1.3638    5.2768   H         1 RES1   0.0000
    73 H33      -0.7829    1.8415    2.8884   H         1 RES1   0.0000
    74 H34       0.5726    1.6047    4.0049   H         1 RES1   0.0000
    75 H35       2.6430    2.0347    2.9220   H         1 RES1   0.0000
    76 H36       2.4180    0.2407    3.0694   H         1 RES1   0.0000
    77 H37       4.6249    1.8051    2.9056   H         1 RES1   0.0000
    78 H38       6.0306    1.3007    1.9756   H         1 RES1   0.0000
    79 H39       5.3355    2.9043    1.7239   H         1 RES1   0.0000
    80 H40       5.8557    0.3906   -0.0941   H         1 RES1   0.0000
    81 H41       4.3126    0.3506   -0.9551   H         1 RES1   0.0000
    82 H42       5.7754    2.9834   -0.4531   H         1 RES1   0.0000
    83 H43       6.2437    1.9436   -1.7659   H         1 RES1   0.0000
    84 H44       4.4259    2.3962   -3.0263   H         1 RES1   0.0000
    85 H45       3.3446    2.3073   -1.6353   H         1 RES1   0.0000
    86 H46       4.8746    4.7887   -2.5335   H         1 RES1   0.0000
    87 H47       3.3201    4.1958   -4.1922   H         1 RES1   0.0000
    88 H48       2.2432    3.4697   -3.0088   H         1 RES1   0.0000
    89 H49       1.4152    5.7316   -2.3678   H         1 RES1   0.0000
    90 H50       2.3367    6.3828   -3.7295   H         1 RES1   0.0000
    91 H51       1.1078    5.0080   -5.2924   H         1 RES1   0.0000
    92 H52       0.4158    4.0161   -3.9858   H         1 RES1   0.0000
    93 H53      -0.2827    6.9199   -4.5025   H         1 RES1   0.0000
    94 H54      -1.2675    5.5156   -4.9203   H         1 RES1   0.0000
    95 H55      -0.9486    5.8790   -3.2267   H         1 RES1   0.0000
    96 H56       2.9398    5.8151   -1.0659   H         1 RES1   0.0000
    97 H57       2.9868    4.2722   -0.2272   H         1 RES1   0.0000
    98 H58       5.3872    4.7070    0.3412   H         1 RES1   0.0000
    99 H59       5.3475    6.1534   -0.6540   H         1 RES1   0.0000
   100 H60       5.1452    6.8411    1.6230   H         1 RES1   0.0000
   101 H61       3.5956    7.1146    0.8377   H         1 RES1   0.0000
   102 H62       2.6923    5.0489    1.8811   H         1 RES1   0.0000
   103 H63       4.2729    4.7133    2.5935   H         1 RES1   0.0000
   104 H64       2.8617    5.6771    4.2907   H         1 RES1   0.0000
   105 H65       4.1413    6.8228    3.8958   H         1 RES1   0.0000
   106 H66       1.2966    6.9754    2.7971   H         1 RES1   0.0000
   107 H67       1.9223    7.9229    4.1533   H         1 RES1   0.0000
   108 H68       2.5775    8.1668    2.5391   H         1 RES1   0.0000
   109 C35      -2.9944    0.0776  -10.3327   C.3       1 RES1   0.0000
   110 C36      -2.5416   -0.9338   -9.2834   C.3       1 RES1   0.0000
   111 C37      -2.9326   -2.3729   -9.6280   C.3       1 RES1   0.0000
   112 C38      -2.3227   -3.4021   -8.6734   C.3       1 RES1   0.0000
   113 C39      -2.9304   -3.3561   -7.2663   C.3       1 RES1   0.0000
   114 C40      -1.9722   -3.8383   -6.1728   C.3       1 RES1   0.0000
   115 C41      -0.6884   -3.0177   -5.9617   C.3       1 RES1   0.0000
   116 C42       0.3530   -3.9487   -5.3194   C.3       1 RES1   0.0000
   117 C43       1.7697   -3.4007   -5.1310   C.3       1 RES1   0.0000
   118 C44       2.4041   -2.8562   -6.4102   C.3       1 RES1   0.0000
   119 C45       3.8071   -2.3024   -6.1749   C.3       1 RES1   0.0000
   120 C46      -0.8666   -1.7588   -5.1039   C.3       1 RES1   0.0000
   121 C47      -1.6819   -0.6576   -5.7700   C.3       1 RES1   0.0000
   122 C48      -1.7847    0.6135   -4.9298   C.3       1 RES1   0.0000
   123 N3       -0.4949    1.0857   -4.4622   N.am      1 RES1   0.0000
   124 C49       0.4735    1.4773   -5.4734   C.3       1 RES1   0.0000
   125 C50      -0.2404    1.0552   -3.1656   C.2       1 RES1   0.0000
   126 O4       -1.0415    0.7001   -2.2786   O.2       1 RES1   0.0000
   127 C51       1.1564    1.3960   -2.6865   C.3       1 RES1   0.0000
   128 O5        1.5973    0.3349   -1.8566   O.3       1 RES1   0.0000
   129 C52       1.7717   -0.8918   -2.5635   C.3       1 RES1   0.0000
   130 C53       2.0988   -1.9788   -1.5240   C.2       1 RES1   0.0000
   131 O6        1.1875   -2.1960   -0.6963   O.2       1 RES1   0.0000
   132 N4        3.2313   -2.6614   -1.5759   N.am      1 RES1   0.0000
   133 C54       4.3092   -2.4410   -2.5191   C.3       1 RES1   0.0000
   134 C55       3.3893   -3.9102   -0.8206   C.3       1 RES1   0.0000
   135 C56       4.5238   -3.9245    0.2073   C.3       1 RES1   0.0000
   136 C57       4.6132   -5.2749    0.9429   C.3       1 RES1   0.0000
   137 C58       5.4533   -6.4207    0.3361   C.3       1 RES1   0.0000
   138 C59       5.2609   -6.6415   -1.1671   C.3       1 RES1   0.0000
   139 C60       3.8781   -7.1972   -1.5186   C.3       1 RES1   0.0000
   140 C61       3.6455   -7.1865   -3.0297   C.3       1 RES1   0.0000
   141 C62       2.2240   -7.5885   -3.4139   C.3       1 RES1   0.0000
   142 C63       6.9481   -6.4022    0.7185   C.3       1 RES1   0.0000
   143 C64       7.7956   -5.1510    0.4557   C.3       1 RES1   0.0000
   144 C65       7.7253   -4.1247    1.5864   C.3       1 RES1   0.0000
   145 C66       8.6649   -2.9415    1.3664   C.3       1 RES1   0.0000
   146 C67       8.6744   -1.9706    2.5493   C.3       1 RES1   0.0000
   147 C68       7.3206   -1.3110    2.8088   C.3       1 RES1   0.0000
   148 H69      -2.6798    1.0845  -10.0535   H         1 RES1   0.0000
   149 H70      -4.0790    0.0721  -10.4220   H         1 RES1   0.0000
   150 H71      -2.5661   -0.1544  -11.3053   H         1 RES1   0.0000
   151 H72      -2.9910   -0.6486   -8.3292   H         1 RES1   0.0000
   152 H73      -1.4533   -0.8721   -9.1834   H         1 RES1   0.0000
   153 H74      -2.5903   -2.5916  -10.6405   H         1 RES1   0.0000
   154 H75      -4.0190   -2.4645   -9.6208   H         1 RES1   0.0000
   155 H76      -1.2476   -3.2210   -8.6358   H         1 RES1   0.0000
   156 H77      -2.4549   -4.3990   -9.0940   H         1 RES1   0.0000
   157 H78      -3.8174   -3.9930   -7.2358   H         1 RES1   0.0000
   158 H79      -3.2725   -2.3464   -7.0553   H         1 RES1   0.0000
   159 H80      -1.6744   -4.8548   -6.4379   H         1 RES1   0.0000
   160 H81      -2.5098   -3.9045   -5.2238   H         1 RES1   0.0000
   161 H82      -0.3160   -2.7048   -6.9367   H         1 RES1   0.0000
   162 H83       0.4293   -4.8447   -5.9347   H         1 RES1   0.0000
   163 H84      -0.0238   -4.2529   -4.3399   H         1 RES1   0.0000
   164 H85       2.3886   -4.2201   -4.7557   H         1 RES1   0.0000
   165 H86       1.7748   -2.6263   -4.3629   H         1 RES1   0.0000
   166 H87       1.7868   -2.0615   -6.8326   H         1 RES1   0.0000
   167 H88       2.4614   -3.6590   -7.1451   H         1 RES1   0.0000
   168 H89       3.7952   -1.4698   -5.4672   H         1 RES1   0.0000
   169 H90       4.2314   -1.9387   -7.1085   H         1 RES1   0.0000
   170 H91       4.4622   -3.0790   -5.7855   H         1 RES1   0.0000
   171 H92       0.1301   -1.3580   -4.9129   H         1 RES1   0.0000
   172 H93      -1.3145   -2.0300   -4.1440   H         1 RES1   0.0000
   173 H94      -2.7026   -0.9966   -5.9179   H         1 RES1   0.0000
   174 H95      -1.2494   -0.4365   -6.7456   H         1 RES1   0.0000
   175 H96      -2.3718    0.4154   -4.0330   H         1 RES1   0.0000
   176 H97      -2.2653    1.4051   -5.5108   H         1 RES1   0.0000
   177 H98      -0.0076    1.4928   -6.4472   H         1 RES1   0.0000
   178 H99       1.3129    0.7812   -5.5419   H         1 RES1   0.0000
   179 H100      0.8541    2.4818   -5.2952   H         1 RES1   0.0000
   180 H101      1.0650    2.2633   -2.0197   H         1 RES1   0.0000
   181 H102      1.8635    1.5603   -3.5000   H         1 RES1   0.0000
   182 H103      2.5197   -0.7704   -3.3531   H         1 RES1   0.0000
   183 H104      0.8052   -1.2209   -2.9847   H         1 RES1   0.0000
   184 H105      4.2463   -1.4889   -3.0353   H         1 RES1   0.0000
   185 H106      4.3235   -3.2492   -3.2558   H         1 RES1   0.0000
   186 H107      5.2640   -2.4485   -1.9939   H         1 RES1   0.0000
   187 H108      3.5682   -4.6877   -1.5630   H         1 RES1   0.0000
   188 H109      2.4435   -4.1060   -0.3219   H         1 RES1   0.0000
   189 H110      4.3355   -3.1406    0.9457   H         1 RES1   0.0000
   190 H111      5.4756   -3.7111   -0.2705   H         1 RES1   0.0000
   191 H112      3.5982   -5.6433    1.0811   H         1 RES1   0.0000
   192 H113      5.0091   -5.0986    1.9434   H         1 RES1   0.0000
   193 H114      5.0752   -7.3304    0.8182   H         1 RES1   0.0000
   194 H115      6.0032   -7.3649   -1.5082   H         1 RES1   0.0000
   195 H116      5.4606   -5.7227   -1.7202   H         1 RES1   0.0000
   196 H117      3.0860   -6.6308   -1.0244   H         1 RES1   0.0000
   197 H118      3.7976   -8.2229   -1.1562   H         1 RES1   0.0000
   198 H119      4.3475   -7.8741   -3.5041   H         1 RES1   0.0000
   199 H120      3.8492   -6.1868   -3.4309   H         1 RES1   0.0000
   200 H121      2.0096   -8.5927   -3.0543   H         1 RES1   0.0000
   201 H122      2.1058   -7.5797   -4.4975   H         1 RES1   0.0000
   202 H123      1.4900   -6.9037   -2.9846   H         1 RES1   0.0000
   203 H124      7.4094   -7.2369    0.1865   H         1 RES1   0.0000
   204 H125      7.0285   -6.6361    1.7817   H         1 RES1   0.0000
   205 H126      7.5270   -4.6889   -0.4960   H         1 RES1   0.0000
   206 H127      8.8350   -5.4737    0.3616   H         1 RES1   0.0000
   207 H128      7.9987   -4.6124    2.5235   H         1 RES1   0.0000
   208 H129      6.7071   -3.7537    1.6873   H         1 RES1   0.0000
   209 H130      8.3748   -2.4056    0.4579   H         1 RES1   0.0000
   210 H131      9.6818   -3.3083    1.2193   H         1 RES1   0.0000
   211 H132      9.4157   -1.1903    2.3617   H         1 RES1   0.0000
   212 H133      8.9809   -2.5045    3.4499   H         1 RES1   0.0000
   213 H134      6.9618   -0.8162    1.9034   H         1 RES1   0.0000
   214 H135      7.4106   -0.5714    3.6038   H         1 RES1   0.0000
   215 H136      6.5801   -2.0474    3.1167   H         1 RES1   0.0000
   216 C69      -9.1292   -2.6947   -4.0632   C.3       1 RES1   0.0000
   217 C70      -8.4728   -1.4205   -4.5867   C.3       1 RES1   0.0000
   218 C71      -8.1087   -1.5527   -6.0606   C.3       1 RES1   0.0000
   219 C72      -7.3453   -0.3581   -6.6337   C.3       1 RES1   0.0000
   220 C73      -5.8749   -0.2255   -6.1985   C.3       1 RES1   0.0000
   221 C74      -5.5021    0.9083   -5.2309   C.3       1 RES1   0.0000
   222 C75      -5.8176    0.9231   -3.7204   C.3       1 RES1   0.0000
   223 C76      -5.4942    2.3723   -3.2993   C.3       1 RES1   0.0000
   224 C77      -5.6210    2.7726   -1.8300   C.3       1 RES1   0.0000
   225 C78      -7.0351    2.6721   -1.2658   C.3       1 RES1   0.0000
   226 C79      -7.1078    3.1521    0.1823   C.3       1 RES1   0.0000
   227 C80      -4.9948   -0.0117   -2.8174   C.3       1 RES1   0.0000
   228 C81      -5.0972   -1.5130   -3.0670   C.3       1 RES1   0.0000
   229 C82      -4.0193   -2.2932   -2.3089   C.3       1 RES1   0.0000
   230 N5       -3.9922   -1.9534   -0.8907   N.am      1 RES1   0.0000
   231 C83      -5.1745   -2.2778   -0.1143   C.3       1 RES1   0.0000
   232 C84      -2.8964   -1.4557   -0.3436   C.2       1 RES1   0.0000
   233 O7       -1.7764   -1.4434   -0.8939   O.2       1 RES1   0.0000
   234 C85      -2.9895   -0.8225    1.0531   C.3       1 RES1   0.0000
   235 O8       -2.1763    0.3549    1.0621   O.3       1 RES1   0.0000
   236 C86      -2.8665    1.5962    1.0029   C.3       1 RES1   0.0000
   237 C87      -1.8897    2.6326    0.3989   C.2       1 RES1   0.0000
   238 O9       -0.7893    2.2258   -0.0150   O.2       1 RES1   0.0000
   239 N6       -2.3061    3.8933    0.3644   N.am      1 RES1   0.0000
   240 C88      -3.5736    4.3436    0.9110   C.3       1 RES1   0.0000
   241 C89      -1.5678    4.9667   -0.3139   C.3       1 RES1   0.0000
   242 C90      -1.0977    6.0829    0.6314   C.3       1 RES1   0.0000
   243 C91      -0.4871    7.2885   -0.1085   C.3       1 RES1   0.0000
   244 C92      -1.3377    8.5575   -0.3596   C.3       1 RES1   0.0000
   245 C93      -2.7652    8.3132   -0.8684   C.3       1 RES1   0.0000
   246 C94      -2.8022    8.1552   -2.3858   C.3       1 RES1   0.0000
   247 C95      -4.2010    7.8695   -2.9241   C.3       1 RES1   0.0000
   248 C96      -4.2142    7.8014   -4.4501   C.3       1 RES1   0.0000
   249 C97      -1.3140    9.6059    0.7708   C.3       1 RES1   0.0000
   250 C98      -2.0630    9.3416    2.0830   C.3       1 RES1   0.0000
   251 C99      -1.2292    8.6508    3.1605   C.3       1 RES1   0.0000
   252 C100     -1.9627    8.6226    4.5012   C.3       1 RES1   0.0000
   253 C101     -1.1287    8.0484    5.6483   C.3       1 RES1   0.0000
   254 C102     -0.8222    6.5592    5.5011   C.3       1 RES1   0.0000
   255 H137     -9.3719   -2.6025   -3.0044   H         1 RES1   0.0000
   256 H138     -8.4656   -3.5510   -4.1918   H         1 RES1   0.0000
   257 H139    -10.0481   -2.8934   -4.6113   H         1 RES1   0.0000
   258 H140     -7.5726   -1.2128   -4.0091   H         1 RES1   0.0000
   259 H141     -9.1599   -0.5811   -4.4608   H         1 RES1   0.0000
   260 H142     -9.0306   -1.6753   -6.6329   H         1 RES1   0.0000
   261 H143     -7.5206   -2.4617   -6.2056   H         1 RES1   0.0000
   262 H144     -7.8969    0.5580   -6.4250   H         1 RES1   0.0000
   263 H145     -7.3522   -0.4844   -7.7163   H         1 RES1   0.0000
   264 H146     -5.2995    0.0035   -7.1004   H         1 RES1   0.0000
   265 H147     -5.5134   -1.1935   -5.8570   H         1 RES1   0.0000
   266 H148     -5.9566    1.8114   -5.6462   H         1 RES1   0.0000
   267 H149     -4.4244    1.0465   -5.3249   H         1 RES1   0.0000
   268 H150     -6.8789    0.7291   -3.5671   H         1 RES1   0.0000
   269 H151     -6.1242    3.0470   -3.8780   H         1 RES1   0.0000
   270 H152     -4.4578    2.5660   -3.5905   H         1 RES1   0.0000
   271 H153     -5.2990    3.8159   -1.7622   H         1 RES1   0.0000
   272 H154     -4.9305    2.1885   -1.2122   H         1 RES1   0.0000
   273 H155     -7.3974    1.6441   -1.3201   H         1 RES1   0.0000
   274 H156     -7.6989    3.2881   -1.8726   H         1 RES1   0.0000
   275 H157     -6.4671    2.5499    0.8321   H         1 RES1   0.0000
   276 H158     -8.1278    3.0788    0.5532   H         1 RES1   0.0000
   277 H159     -6.7955    4.1931    0.2575   H         1 RES1   0.0000
   278 H160     -5.3313    0.1687   -1.7939   H         1 RES1   0.0000
   279 H161     -3.9417    0.2813   -2.8648   H         1 RES1   0.0000
   280 H162     -4.9551   -1.7376   -4.1207   H         1 RES1   0.0000
   281 H163     -6.0862   -1.8711   -2.7822   H         1 RES1   0.0000
   282 H164     -3.0314   -2.0524   -2.7008   H         1 RES1   0.0000
   283 H165     -4.1878   -3.3662   -2.4241   H         1 RES1   0.0000
   284 H166     -5.8603   -2.8488   -0.7339   H         1 RES1   0.0000
   285 H167     -5.7191   -1.4010    0.2412   H         1 RES1   0.0000
   286 H168     -4.9090   -2.9036    0.7380   H         1 RES1   0.0000
   287 H169     -2.5214   -1.5195    1.7622   H         1 RES1   0.0000
   288 H170     -4.0087   -0.5874    1.3558   H         1 RES1   0.0000
   289 H171     -3.1639    1.8917    2.0207   H         1 RES1   0.0000
   290 H172     -3.7452    1.5403    0.3464   H         1 RES1   0.0000
   291 H173     -4.1918    3.5437    1.2983   H         1 RES1   0.0000
   292 H174     -4.1424    4.8568    0.1346   H         1 RES1   0.0000
   293 H175     -3.4024    5.0498    1.7251   H         1 RES1   0.0000
   294 H176     -2.2425    5.3878   -1.0645   H         1 RES1   0.0000
   295 H177     -0.7203    4.5081   -0.8236   H         1 RES1   0.0000
   296 H178     -0.3466    5.6585    1.3018   H         1 RES1   0.0000
   297 H179     -1.9284    6.4291    1.2388   H         1 RES1   0.0000
   298 H180     -0.1210    6.9372   -1.0738   H         1 RES1   0.0000
   299 H181      0.3853    7.6176    0.4555   H         1 RES1   0.0000
   300 H182     -0.8060    9.0688   -1.1716   H         1 RES1   0.0000
   301 H183     -3.3870    9.1679   -0.6001   H         1 RES1   0.0000
   302 H184     -3.2123    7.4392   -0.3947   H         1 RES1   0.0000
   303 H185     -2.1335    7.3502   -2.6888   H         1 RES1   0.0000
   304 H186     -2.4408    9.0734   -2.8490   H         1 RES1   0.0000
   305 H187     -4.8854    8.6556   -2.5988   H         1 RES1   0.0000
   306 H188     -4.5678    6.9196   -2.5224   H         1 RES1   0.0000
   307 H189     -3.8992    8.7538   -4.8725   H         1 RES1   0.0000
   308 H190     -5.2150    7.5796   -4.8203   H         1 RES1   0.0000
   309 H191     -3.5342    7.0290   -4.8127   H         1 RES1   0.0000
   310 H192     -1.7401   10.5102    0.3306   H         1 RES1   0.0000
   311 H193     -0.2750    9.8472    1.0047   H         1 RES1   0.0000
   312 H194     -2.9770    8.7745    1.8991   H         1 RES1   0.0000
   313 H195     -2.3706   10.3120    2.4789   H         1 RES1   0.0000
   314 H196     -0.2901    9.1915    3.2861   H         1 RES1   0.0000
   315 H197     -0.9902    7.6338    2.8506   H         1 RES1   0.0000
   316 H198     -2.8844    8.0437    4.4011   H         1 RES1   0.0000
   317 H199     -2.2461    9.6416    4.7702   H         1 RES1   0.0000
   318 H200     -1.6719    8.2000    6.5837   H         1 RES1   0.0000
   319 H201     -0.1895    8.6001    5.7246   H         1 RES1   0.0000
   320 H202     -1.7473    5.9850    5.4327   H         1 RES1   0.0000
   321 H203     -0.2625    6.2082    6.3674   H         1 RES1   0.0000
   322 H204     -0.2246    6.3709    4.6104   H         1 RES1   0.0000
@<TRIPOS>BOND
     1     1    19    1
     2     1    21    1
     3     1    24    1
     4     1   126    1
     5     1   128    1
     6     1   131    1
     7     1   233    1
     8     1   235    1
     9     1   238    1
    10     2     3    1
    11     2    41    1
    12     2    42    1
    13     2    43    1
    14     3     4    1
    15     3    44    1
    16     3    45    1
    17     4     5    1
    18     4    46    1
    19     4    47    1
    20     5     6    1
    21     5    48    1
    22     5    49    1
    23     6     7    1
    24     6    50    1
    25     6    51    1
    26     7     8    1
    27     7    52    1
    28     7    53    1
    29     8     9    1
    30     8    13    1
    31     8    54    1
    32     9    10    1
    33     9    55    1
    34     9    56    1
    35    10    11    1
    36    10    57    1
    37    10    58    1
    38    11    12    1
    39    11    59    1
    40    11    60    1
    41    12    61    1
    42    12    62    1
    43    12    63    1
    44    13    14    1
    45    13    64    1
    46    13    65    1
    47    14    15    1
    48    14    66    1
    49    14    67    1
    50    15    16    1
    51    15    68    1
    52    15    69    1
    53    16    17    1
    54    16    18    1
    55    17    70    1
    56    17    71    1
    57    17    72    1
    58    18    19    2
    59    18    20    1
    60    20    21    1
    61    20    73    1
    62    20    74    1
    63    21    22    1
    64    22    23    1
    65    22    75    1
    66    22    76    1
    67    23    24    2
    68    23    25    1
    69    25    26    1
    70    25    27    1
    71    26    77    1
    72    26    78    1
    73    26    79    1
    74    27    28    1
    75    27    80    1
    76    27    81    1
    77    28    29    1
    78    28    82    1
    79    28    83    1
    80    29    30    1
    81    29    84    1
    82    29    85    1
    83    30    31    1
    84    30    35    1
    85    30    86    1
    86    31    32    1
    87    31    87    1
    88    31    88    1
    89    32    33    1
    90    32    89    1
    91    32    90    1
    92    33    34    1
    93    33    91    1
    94    33    92    1
    95    34    93    1
    96    34    94    1
    97    34    95    1
    98    35    36    1
    99    35    96    1
   100    35    97    1
   101    36    37    1
   102    36    98    1
   103    36    99    1
   104    37    38    1
   105    37   100    1
   106    37   101    1
   107    38    39    1
   108    38   102    1
   109    38   103    1
   110    39    40    1
   111    39   104    1
   112    39   105    1
   113    40   106    1
   114    40   107    1
   115    40   108    1
   116   109   110    1
   117   109   148    1
   118   109   149    1
   119   109   150    1
   120   110   111    1
   121   110   151    1
   122   110   152    1
   123   111   112    1
   124   111   153    1
   125   111   154    1
   126   112   113    1
   127   112   155    1
   128   112   156    1
   129   113   114    1
   130   113   157    1
   131   113   158    1
   132   114   115    1
   133   114   159    1
   134   114   160    1
   135   115   116    1
   136   115   120    1
   137   115   161    1
   138   116   117    1
   139   116   162    1
   140   116   163    1
   141   117   118    1
   142   117   164    1
   143   117   165    1
   144   118   119    1
   145   118   166    1
   146   118   167    1
   147   119   168    1
   148   119   169    1
   149   119   170    1
   150   120   121    1
   151   120   171    1
   152   120   172    1
   153   121   122    1
   154   121   173    1
   155   121   174    1
   156   122   123    1
   157   122   175    1
   158   122   176    1
   159   123   124    1
   160   123   125    1
   161   124   177    1
   162   124   178    1
   163   124   179    1
   164   125   126    2
   165   125   127    1
   166   127   128    1
   167   127   180    1
   168   127   181    1
   169   128   129    1
   170   129   130    1
   171   129   182    1
   172   129   183    1
   173   130   131    2
   174   130   132    1
   175   132   133    1
   176   132   134    1
   177   133   184    1
   178   133   185    1
   179   133   186    1
   180   134   135    1
   181   134   187    1
   182   134   188    1
   183   135   136    1
   184   135   189    1
   185   135   190    1
   186   136   137    1
   187   136   191    1
   188   136   192    1
   189   137   138    1
   190   137   142    1
   191   137   193    1
   192   138   139    1
   193   138   194    1
   194   138   195    1
   195   139   140    1
   196   139   196    1
   197   139   197    1
   198   140   141    1
   199   140   198    1
   200   140   199    1
   201   141   200    1
   202   141   201    1
   203   141   202    1
   204   142   143    1
   205   142   203    1
   206   142   204    1
   207   143   144    1
   208   143   205    1
   209   143   206    1
   210   144   145    1
   211   144   207    1
   212   144   208    1
   213   145   146    1
   214   145   209    1
   215   145   210    1
   216   146   147    1
   217   146   211    1
   218   146   212    1
   219   147   213    1
   220   147   214    1
   221   147   215    1
   222   216   217    1
   223   216   255    1
   224   216   256    1
   225   216   257    1
   226   217   218    1
   227   217   258    1
   228   217   259    1
   229   218   219    1
   230   218   260    1
   231   218   261    1
   232   219   220    1
   233   219   262    1
   234   219   263    1
   235   220   221    1
   236   220   264    1
   237   220   265    1
   238   221   222    1
   239   221   266    1
   240   221   267    1
   241   222   223    1
   242   222   227    1
   243   222   268    1
   244   223   224    1
   245   223   269    1
   246   223   270    1
   247   224   225    1
   248   224   271    1
   249   224   272    1
   250   225   226    1
   251   225   273    1
   252   225   274    1
   253   226   275    1
   254   226   276    1
   255   226   277    1
   256   227   228    1
   257   227   278    1
   258   227   279    1
   259   228   229    1
   260   228   280    1
   261   228   281    1
   262   229   230    1
   263   229   282    1
   264   229   283    1
   265   230   231    1
   266   230   232    1
   267   231   284    1
   268   231   285    1
   269   231   286    1
   270   232   233    2
   271   232   234    1
   272   234   235    1
   273   234   287    1
   274   234   288    1
   275   235   236    1
   276   236   237    1
   277   236   289    1
   278   236   290    1
   279   237   238    2
   280   237   239    1
   281   239   240    1
   282   239   241    1
   283   240   291    1
   284   240   292    1
   285   240   293    1
   286   241   242    1
   287   241   294    1
   288   241   295    1
   289   242   243    1
   290   242   296    1
   291   242   297    1
   292   243   244    1
   293   243   298    1
   294   243   299    1
   295   244   245    1
   296   244   249    1
   297   244   300    1
   298   245   246    1
   299   245   301    1
   300   245   302    1
   301   246   247    1
   302   246   303    1
   303   246   304    1
   304   247   248    1
   305   247   305    1
   306   247   306    1
   307   248   307    1
   308   248   308    1
   309   248   309    1
   310   249   250    1
   311   249   310    1
   312   249   311    1
   313   250   251    1
   314   250   312    1
   315   250   313    1
   316   251   252    1
   317   251   314    1
   318   251   315    1
   319   252   253    1
   320   252   316    1
   321   252   317    1
   322   253   254    1
   323   253   318    1
   324   253   319    1
   325   254   320    1
   326   254   321    1
   327   254   322    1
@<TRIPOS>SUBSTRUCTURE
     1 RES1      322 GROUP             0 ****  ****    0  
