@<TRIPOS>MOLECULE
am_c3_9H2O_c0_0_nunpairedes_0_charge_3 Charge: 3 Unpaired_Electrons: 3 XTB_Unpaired_Electrons: 0 XTB_Charge: 3
   286   291     1     0     0
SMALL
NoCharges
****
Generated from Architector

@<TRIPOS>ATOM
     1 Nd1       0.0355    0.0136   -0.0157   Nd        1 RES1   0.0000
     2 C1        0.5648    8.6781   -2.8611   C.3       1 RES1   0.0000
     3 C2        0.9635    7.2045   -2.8737   C.3       1 RES1   0.0000
     4 C3        1.1277    6.7333   -4.3179   C.3       1 RES1   0.0000
     5 C4       -0.0861    6.3247   -2.1751   C.3       1 RES1   0.0000
     6 C5       -0.3154    6.6197   -0.6873   C.3       1 RES1   0.0000
     7 C6        0.8780    6.2244    0.1869   C.3       1 RES1   0.0000
     8 C7        0.8452    6.7729    1.6251   C.3       1 RES1   0.0000
     9 C8        1.0692    8.2823    1.6518   C.3       1 RES1   0.0000
    10 C9       -0.4394    6.4110    2.3833   C.3       1 RES1   0.0000
    11 C10      -0.6345    4.9004    2.5294   C.3       1 RES1   0.0000
    12 C11      -1.7254    4.5400    3.5389   C.3       1 RES1   0.0000
    13 C12      -1.8761    3.0244    3.7109   C.3       1 RES1   0.0000
    14 N1       -2.7062    2.4142    2.6836   N.am      1 RES1   0.0000
    15 C13      -4.1311    2.6489    2.7783   C.3       1 RES1   0.0000
    16 C14      -2.1950    1.5839    1.7856   C.2       1 RES1   0.0000
    17 O1       -0.9808    1.3257    1.6842   O.2       1 RES1   0.0000
    18 C15      -3.2109    0.8994    0.8843   C.3       1 RES1   0.0000
    19 O2       -2.5767    0.0555   -0.0693   O.3       1 RES1   0.0000
    20 C16      -2.9762    0.3019   -1.4101   C.3       1 RES1   0.0000
    21 C17      -2.0798    1.3701   -2.0414   C.2       1 RES1   0.0000
    22 O3       -1.0037    1.6244   -1.4576   O.2       1 RES1   0.0000
    23 N2       -2.4335    1.9317   -3.1874   N.am      1 RES1   0.0000
    24 C18      -1.5059    2.8547   -3.8196   C.3       1 RES1   0.0000
    25 C19      -3.7268    1.7522   -3.8492   C.3       1 RES1   0.0000
    26 C20      -4.9521    2.2496   -3.0576   C.3       1 RES1   0.0000
    27 C21      -4.7212    3.5289   -2.2502   C.3       1 RES1   0.0000
    28 C22      -4.6954    4.7947   -3.1075   C.3       1 RES1   0.0000
    29 C23      -4.2369    6.0675   -2.3739   C.3       1 RES1   0.0000
    30 C24      -4.3034    7.2215   -3.3714   C.3       1 RES1   0.0000
    31 C25      -5.0892    6.4062   -1.1387   C.3       1 RES1   0.0000
    32 C26      -4.6333    5.7131    0.1517   C.3       1 RES1   0.0000
    33 C27      -5.4330    6.1091    1.4020   C.3       1 RES1   0.0000
    34 C28      -6.7065    5.2911    1.6751   C.3       1 RES1   0.0000
    35 C29      -7.2532    5.6962    3.0411   C.3       1 RES1   0.0000
    36 C30      -7.7942    5.4957    0.6248   C.3       1 RES1   0.0000
    37 H1        1.2872    9.2630   -3.4223   H         1 RES1   0.0000
    38 H2        0.5280    9.0788   -1.8523   H         1 RES1   0.0000
    39 H3       -0.4087    8.8104   -3.3265   H         1 RES1   0.0000
    40 H4        1.9288    7.0971   -2.3651   H         1 RES1   0.0000
    41 H5        0.1901    6.8426   -4.8571   H         1 RES1   0.0000
    42 H6        1.4374    5.6898   -4.3646   H         1 RES1   0.0000
    43 H7        1.8762    7.3317   -4.8258   H         1 RES1   0.0000
    44 H8        0.1950    5.2671   -2.2842   H         1 RES1   0.0000
    45 H9       -1.0343    6.4641   -2.7027   H         1 RES1   0.0000
    46 H10      -1.2013    6.0643   -0.3594   H         1 RES1   0.0000
    47 H11      -0.5317    7.6802   -0.5683   H         1 RES1   0.0000
    48 H12       1.7932    6.5967   -0.2774   H         1 RES1   0.0000
    49 H13       0.9457    5.1294    0.2116   H         1 RES1   0.0000
    50 H14       1.6871    6.3089    2.1572   H         1 RES1   0.0000
    51 H15       0.2498    8.8101    1.1760   H         1 RES1   0.0000
    52 H16       1.9921    8.5378    1.1405   H         1 RES1   0.0000
    53 H17       1.1461    8.6320    2.6764   H         1 RES1   0.0000
    54 H18      -1.3033    6.8521    1.8845   H         1 RES1   0.0000
    55 H19      -0.3821    6.8506    3.3813   H         1 RES1   0.0000
    56 H20       0.3094    4.4667    2.8802   H         1 RES1   0.0000
    57 H21      -0.8745    4.4588    1.5578   H         1 RES1   0.0000
    58 H22      -2.6760    4.9735    3.2226   H         1 RES1   0.0000
    59 H23      -1.4702    4.9717    4.5099   H         1 RES1   0.0000
    60 H24      -2.3417    2.7991    4.6749   H         1 RES1   0.0000
    61 H25      -0.8922    2.5511    3.6722   H         1 RES1   0.0000
    62 H26      -4.3384    3.3162    3.6082   H         1 RES1   0.0000
    63 H27      -4.6582    1.7122    2.9559   H         1 RES1   0.0000
    64 H28      -4.5270    3.1197    1.8786   H         1 RES1   0.0000
    65 H29      -3.8307    1.6562    0.3984   H         1 RES1   0.0000
    66 H30      -3.8571    0.2786    1.5207   H         1 RES1   0.0000
    67 H31      -4.0341    0.5627   -1.4484   H         1 RES1   0.0000
    68 H32      -2.8085   -0.6379   -1.9534   H         1 RES1   0.0000
    69 H33      -0.5490    2.8159   -3.3016   H         1 RES1   0.0000
    70 H34      -1.8940    3.8706   -3.7737   H         1 RES1   0.0000
    71 H35      -1.3634    2.5600   -4.8569   H         1 RES1   0.0000
    72 H36      -3.8654    0.6975   -4.1113   H         1 RES1   0.0000
    73 H37      -3.6567    2.3128   -4.7800   H         1 RES1   0.0000
    74 H38      -5.3204    1.4723   -2.3837   H         1 RES1   0.0000
    75 H39      -5.7530    2.4284   -3.7742   H         1 RES1   0.0000
    76 H40      -3.7840    3.4464   -1.6890   H         1 RES1   0.0000
    77 H41      -5.5482    3.6096   -1.5424   H         1 RES1   0.0000
    78 H42      -5.6989    4.9582   -3.5065   H         1 RES1   0.0000
    79 H43      -4.0314    4.6433   -3.9629   H         1 RES1   0.0000
    80 H44      -3.1958    5.9340   -2.0491   H         1 RES1   0.0000
    81 H45      -5.3303    7.3705   -3.6896   H         1 RES1   0.0000
    82 H46      -3.7037    7.0126   -4.2520   H         1 RES1   0.0000
    83 H47      -3.9463    8.1434   -2.9269   H         1 RES1   0.0000
    84 H48      -6.1305    6.1766   -1.3557   H         1 RES1   0.0000
    85 H49      -5.0357    7.4833   -0.9652   H         1 RES1   0.0000
    86 H50      -3.5805    5.9758    0.3117   H         1 RES1   0.0000
    87 H51      -4.6840    4.6276    0.0460   H         1 RES1   0.0000
    88 H52      -5.6946    7.1666    1.3417   H         1 RES1   0.0000
    89 H53      -4.7757    5.9949    2.2719   H         1 RES1   0.0000
    90 H54      -6.4474    4.2214    1.7011   H         1 RES1   0.0000
    91 H55      -7.5132    6.7502    3.0309   H         1 RES1   0.0000
    92 H56      -6.5217    5.5301    3.8281   H         1 RES1   0.0000
    93 H57      -8.1472    5.1303    3.2786   H         1 RES1   0.0000
    94 H58      -7.9880    6.5560    0.4946   H         1 RES1   0.0000
    95 H59      -8.7172    5.0230    0.9504   H         1 RES1   0.0000
    96 H60      -7.5215    5.0655   -0.3353   H         1 RES1   0.0000
    97 C31      -2.9932   -5.1075    6.7896   C.3       1 RES1   0.0000
    98 C32      -3.2375   -3.7981    7.5397   C.3       1 RES1   0.0000
    99 C33      -4.6378   -3.2855    7.2134   C.3       1 RES1   0.0000
   100 C34      -2.1522   -2.7799    7.1617   C.3       1 RES1   0.0000
   101 C35      -2.1826   -1.4903    7.9934   C.3       1 RES1   0.0000
   102 C36      -0.8994   -0.6476    7.9094   C.3       1 RES1   0.0000
   103 C37      -0.7594    0.3444    6.7320   C.3       1 RES1   0.0000
   104 C38      -1.1326   -0.2928    5.3939   C.3       1 RES1   0.0000
   105 C39       0.6978    0.8445    6.7449   C.3       1 RES1   0.0000
   106 C40       1.1210    1.7094    5.5558   C.3       1 RES1   0.0000
   107 C41       2.6418    1.9032    5.5289   C.3       1 RES1   0.0000
   108 C42       3.2192    1.9872    4.1118   C.3       1 RES1   0.0000
   109 N3        2.7924    0.8693    3.2781   N.am      1 RES1   0.0000
   110 C43       3.0286   -0.4747    3.7880   C.3       1 RES1   0.0000
   111 C44       2.1841    0.9697    2.1060   C.2       1 RES1   0.0000
   112 O4        1.7683   -0.0411    1.5037   O.2       1 RES1   0.0000
   113 C45       1.9889    2.3458    1.4562   C.3       1 RES1   0.0000
   114 O5        1.2367    2.2177    0.2526   O.3       1 RES1   0.0000
   115 C46       1.8635    2.6303   -0.9545   C.3       1 RES1   0.0000
   116 C47       2.3680    1.4159   -1.7554   C.2       1 RES1   0.0000
   117 O6        2.0208    0.2835   -1.3698   O.2       1 RES1   0.0000
   118 N4        3.1382    1.6334   -2.8119   N.am      1 RES1   0.0000
   119 C48       3.5053    2.9621   -3.2664   C.3       1 RES1   0.0000
   120 C49       3.8723    0.5263   -3.4460   C.3       1 RES1   0.0000
   121 C50       3.1061   -0.2729   -4.5150   C.3       1 RES1   0.0000
   122 C51       2.5301   -1.6004   -4.0023   C.3       1 RES1   0.0000
   123 C52       3.5193   -2.7769   -3.9369   C.3       1 RES1   0.0000
   124 C53       4.6604   -2.7327   -2.9062   C.3       1 RES1   0.0000
   125 C54       5.4988   -4.0023   -3.0691   C.3       1 RES1   0.0000
   126 C55       4.1180   -2.6314   -1.4711   C.3       1 RES1   0.0000
   127 C56       5.1719   -2.3162   -0.4022   C.3       1 RES1   0.0000
   128 C57       5.7399   -0.9028   -0.5329   C.3       1 RES1   0.0000
   129 C58       6.7516   -0.5167    0.5537   C.3       1 RES1   0.0000
   130 C59       7.3214    0.8623    0.2306   C.3       1 RES1   0.0000
   131 C60       6.1254   -0.4999    1.9463   C.3       1 RES1   0.0000
   132 H61      -3.7128   -5.8599    7.0942   H         1 RES1   0.0000
   133 H62      -3.1065   -4.9548    5.7170   H         1 RES1   0.0000
   134 H63      -1.9976   -5.4970    6.9875   H         1 RES1   0.0000
   135 H64      -3.1739   -3.9937    8.6135   H         1 RES1   0.0000
   136 H65      -4.7164   -3.0482    6.1528   H         1 RES1   0.0000
   137 H66      -5.3736   -4.0502    7.4449   H         1 RES1   0.0000
   138 H67      -4.8842   -2.3976    7.7875   H         1 RES1   0.0000
   139 H68      -1.1744   -3.2554    7.2934   H         1 RES1   0.0000
   140 H69      -2.2737   -2.5527    6.1029   H         1 RES1   0.0000
   141 H70      -3.0437   -0.8785    7.7195   H         1 RES1   0.0000
   142 H71      -2.3076   -1.7833    9.0379   H         1 RES1   0.0000
   143 H72      -0.8151   -0.0571    8.8246   H         1 RES1   0.0000
   144 H73      -0.0482   -1.3351    7.9040   H         1 RES1   0.0000
   145 H74      -1.4336    1.1942    6.8984   H         1 RES1   0.0000
   146 H75      -0.4924   -1.1522    5.2090   H         1 RES1   0.0000
   147 H76      -2.1664   -0.6225    5.4253   H         1 RES1   0.0000
   148 H77      -1.0354    0.4019    4.5601   H         1 RES1   0.0000
   149 H78       0.8650    1.4083    7.6640   H         1 RES1   0.0000
   150 H79       1.3516   -0.0310    6.7868   H         1 RES1   0.0000
   151 H80       0.8141    1.2235    4.6286   H         1 RES1   0.0000
   152 H81       0.6134    2.6725    5.6154   H         1 RES1   0.0000
   153 H82       2.9126    2.8199    6.0448   H         1 RES1   0.0000
   154 H83       3.1219    1.0901    6.0705   H         1 RES1   0.0000
   155 H84       2.9157    2.9230    3.6466   H         1 RES1   0.0000
   156 H85       4.3116    1.9685    4.1501   H         1 RES1   0.0000
   157 H86       3.7202   -0.4231    4.6208   H         1 RES1   0.0000
   158 H87       2.0940   -0.9292    4.1203   H         1 RES1   0.0000
   159 H88       3.4661   -1.1000    3.0076   H         1 RES1   0.0000
   160 H89       1.4018    2.9933    2.1234   H         1 RES1   0.0000
   161 H90       2.9668    2.8090    1.2806   H         1 RES1   0.0000
   162 H91       1.0773    3.1383   -1.5289   H         1 RES1   0.0000
   163 H92       2.6792    3.3247   -0.7371   H         1 RES1   0.0000
   164 H93       2.8826    3.7418   -2.8396   H         1 RES1   0.0000
   165 H94       4.5444    3.1634   -3.0032   H         1 RES1   0.0000
   166 H95       3.4112    3.0053   -4.3499   H         1 RES1   0.0000
   167 H96       4.7594    0.9680   -3.9019   H         1 RES1   0.0000
   168 H97       4.1800   -0.1498   -2.6487   H         1 RES1   0.0000
   169 H98       2.2927    0.3454   -4.9039   H         1 RES1   0.0000
   170 H99       3.7779   -0.4806   -5.3513   H         1 RES1   0.0000
   171 H100      2.0707   -1.4223   -3.0282   H         1 RES1   0.0000
   172 H101      1.7389   -1.9020   -4.6960   H         1 RES1   0.0000
   173 H102      2.9428   -3.6883   -3.7413   H         1 RES1   0.0000
   174 H103      3.9666   -2.9006   -4.9251   H         1 RES1   0.0000
   175 H104      5.3038   -1.8767   -3.1254   H         1 RES1   0.0000
   176 H105      4.9098   -4.8849   -2.8294   H         1 RES1   0.0000
   177 H106      5.8583   -4.0954   -4.0891   H         1 RES1   0.0000
   178 H107      6.3667   -3.9896   -2.4193   H         1 RES1   0.0000
   179 H108      3.3395   -1.8634   -1.3995   H         1 RES1   0.0000
   180 H109      3.6627   -3.5953   -1.2184   H         1 RES1   0.0000
   181 H110      4.6899   -2.4209    0.5740   H         1 RES1   0.0000
   182 H111      5.9850   -3.0422   -0.4477   H         1 RES1   0.0000
   183 H112      6.2464   -0.8171   -1.4974   H         1 RES1   0.0000
   184 H113      4.9107   -0.1828   -0.5151   H         1 RES1   0.0000
   185 H114      7.5649   -1.2484    0.5446   H         1 RES1   0.0000
   186 H115      6.5262    1.6065    0.2178   H         1 RES1   0.0000
   187 H116      8.0520    1.1572    0.9754   H         1 RES1   0.0000
   188 H117      7.8108    0.8624   -0.7388   H         1 RES1   0.0000
   189 H118      5.2714    0.1772    1.9624   H         1 RES1   0.0000
   190 H119      5.8027   -1.4926    2.2502   H         1 RES1   0.0000
   191 H120      6.8530   -0.1520    2.6734   H         1 RES1   0.0000
   192 C61      -8.1549   -3.2422   -2.9868   C.3       1 RES1   0.0000
   193 C62      -7.1073   -2.1340   -3.0626   C.3       1 RES1   0.0000
   194 C63      -6.8785   -1.7476   -4.5230   C.3       1 RES1   0.0000
   195 C64      -5.7684   -2.5722   -2.4465   C.3       1 RES1   0.0000
   196 C65      -5.8011   -2.8812   -0.9438   C.3       1 RES1   0.0000
   197 C66      -5.9193   -1.6262   -0.0752   C.3       1 RES1   0.0000
   198 C67      -6.2166   -1.8877    1.4127   C.3       1 RES1   0.0000
   199 C68      -7.6714   -2.3118    1.6036   C.3       1 RES1   0.0000
   200 C69      -5.3034   -2.9354    2.0639   C.3       1 RES1   0.0000
   201 C70      -3.8185   -2.5733    2.1706   C.3       1 RES1   0.0000
   202 C71      -3.0742   -3.6761    2.9333   C.3       1 RES1   0.0000
   203 C72      -1.6949   -3.2654    3.4651   C.3       1 RES1   0.0000
   204 N5       -0.5576   -3.5805    2.6066   N.am      1 RES1   0.0000
   205 C73       0.2448   -4.7506    2.9093   C.3       1 RES1   0.0000
   206 C74      -0.1836   -2.7093    1.6853   C.2       1 RES1   0.0000
   207 O7       -0.8398   -1.6949    1.3793   O.2       1 RES1   0.0000
   208 C75       1.1581   -2.9107    0.9754   C.3       1 RES1   0.0000
   209 O8        1.0986   -2.2872   -0.2972   O.3       1 RES1   0.0000
   210 C76       0.6214   -3.1640   -1.3122   C.3       1 RES1   0.0000
   211 C77      -0.2698   -2.3735   -2.2546   C.2       1 RES1   0.0000
   212 O9       -0.6038   -1.2191   -1.9158   O.2       1 RES1   0.0000
   213 N6       -0.6984   -2.9439   -3.3696   N.am      1 RES1   0.0000
   214 C78      -1.5636   -2.1839   -4.2542   C.3       1 RES1   0.0000
   215 C79      -0.2675   -4.2351   -3.9086   C.3       1 RES1   0.0000
   216 C80      -0.3085   -5.4565   -2.9867   C.3       1 RES1   0.0000
   217 C81      -1.5962   -5.5992   -2.1717   C.3       1 RES1   0.0000
   218 C82      -2.7682   -6.1338   -2.9919   C.3       1 RES1   0.0000
   219 C83      -4.0575   -6.3741   -2.1870   C.3       1 RES1   0.0000
   220 C84      -5.0827   -6.9899   -3.1343   C.3       1 RES1   0.0000
   221 C85      -3.8532   -7.2918   -0.9681   C.3       1 RES1   0.0000
   222 C86      -3.5142   -6.5379    0.3248   C.3       1 RES1   0.0000
   223 C87      -3.2333   -7.4507    1.5286   C.3       1 RES1   0.0000
   224 C88      -1.7729   -7.9007    1.6993   C.3       1 RES1   0.0000
   225 C89      -1.6155   -8.5352    3.0791   C.3       1 RES1   0.0000
   226 C90      -1.3240   -8.9073    0.6430   C.3       1 RES1   0.0000
   227 H121     -9.0620   -2.9303   -3.4955   H         1 RES1   0.0000
   228 H122     -8.4191   -3.4818   -1.9607   H         1 RES1   0.0000
   229 H123     -7.7897   -4.1437   -3.4726   H         1 RES1   0.0000
   230 H124     -7.4852   -1.2551   -2.5276   H         1 RES1   0.0000
   231 H125     -6.5060   -2.6018   -5.0831   H         1 RES1   0.0000
   232 H126     -6.1625   -0.9314   -4.6111   H         1 RES1   0.0000
   233 H127     -7.8091   -1.4300   -4.9802   H         1 RES1   0.0000
   234 H128     -5.0130   -1.7948   -2.6299   H         1 RES1   0.0000
   235 H129     -5.4416   -3.4731   -2.9751   H         1 RES1   0.0000
   236 H130     -4.8769   -3.4062   -0.6794   H         1 RES1   0.0000
   237 H131     -6.6341   -3.5531   -0.7424   H         1 RES1   0.0000
   238 H132     -6.7301   -1.0045   -0.4617   H         1 RES1   0.0000
   239 H133     -4.9905   -1.0547   -0.1683   H         1 RES1   0.0000
   240 H134     -6.0790   -0.9330    1.9413   H         1 RES1   0.0000
   241 H135     -7.8592   -3.2660    1.1233   H         1 RES1   0.0000
   242 H136     -8.3461   -1.5738    1.1818   H         1 RES1   0.0000
   243 H137     -7.9013   -2.4140    2.6592   H         1 RES1   0.0000
   244 H138     -5.4025   -3.8812    1.5297   H         1 RES1   0.0000
   245 H139     -5.6764   -3.0999    3.0775   H         1 RES1   0.0000
   246 H140     -3.7097   -1.6349    2.7256   H         1 RES1   0.0000
   247 H141     -3.3761   -2.4289    1.1812   H         1 RES1   0.0000
   248 H142     -2.9824   -4.5635    2.3078   H         1 RES1   0.0000
   249 H143     -3.6849   -3.9482    3.7995   H         1 RES1   0.0000
   250 H144     -1.5102   -3.7769    4.4098   H         1 RES1   0.0000
   251 H145     -1.6873   -2.1835    3.6277   H         1 RES1   0.0000
   252 H146     -0.2438   -5.3301    3.6853   H         1 RES1   0.0000
   253 H147      1.2324   -4.4525    3.2608   H         1 RES1   0.0000
   254 H148      0.3566   -5.3988    2.0391   H         1 RES1   0.0000
   255 H149      1.4614   -3.9541    0.8727   H         1 RES1   0.0000
   256 H150      1.9120   -2.3478    1.5405   H         1 RES1   0.0000
   257 H151      0.0174   -3.9641   -0.8719   H         1 RES1   0.0000
   258 H152      1.4703   -3.5946   -1.8593   H         1 RES1   0.0000
   259 H153     -1.6962   -1.1710   -3.8792   H         1 RES1   0.0000
   260 H154     -2.5327   -2.6756   -4.3265   H         1 RES1   0.0000
   261 H155     -1.1103   -2.1299   -5.2413   H         1 RES1   0.0000
   262 H156      0.7438   -4.1200   -4.3107   H         1 RES1   0.0000
   263 H157     -0.9358   -4.4307   -4.7450   H         1 RES1   0.0000
   264 H158      0.5582   -5.4808   -2.3256   H         1 RES1   0.0000
   265 H159     -0.2158   -6.3287   -3.6358   H         1 RES1   0.0000
   266 H160     -1.8827   -4.6386   -1.7299   H         1 RES1   0.0000
   267 H161     -1.3863   -6.3088   -1.3719   H         1 RES1   0.0000
   268 H162     -2.4619   -7.0740   -3.4566   H         1 RES1   0.0000
   269 H163     -2.9964   -5.4309   -3.7979   H         1 RES1   0.0000
   270 H164     -4.4396   -5.4094   -1.8300   H         1 RES1   0.0000
   271 H165     -4.7270   -7.9539   -3.4839   H         1 RES1   0.0000
   272 H166     -5.2452   -6.3542   -3.9991   H         1 RES1   0.0000
   273 H167     -6.0333   -7.1348   -2.6346   H         1 RES1   0.0000
   274 H168     -3.0934   -8.0365   -1.2000   H         1 RES1   0.0000
   275 H169     -4.7788   -7.8408   -0.7841   H         1 RES1   0.0000
   276 H170     -4.3732   -5.8992    0.5602   H         1 RES1   0.0000
   277 H171     -2.6544   -5.8783    0.1791   H         1 RES1   0.0000
   278 H172     -3.8729   -8.3321    1.4670   H         1 RES1   0.0000
   279 H173     -3.5209   -6.9121    2.4380   H         1 RES1   0.0000
   280 H174     -1.1247   -7.0128    1.6373   H         1 RES1   0.0000
   281 H175     -2.2586   -9.4069    3.1510   H         1 RES1   0.0000
   282 H176     -1.8903   -7.8425    3.8707   H         1 RES1   0.0000
   283 H177     -0.5924   -8.8592    3.2411   H         1 RES1   0.0000
   284 H178     -2.0137   -9.7455    0.6197   H         1 RES1   0.0000
   285 H179     -0.3373   -9.2943    0.8865   H         1 RES1   0.0000
   286 H180     -1.2740   -8.4694   -0.3505   H         1 RES1   0.0000
@<TRIPOS>BOND
     1     1    17    1
     2     1    19    1
     3     1    22    1
     4     1   112    1
     5     1   114    1
     6     1   117    1
     7     1   207    1
     8     1   209    1
     9     1   212    1
    10     2     3    1
    11     2    37    1
    12     2    38    1
    13     2    39    1
    14     3     4    1
    15     3     5    1
    16     3    40    1
    17     4    41    1
    18     4    42    1
    19     4    43    1
    20     5     6    1
    21     5    44    1
    22     5    45    1
    23     6     7    1
    24     6    46    1
    25     6    47    1
    26     7     8    1
    27     7    48    1
    28     7    49    1
    29     8     9    1
    30     8    10    1
    31     8    50    1
    32     9    51    1
    33     9    52    1
    34     9    53    1
    35    10    11    1
    36    10    54    1
    37    10    55    1
    38    11    12    1
    39    11    56    1
    40    11    57    1
    41    12    13    1
    42    12    58    1
    43    12    59    1
    44    13    14    1
    45    13    60    1
    46    13    61    1
    47    14    15    1
    48    14    16    1
    49    15    62    1
    50    15    63    1
    51    15    64    1
    52    16    17    2
    53    16    18    1
    54    18    19    1
    55    18    65    1
    56    18    66    1
    57    19    20    1
    58    20    21    1
    59    20    67    1
    60    20    68    1
    61    21    22    2
    62    21    23    1
    63    23    24    1
    64    23    25    1
    65    24    69    1
    66    24    70    1
    67    24    71    1
    68    25    26    1
    69    25    72    1
    70    25    73    1
    71    26    27    1
    72    26    74    1
    73    26    75    1
    74    27    28    1
    75    27    76    1
    76    27    77    1
    77    28    29    1
    78    28    78    1
    79    28    79    1
    80    29    30    1
    81    29    31    1
    82    29    80    1
    83    30    81    1
    84    30    82    1
    85    30    83    1
    86    31    32    1
    87    31    84    1
    88    31    85    1
    89    32    33    1
    90    32    86    1
    91    32    87    1
    92    33    34    1
    93    33    88    1
    94    33    89    1
    95    34    35    1
    96    34    36    1
    97    34    90    1
    98    35    91    1
    99    35    92    1
   100    35    93    1
   101    36    94    1
   102    36    95    1
   103    36    96    1
   104    97    98    1
   105    97   132    1
   106    97   133    1
   107    97   134    1
   108    98    99    1
   109    98   100    1
   110    98   135    1
   111    99   136    1
   112    99   137    1
   113    99   138    1
   114   100   101    1
   115   100   139    1
   116   100   140    1
   117   101   102    1
   118   101   141    1
   119   101   142    1
   120   102   103    1
   121   102   143    1
   122   102   144    1
   123   103   104    1
   124   103   105    1
   125   103   145    1
   126   104   146    1
   127   104   147    1
   128   104   148    1
   129   105   106    1
   130   105   149    1
   131   105   150    1
   132   106   107    1
   133   106   151    1
   134   106   152    1
   135   107   108    1
   136   107   153    1
   137   107   154    1
   138   108   109    1
   139   108   155    1
   140   108   156    1
   141   109   110    1
   142   109   111    1
   143   110   157    1
   144   110   158    1
   145   110   159    1
   146   111   112    2
   147   111   113    1
   148   113   114    1
   149   113   160    1
   150   113   161    1
   151   114   115    1
   152   115   116    1
   153   115   162    1
   154   115   163    1
   155   116   117    2
   156   116   118    1
   157   118   119    1
   158   118   120    1
   159   119   164    1
   160   119   165    1
   161   119   166    1
   162   120   121    1
   163   120   167    1
   164   120   168    1
   165   121   122    1
   166   121   169    1
   167   121   170    1
   168   122   123    1
   169   122   171    1
   170   122   172    1
   171   123   124    1
   172   123   173    1
   173   123   174    1
   174   124   125    1
   175   124   126    1
   176   124   175    1
   177   125   176    1
   178   125   177    1
   179   125   178    1
   180   126   127    1
   181   126   179    1
   182   126   180    1
   183   127   128    1
   184   127   181    1
   185   127   182    1
   186   128   129    1
   187   128   183    1
   188   128   184    1
   189   129   130    1
   190   129   131    1
   191   129   185    1
   192   130   186    1
   193   130   187    1
   194   130   188    1
   195   131   189    1
   196   131   190    1
   197   131   191    1
   198   192   193    1
   199   192   227    1
   200   192   228    1
   201   192   229    1
   202   193   194    1
   203   193   195    1
   204   193   230    1
   205   194   231    1
   206   194   232    1
   207   194   233    1
   208   195   196    1
   209   195   234    1
   210   195   235    1
   211   196   197    1
   212   196   236    1
   213   196   237    1
   214   197   198    1
   215   197   238    1
   216   197   239    1
   217   198   199    1
   218   198   200    1
   219   198   240    1
   220   199   241    1
   221   199   242    1
   222   199   243    1
   223   200   201    1
   224   200   244    1
   225   200   245    1
   226   201   202    1
   227   201   246    1
   228   201   247    1
   229   202   203    1
   230   202   248    1
   231   202   249    1
   232   203   204    1
   233   203   250    1
   234   203   251    1
   235   204   205    1
   236   204   206    1
   237   205   252    1
   238   205   253    1
   239   205   254    1
   240   206   207    2
   241   206   208    1
   242   208   209    1
   243   208   255    1
   244   208   256    1
   245   209   210    1
   246   210   211    1
   247   210   257    1
   248   210   258    1
   249   211   212    2
   250   211   213    1
   251   213   214    1
   252   213   215    1
   253   214   259    1
   254   214   260    1
   255   214   261    1
   256   215   216    1
   257   215   262    1
   258   215   263    1
   259   216   217    1
   260   216   264    1
   261   216   265    1
   262   217   218    1
   263   217   266    1
   264   217   267    1
   265   218   219    1
   266   218   268    1
   267   218   269    1
   268   219   220    1
   269   219   221    1
   270   219   270    1
   271   220   271    1
   272   220   272    1
   273   220   273    1
   274   221   222    1
   275   221   274    1
   276   221   275    1
   277   222   223    1
   278   222   276    1
   279   222   277    1
   280   223   224    1
   281   223   278    1
   282   223   279    1
   283   224   225    1
   284   224   226    1
   285   224   280    1
   286   225   281    1
   287   225   282    1
   288   225   283    1
   289   226   284    1
   290   226   285    1
   291   226   286    1
@<TRIPOS>SUBSTRUCTURE
     1 RES1      286 GROUP             0 ****  ****    0  
