@<TRIPOS>MOLECULE
ICIGOT_geomtry_0_nunpairedes_0_charge_1 Charge: 1 Unpaired_Electrons: 6 XTB_Unpaired_Electrons: 0 XTB_Charge: 1
    93   103     1     0     0
SMALL
NoCharges
****
Generated from Architector

@<TRIPOS>ATOM
     1 Eu1      -0.3999    0.0985   -0.0750   Eu        1 RES1   0.0000
     2 C1        3.8607   -5.3119   -0.3875   C.3       1 RES1   0.0000
     3 C2        3.0130   -4.0825   -0.3138   C.ar      1 RES1   0.0000
     4 C3        3.0287   -3.2203    0.7789   C.ar      1 RES1   0.0000
     5 C4        2.2300   -2.0700    0.8077   C.ar      1 RES1   0.0000
     6 C5        2.2288   -1.1003    1.9509   C.ar      1 RES1   0.0000
     7 C6        3.0150   -1.2635    3.0954   C.ar      1 RES1   0.0000
     8 C7        2.9787   -0.3333    4.1318   C.ar      1 RES1   0.0000
     9 C8        3.8356   -0.4410    5.3492   C.3       1 RES1   0.0000
    10 C9        2.1079    0.7438    3.9913   C.ar      1 RES1   0.0000
    11 C10       1.3562    0.8543    2.8289   C.ar      1 RES1   0.0000
    12 C11       0.4070    1.9701    2.6058   C.ar      1 RES1   0.0000
    13 N1       -0.2708    1.9048    1.4591   N.ar      1 RES1   0.0000
    14 N2       -1.1545    2.8294    1.1721   N.ar      1 RES1   0.0000
    15 C12      -1.3574    3.8471    1.9916   C.ar      1 RES1   0.0000
    16 C13      -0.5955    3.9277    3.1871   C.ar      1 RES1   0.0000
    17 N3        0.2631    2.9606    3.4828   N.ar      1 RES1   0.0000
    18 C14      -0.7373    5.0780    4.1398   C.3       1 RES1   0.0000
    19 C15      -1.5093    4.5798    5.3691   C.3       1 RES1   0.0000
    20 C16       0.6445    5.5709    4.5816   C.3       1 RES1   0.0000
    21 C17      -1.4880    6.2475    3.4928   C.3       1 RES1   0.0000
    22 C18      -2.7191    5.8088    2.7204   C.3       1 RES1   0.0000
    23 C19      -2.3671    4.8752    1.5594   C.3       1 RES1   0.0000
    24 C20      -1.7664    5.6807    0.3974   C.3       1 RES1   0.0000
    25 C21      -3.6515    4.2046    1.0576   C.3       1 RES1   0.0000
    26 N4        1.4315   -0.0336    1.8253   N.ar      1 RES1   0.0000
    27 N5        1.4118   -1.7814   -0.2152   N.ar      1 RES1   0.0000
    28 C22       1.3951   -2.5977   -1.2844   C.ar      1 RES1   0.0000
    29 C23       0.5037   -2.1802   -2.3947   C.ar      1 RES1   0.0000
    30 N6       -0.1436   -1.0346   -2.1853   N.ar      1 RES1   0.0000
    31 N7       -0.9417   -0.5610   -3.1092   N.ar      1 RES1   0.0000
    32 C24      -1.1080   -1.2065   -4.2528   C.ar      1 RES1   0.0000
    33 C25      -0.4143   -2.4282   -4.4622   C.ar      1 RES1   0.0000
    34 N8        0.3914   -2.8937   -3.5142   N.ar      1 RES1   0.0000
    35 C26      -0.5315   -3.1975   -5.7477   C.3       1 RES1   0.0000
    36 C27       0.7666   -2.9815   -6.5384   C.3       1 RES1   0.0000
    37 C28      -0.6954   -4.6899   -5.4490   C.3       1 RES1   0.0000
    38 C29      -1.7315   -2.7248   -6.5760   C.3       1 RES1   0.0000
    39 C30      -1.8441   -1.2127   -6.6451   C.3       1 RES1   0.0000
    40 C31      -2.0415   -0.5846   -5.2617   C.3       1 RES1   0.0000
    41 C32      -1.7898    0.9245   -5.3754   C.3       1 RES1   0.0000
    42 C33      -3.4926   -0.7863   -4.7988   C.3       1 RES1   0.0000
    43 C34       2.1722   -3.7422   -1.3716   C.ar      1 RES1   0.0000
    44 H1        4.4711   -5.4509    0.5003   H         1 RES1   0.0000
    45 H2        4.5268   -5.2633   -1.2495   H         1 RES1   0.0000
    46 H3        3.2432   -6.2010   -0.5188   H         1 RES1   0.0000
    47 H4        3.6729   -3.4670    1.6045   H         1 RES1   0.0000
    48 H5        3.6635   -2.1151    3.1971   H         1 RES1   0.0000
    49 H6        4.4728   -1.3173    5.3217   H         1 RES1   0.0000
    50 H7        3.2293   -0.4823    6.2525   H         1 RES1   0.0000
    51 H8        4.4713    0.4383    5.4454   H         1 RES1   0.0000
    52 H9        2.0212    1.4829    4.7696   H         1 RES1   0.0000
    53 H10      -0.9703    3.7685    5.8479   H         1 RES1   0.0000
    54 H11      -2.4960    4.2231    5.0880   H         1 RES1   0.0000
    55 H12      -1.6224    5.4030    6.0709   H         1 RES1   0.0000
    56 H13       1.2040    4.7771    5.0658   H         1 RES1   0.0000
    57 H14       0.5194    6.3975    5.2778   H         1 RES1   0.0000
    58 H15       1.2145    5.9240    3.7245   H         1 RES1   0.0000
    59 H16      -0.8063    6.7678    2.8200   H         1 RES1   0.0000
    60 H17      -1.7840    6.9415    4.2809   H         1 RES1   0.0000
    61 H18      -3.2272    6.6892    2.3236   H         1 RES1   0.0000
    62 H19      -3.4127    5.2945    3.3853   H         1 RES1   0.0000
    63 H20      -0.8457    6.1771    0.6904   H         1 RES1   0.0000
    64 H21      -2.4842    6.4386    0.0917   H         1 RES1   0.0000
    65 H22      -1.5570    5.0356   -0.4509   H         1 RES1   0.0000
    66 H23      -4.1197    3.6157    1.8441   H         1 RES1   0.0000
    67 H24      -3.4532    3.5589    0.2069   H         1 RES1   0.0000
    68 H25      -4.3504    4.9808    0.7508   H         1 RES1   0.0000
    69 H26       1.6176   -3.3343   -5.9644   H         1 RES1   0.0000
    70 H27       0.9146   -1.9299   -6.7669   H         1 RES1   0.0000
    71 H28       0.7083   -3.5346   -7.4726   H         1 RES1   0.0000
    72 H29       0.1497   -5.0594   -4.8773   H         1 RES1   0.0000
    73 H30      -0.7652   -5.2390   -6.3855   H         1 RES1   0.0000
    74 H31      -1.6044   -4.8603   -4.8759   H         1 RES1   0.0000
    75 H32      -2.6399   -3.1349   -6.1358   H         1 RES1   0.0000
    76 H33      -1.6347   -3.1263   -7.5860   H         1 RES1   0.0000
    77 H34      -2.6891   -0.9430   -7.2823   H         1 RES1   0.0000
    78 H35      -0.9441   -0.7909   -7.0922   H         1 RES1   0.0000
    79 H36      -0.7708    1.1274   -5.6975   H         1 RES1   0.0000
    80 H37      -1.9609    1.4337   -4.4323   H         1 RES1   0.0000
    81 H38      -2.4700    1.3373   -6.1185   H         1 RES1   0.0000
    82 H39      -3.7430   -1.8390   -4.7043   H         1 RES1   0.0000
    83 H40      -4.1627   -0.3423   -5.5330   H         1 RES1   0.0000
    84 H41      -3.6548   -0.3012   -3.8415   H         1 RES1   0.0000
    85 H42       2.1020   -4.3480   -2.2589   H         1 RES1   0.0000
    86 N9       -2.1332   -1.2554    1.0945   N.3       1 RES1   0.0000
    87 O1       -3.0805   -1.7130    1.6455   O.2       1 RES1   0.0000
    88 O2       -1.1912   -0.7657    1.7401   O.co2     1 RES1   0.0000
    89 O3       -2.0281   -1.2668   -0.1406   O.co2     1 RES1   0.0000
    90 N10      -0.6068    2.0514   -1.5888   N.3       1 RES1   0.0000
    91 O4       -0.6769    3.0178   -2.2809   O.2       1 RES1   0.0000
    92 O5       -1.6171    1.4834   -1.1549   O.co2     1 RES1   0.0000
    93 O6        0.5050    1.5816   -1.2674   O.co2     1 RES1   0.0000
@<TRIPOS>BOND
     1     1    13    1
     2     1    26    1
     3     1    27    1
     4     1    30    1
     5     1    88    1
     6     1    89    1
     7     1    92    1
     8     1    93    1
     9     2     3    1
    10     2    44    1
    11     2    45    1
    12     2    46    1
    13     3     4    1
    14     3    43    2
    15     4     5    2
    16     4    47    1
    17     5     6    1
    18     5    27    1
    19     6     7    1
    20     6    26    2
    21     7     8    2
    22     7    48    1
    23     8     9    1
    24     8    10    1
    25     9    49    1
    26     9    50    1
    27     9    51    1
    28    10    11    2
    29    10    52    1
    30    11    12    1
    31    11    26    1
    32    12    13    1
    33    12    17    2
    34    13    14    2
    35    14    15    1
    36    15    16    2
    37    15    23    1
    38    16    17    1
    39    16    18    1
    40    18    19    1
    41    18    20    1
    42    18    21    1
    43    19    53    1
    44    19    54    1
    45    19    55    1
    46    20    56    1
    47    20    57    1
    48    20    58    1
    49    21    22    1
    50    21    59    1
    51    21    60    1
    52    22    23    1
    53    22    61    1
    54    22    62    1
    55    23    24    1
    56    23    25    1
    57    24    63    1
    58    24    64    1
    59    24    65    1
    60    25    66    1
    61    25    67    1
    62    25    68    1
    63    27    28    2
    64    28    29    1
    65    28    43    1
    66    29    30    1
    67    29    34    2
    68    30    31    2
    69    31    32    1
    70    32    33    2
    71    32    40    1
    72    33    34    1
    73    33    35    1
    74    35    36    1
    75    35    37    1
    76    35    38    1
    77    36    69    1
    78    36    70    1
    79    36    71    1
    80    37    72    1
    81    37    73    1
    82    37    74    1
    83    38    39    1
    84    38    75    1
    85    38    76    1
    86    39    40    1
    87    39    77    1
    88    39    78    1
    89    40    41    1
    90    40    42    1
    91    41    79    1
    92    41    80    1
    93    41    81    1
    94    42    82    1
    95    42    83    1
    96    42    84    1
    97    43    85    1
    98    86    87    2
    99    86    88    1
   100    86    89    1
   101    90    91    2
   102    90    92    1
   103    90    93    1
@<TRIPOS>SUBSTRUCTURE
     1 RES1       93 GROUP             0 ****  ****    0  
