@<TRIPOS>MOLECULE
ICIGOT_geomtry_0_nunpairedes_0_charge_1 Charge: 1 Unpaired_Electrons: 6 XTB_Unpaired_Electrons: 0 XTB_Charge: 1
    77    87     1     0     0
SMALL
NoCharges
****
Generated from Architector

@<TRIPOS>ATOM
     1 Eu1      -0.3925    0.0469   -0.0815   Eu        1 RES1   0.0000
     2 C1       -3.1295    5.0427    1.4727   C.3       1 RES1   0.0000
     3 C2       -1.6587    5.2457    1.8309   C.3       1 RES1   0.0000
     4 C3       -0.9309    6.0545    0.7573   C.3       1 RES1   0.0000
     5 S1       -1.5673    6.1838    3.4284   S.3       1 RES1   0.0000
     6 C4       -0.6106    4.9131    4.3638   C.3       1 RES1   0.0000
     7 C5        0.7640    5.4844    4.7177   C.3       1 RES1   0.0000
     8 C6       -1.3987    4.5052    5.6051   C.3       1 RES1   0.0000
     9 C7       -0.4544    3.7771    3.4174   C.ar      1 RES1   0.0000
    10 N1        0.1803    2.6684    3.7409   N.ar      1 RES1   0.0000
    11 C8        0.3075    1.7658    2.7663   C.ar      1 RES1   0.0000
    12 C9        1.1250    0.5627    3.0049   C.ar      1 RES1   0.0000
    13 C10       1.6568    0.2868    4.2612   C.ar      1 RES1   0.0000
    14 C11       2.4997   -0.8009    4.3896   C.ar      1 RES1   0.0000
    15 C12       2.7817   -1.5689    3.2745   C.ar      1 RES1   0.0000
    16 C13       2.1942   -1.2404    2.0495   C.ar      1 RES1   0.0000
    17 C14       2.4527   -1.9801    0.7917   C.ar      1 RES1   0.0000
    18 C15       3.5077   -2.8836    0.6637   C.ar      1 RES1   0.0000
    19 C16       3.7549   -3.4793   -0.5591   C.ar      1 RES1   0.0000
    20 C17       2.9192   -3.1883   -1.6205   C.ar      1 RES1   0.0000
    21 C18       1.8513   -2.3231   -1.4043   C.ar      1 RES1   0.0000
    22 C19       0.8623   -2.0572   -2.4619   C.ar      1 RES1   0.0000
    23 N2       -0.0165   -1.0905   -2.2116   N.ar      1 RES1   0.0000
    24 N3       -1.0319   -0.8980   -3.0264   N.ar      1 RES1   0.0000
    25 C20      -1.1351   -1.6654   -4.0961   C.ar      1 RES1   0.0000
    26 C21      -0.1071   -2.5811   -4.4150   C.ar      1 RES1   0.0000
    27 N4        0.8875   -2.7886   -3.5766   N.ar      1 RES1   0.0000
    28 C22      -0.2272   -3.3161   -5.7004   C.3       1 RES1   0.0000
    29 C23       0.9211   -2.9894   -6.6529   C.3       1 RES1   0.0000
    30 C24      -0.3283   -4.8152   -5.4190   C.3       1 RES1   0.0000
    31 S2       -1.8122   -2.7237   -6.4374   S.3       1 RES1   0.0000
    32 C25      -2.2806   -1.5912   -5.0439   C.3       1 RES1   0.0000
    33 C26      -2.4596   -0.1840   -5.6062   C.3       1 RES1   0.0000
    34 C27      -3.5708   -2.1093   -4.4074   C.3       1 RES1   0.0000
    35 N5        1.6298   -1.7144   -0.2314   N.ar      1 RES1   0.0000
    36 N6        1.3774   -0.1895    1.9285   N.ar      1 RES1   0.0000
    37 N7       -0.1983    1.8983    1.5408   N.ar      1 RES1   0.0000
    38 N8       -0.8557    2.9920    1.2172   N.ar      1 RES1   0.0000
    39 C28      -0.9773    3.9515    2.1162   C.ar      1 RES1   0.0000
    40 H1       -3.5988    6.0145    1.3403   H         1 RES1   0.0000
    41 H2       -3.6500    4.5185    2.2711   H         1 RES1   0.0000
    42 H3       -3.2307    4.4762    0.5505   H         1 RES1   0.0000
    43 H4       -1.4328    7.0123    0.6441   H         1 RES1   0.0000
    44 H5       -0.9399    5.5406   -0.2007   H         1 RES1   0.0000
    45 H6        0.1007    6.2415    1.0477   H         1 RES1   0.0000
    46 H7        0.6369    6.3436    5.3710   H         1 RES1   0.0000
    47 H8        1.2820    5.8078    3.8172   H         1 RES1   0.0000
    48 H9        1.3709    4.7359    5.2210   H         1 RES1   0.0000
    49 H10      -1.5199    5.3679    6.2553   H         1 RES1   0.0000
    50 H11      -0.8783    3.7183    6.1449   H         1 RES1   0.0000
    51 H12      -2.3841    4.1448    5.3189   H         1 RES1   0.0000
    52 H13       1.4023    0.9226    5.0917   H         1 RES1   0.0000
    53 H14       2.9531   -1.0401    5.3402   H         1 RES1   0.0000
    54 H15       3.4455   -2.4091    3.3818   H         1 RES1   0.0000
    55 H16       4.1326   -3.1150    1.5078   H         1 RES1   0.0000
    56 H17       4.5809   -4.1619   -0.6896   H         1 RES1   0.0000
    57 H18       3.0654   -3.6182   -2.5964   H         1 RES1   0.0000
    58 H19       1.8768   -3.2756   -6.2203   H         1 RES1   0.0000
    59 H20       0.9385   -1.9244   -6.8730   H         1 RES1   0.0000
    60 H21       0.7748   -3.5311   -7.5836   H         1 RES1   0.0000
    61 H22       0.5749   -5.1721   -4.9300   H         1 RES1   0.0000
    62 H23      -0.4677   -5.3468   -6.3561   H         1 RES1   0.0000
    63 H24      -1.1795   -5.0167   -4.7725   H         1 RES1   0.0000
    64 H25      -1.5497    0.1454   -6.1026   H         1 RES1   0.0000
    65 H26      -2.7078    0.5239   -4.8197   H         1 RES1   0.0000
    66 H27      -3.2640   -0.1990   -6.3368   H         1 RES1   0.0000
    67 H28      -3.4516   -3.1339   -4.0621   H         1 RES1   0.0000
    68 H29      -4.3633   -2.0908   -5.1517   H         1 RES1   0.0000
    69 H30      -3.8652   -1.4880   -3.5652   H         1 RES1   0.0000
    70 N9       -2.2398   -1.2485    0.9351   N.3       1 RES1   0.0000
    71 O1       -3.2927   -1.6072    1.3458   O.2       1 RES1   0.0000
    72 O2       -1.4522   -0.5999    1.6489   O.co2     1 RES1   0.0000
    73 O3       -1.8491   -1.5240   -0.2113   O.co2     1 RES1   0.0000
    74 N10      -1.0062    1.9490   -1.5561   N.3       1 RES1   0.0000
    75 O4       -1.2808    2.8469   -2.2825   O.2       1 RES1   0.0000
    76 O5        0.1809    1.5919   -1.3952   O.co2     1 RES1   0.0000
    77 O6       -1.8688    1.3251   -0.9165   O.co2     1 RES1   0.0000
@<TRIPOS>BOND
     1     1    23    1
     2     1    35    1
     3     1    36    1
     4     1    37    1
     5     1    72    1
     6     1    73    1
     7     1    76    1
     8     1    77    1
     9     2     3    1
    10     2    40    1
    11     2    41    1
    12     2    42    1
    13     3     4    1
    14     3     5    1
    15     3    39    1
    16     4    43    1
    17     4    44    1
    18     4    45    1
    19     5     6    1
    20     6     7    1
    21     6     8    1
    22     6     9    1
    23     7    46    1
    24     7    47    1
    25     7    48    1
    26     8    49    1
    27     8    50    1
    28     8    51    1
    29     9    10    1
    30     9    39    2
    31    10    11    2
    32    11    12    1
    33    11    37    1
    34    12    13    1
    35    12    36    2
    36    13    14    2
    37    13    52    1
    38    14    15    1
    39    14    53    1
    40    15    16    2
    41    15    54    1
    42    16    17    1
    43    16    36    1
    44    17    18    1
    45    17    35    2
    46    18    19    2
    47    18    55    1
    48    19    20    1
    49    19    56    1
    50    20    21    2
    51    20    57    1
    52    21    22    1
    53    21    35    1
    54    22    23    1
    55    22    27    2
    56    23    24    2
    57    24    25    1
    58    25    26    2
    59    25    32    1
    60    26    27    1
    61    26    28    1
    62    28    29    1
    63    28    30    1
    64    28    31    1
    65    29    58    1
    66    29    59    1
    67    29    60    1
    68    30    61    1
    69    30    62    1
    70    30    63    1
    71    31    32    1
    72    32    33    1
    73    32    34    1
    74    33    64    1
    75    33    65    1
    76    33    66    1
    77    34    67    1
    78    34    68    1
    79    34    69    1
    80    37    38    2
    81    38    39    1
    82    70    71    2
    83    70    72    1
    84    70    73    1
    85    74    75    2
    86    74    76    1
    87    74    77    1
@<TRIPOS>SUBSTRUCTURE
     1 RES1       77 GROUP             0 ****  ****    0  
