@<TRIPOS>MOLECULE
ICIGOT_geomtry_0_nunpairedes_0_charge_1 Charge: 1 Unpaired_Electrons: 6 XTB_Unpaired_Electrons: 0 XTB_Charge: 1
    77    87     1     0     0
SMALL
NoCharges
****
Generated from Architector

@<TRIPOS>ATOM
     1 Eu1      -0.3999    0.0544   -0.0501   Eu        1 RES1   0.0000
     2 C1        1.4349    1.8922   -5.4251   C.3       1 RES1   0.0000
     3 C2        0.7848    0.5086   -5.5512   C.3       1 RES1   0.0000
     4 C3       -0.6722    0.6400   -6.0169   C.3       1 RES1   0.0000
     5 O1        1.5013   -0.3019   -6.4814   O.3       1 RES1   0.0000
     6 C4        2.0467   -1.4870   -5.9033   C.3       1 RES1   0.0000
     7 C5        1.5006   -2.7040   -6.6536   C.3       1 RES1   0.0000
     8 C6        3.5772   -1.4096   -6.0148   C.3       1 RES1   0.0000
     9 C7        1.5949   -1.4508   -4.4770   C.ar      1 RES1   0.0000
    10 N1        1.7872   -2.2975   -3.4877   N.ar      1 RES1   0.0000
    11 C8        1.3467   -1.8696   -2.2974   C.ar      1 RES1   0.0000
    12 C9        1.5457   -2.6773   -1.0762   C.ar      1 RES1   0.0000
    13 C10       2.0628   -3.9676   -1.0650   C.ar      1 RES1   0.0000
    14 C11       2.2588   -4.5806    0.1626   C.ar      1 RES1   0.0000
    15 C12       2.0040   -3.8777    1.3277   C.ar      1 RES1   0.0000
    16 C13       1.5398   -2.5654    1.2341   C.ar      1 RES1   0.0000
    17 C14       1.4872   -1.6126    2.3645   C.ar      1 RES1   0.0000
    18 C15       1.8669   -1.9244    3.6675   C.ar      1 RES1   0.0000
    19 C16       2.0131   -0.9027    4.5892   C.ar      1 RES1   0.0000
    20 C17       1.7948    0.4076    4.1967   C.ar      1 RES1   0.0000
    21 C18       1.3811    0.6334    2.8874   C.ar      1 RES1   0.0000
    22 C19       1.1980    1.9680    2.2926   C.ar      1 RES1   0.0000
    23 N2        0.7784    1.9474    1.0254   N.ar      1 RES1   0.0000
    24 N3        0.5795    3.0809    0.3733   N.ar      1 RES1   0.0000
    25 C20       0.8625    4.1927    1.0093   C.ar      1 RES1   0.0000
    26 C21       1.4041    4.1853    2.3148   C.ar      1 RES1   0.0000
    27 N4        1.5427    3.0626    2.9808   N.ar      1 RES1   0.0000
    28 C22       1.7728    5.5819    2.6889   C.3       1 RES1   0.0000
    29 C23       1.0737    6.0472    3.9703   C.3       1 RES1   0.0000
    30 C24       3.2984    5.7406    2.8087   C.3       1 RES1   0.0000
    31 O2        1.3201    6.3688    1.5894   O.3       1 RES1   0.0000
    32 C25       0.7468    5.5971    0.5337   C.3       1 RES1   0.0000
    33 C26       1.5369    5.8149   -0.7607   C.3       1 RES1   0.0000
    34 C27      -0.7211    6.0023    0.3469   C.3       1 RES1   0.0000
    35 N5        1.2173   -0.3564    2.0074   N.ar      1 RES1   0.0000
    36 N6        1.2748   -2.0115    0.0499   N.ar      1 RES1   0.0000
    37 N7        0.8318   -0.6610   -2.0609   N.ar      1 RES1   0.0000
    38 N8        0.6015    0.1720   -3.0575   N.ar      1 RES1   0.0000
    39 C28       0.9144   -0.2315   -4.2645   C.ar      1 RES1   0.0000
    40 H1        1.3782    2.4097   -6.3792   H         1 RES1   0.0000
    41 H2        0.9139    2.4711   -4.6658   H         1 RES1   0.0000
    42 H3        2.4837    1.7926   -5.1503   H         1 RES1   0.0000
    43 H4       -0.6919    1.1697   -6.9678   H         1 RES1   0.0000
    44 H5       -1.1145   -0.3426   -6.1706   H         1 RES1   0.0000
    45 H6       -1.2624    1.1931   -5.2914   H         1 RES1   0.0000
    46 H7        1.8070   -2.6373   -7.6949   H         1 RES1   0.0000
    47 H8        1.8844   -3.6211   -6.2178   H         1 RES1   0.0000
    48 H9        0.4137   -2.7068   -6.6101   H         1 RES1   0.0000
    49 H10       3.8376   -1.3744   -7.0701   H         1 RES1   0.0000
    50 H11       3.9457   -0.4996   -5.5443   H         1 RES1   0.0000
    51 H12       4.0525   -2.2702   -5.5549   H         1 RES1   0.0000
    52 H13       2.2880   -4.4566   -1.9952   H         1 RES1   0.0000
    53 H14       2.6508   -5.5839    0.2237   H         1 RES1   0.0000
    54 H15       2.1820   -4.3509    2.2766   H         1 RES1   0.0000
    55 H16       2.0490   -2.9425    3.9538   H         1 RES1   0.0000
    56 H17       2.3445   -1.1142    5.5929   H         1 RES1   0.0000
    57 H18       1.9487    1.2289    4.8746   H         1 RES1   0.0000
    58 H19       1.3759    5.4346    4.8153   H         1 RES1   0.0000
    59 H20       1.3430    7.0840    4.1581   H         1 RES1   0.0000
    60 H21      -0.0053    5.9860    3.8451   H         1 RES1   0.0000
    61 H22       3.7039    5.1185    3.6016   H         1 RES1   0.0000
    62 H23       3.7811    5.4829    1.8676   H         1 RES1   0.0000
    63 H24       3.5137    6.7842    3.0249   H         1 RES1   0.0000
    64 H25       2.5899    5.5857   -0.6071   H         1 RES1   0.0000
    65 H26       1.1417    5.1841   -1.5528   H         1 RES1   0.0000
    66 H27       1.4499    6.8581   -1.0520   H         1 RES1   0.0000
    67 H28      -1.2628    5.9184    1.2869   H         1 RES1   0.0000
    68 H29      -0.7596    7.0397    0.0239   H         1 RES1   0.0000
    69 H30      -1.2015    5.3771   -0.4009   H         1 RES1   0.0000
    70 N9       -2.1052   -1.5826    0.7811   N.3       1 RES1   0.0000
    71 O3       -3.0336   -2.2404    1.1169   O.2       1 RES1   0.0000
    72 O4       -1.5997   -1.6970   -0.3525   O.co2     1 RES1   0.0000
    73 O5       -1.5631   -0.7724    1.5586   O.co2     1 RES1   0.0000
    74 N10      -2.0810    1.6927   -1.0020   N.3       1 RES1   0.0000
    75 O6       -2.7234    2.5642   -1.4917   O.2       1 RES1   0.0000
    76 O7       -1.6037    0.7686   -1.6843   O.co2     1 RES1   0.0000
    77 O8       -1.8585    1.6486    0.2243   O.co2     1 RES1   0.0000
@<TRIPOS>BOND
     1     1    23    1
     2     1    35    1
     3     1    36    1
     4     1    37    1
     5     1    72    1
     6     1    73    1
     7     1    76    1
     8     1    77    1
     9     2     3    1
    10     2    40    1
    11     2    41    1
    12     2    42    1
    13     3     4    1
    14     3     5    1
    15     3    39    1
    16     4    43    1
    17     4    44    1
    18     4    45    1
    19     5     6    1
    20     6     7    1
    21     6     8    1
    22     6     9    1
    23     7    46    1
    24     7    47    1
    25     7    48    1
    26     8    49    1
    27     8    50    1
    28     8    51    1
    29     9    10    1
    30     9    39    2
    31    10    11    2
    32    11    12    1
    33    11    37    1
    34    12    13    1
    35    12    36    2
    36    13    14    2
    37    13    52    1
    38    14    15    1
    39    14    53    1
    40    15    16    2
    41    15    54    1
    42    16    17    1
    43    16    36    1
    44    17    18    1
    45    17    35    2
    46    18    19    2
    47    18    55    1
    48    19    20    1
    49    19    56    1
    50    20    21    2
    51    20    57    1
    52    21    22    1
    53    21    35    1
    54    22    23    1
    55    22    27    2
    56    23    24    2
    57    24    25    1
    58    25    26    2
    59    25    32    1
    60    26    27    1
    61    26    28    1
    62    28    29    1
    63    28    30    1
    64    28    31    1
    65    29    58    1
    66    29    59    1
    67    29    60    1
    68    30    61    1
    69    30    62    1
    70    30    63    1
    71    31    32    1
    72    32    33    1
    73    32    34    1
    74    33    64    1
    75    33    65    1
    76    33    66    1
    77    34    67    1
    78    34    68    1
    79    34    69    1
    80    37    38    2
    81    38    39    1
    82    70    71    2
    83    70    72    1
    84    70    73    1
    85    74    75    2
    86    74    76    1
    87    74    77    1
@<TRIPOS>SUBSTRUCTURE
     1 RES1       77 GROUP             0 ****  ****    0  
