@<TRIPOS>MOLECULE
cn9_YICLED_0_nunpairedes_0_charge_3 Charge: 3 Unpaired_Electrons: 2 XTB_Unpaired_Electrons: 0 XTB_Charge: 3
   430   435     1     0     0
SMALL
NoCharges
****
Generated from Architector

@<TRIPOS>ATOM
     1 Pr1       0.2873   -0.2360    0.1064   Pr        1 RES1   0.0000
     2 C1        7.2904    0.2793   -1.9305   C.3       1 RES1   0.0000
     3 C2        6.1564    0.6705   -2.8728   C.3       1 RES1   0.0000
     4 C3        6.4256    2.0345   -3.5061   C.3       1 RES1   0.0000
     5 C4        5.2382    2.6444   -4.2572   C.3       1 RES1   0.0000
     6 C5        4.9295    2.0380   -5.6303   C.3       1 RES1   0.0000
     7 C6        3.9780    0.8386   -5.6339   C.3       1 RES1   0.0000
     8 C7        2.5921    1.1056   -5.0240   C.3       1 RES1   0.0000
     9 C8        1.5643    0.1546   -5.6488   C.3       1 RES1   0.0000
    10 C9        0.3373   -0.1556   -4.7902   C.3       1 RES1   0.0000
    11 C10      -0.5132    1.0587   -4.4079   C.3       1 RES1   0.0000
    12 N1       -1.7246    0.5949   -3.7188   N.am      1 RES1   0.0000
    13 C11      -2.9948    0.7150   -4.4157   C.3       1 RES1   0.0000
    14 C12      -3.7201    2.0269   -4.0467   C.3       1 RES1   0.0000
    15 C13      -3.4563    3.1699   -5.0285   C.3       1 RES1   0.0000
    16 C14      -4.0585    4.5040   -4.5658   C.3       1 RES1   0.0000
    17 C15      -3.3230    5.1046   -3.3658   C.3       1 RES1   0.0000
    18 C16      -3.6295    6.5797   -3.0901   C.3       1 RES1   0.0000
    19 C17      -2.7976    7.0882   -1.9080   C.3       1 RES1   0.0000
    20 C18      -2.8618    8.6032   -1.7071   C.3       1 RES1   0.0000
    21 C19      -2.1849    9.0768   -0.4165   C.3       1 RES1   0.0000
    22 C20      -0.6984    8.7389   -0.3596   C.3       1 RES1   0.0000
    23 C21      -1.5522    0.1572   -2.4730   C.2       1 RES1   0.0000
    24 O1       -0.4773    0.3652   -1.8811   O.2       1 RES1   0.0000
    25 C22      -2.6176   -0.6785   -1.7366   C.3       1 RES1   0.0000
    26 C23      -3.8946    0.0867   -1.3933   C.3       1 RES1   0.0000
    27 O2       -1.9905   -1.1302   -0.5238   O.3       1 RES1   0.0000
    28 C24      -2.4921   -2.3599    0.0270   C.3       1 RES1   0.0000
    29 C25      -3.3757   -2.0489    1.2454   C.3       1 RES1   0.0000
    30 C26      -1.2965   -3.1778    0.5608   C.2       1 RES1   0.0000
    31 O3       -0.3458   -2.5091    1.0098   O.2       1 RES1   0.0000
    32 N2       -1.3379   -4.5153    0.6117   N.am      1 RES1   0.0000
    33 C27      -2.6194   -5.2391    0.5713   C.3       1 RES1   0.0000
    34 C28      -3.2128   -5.4250    1.9705   C.3       1 RES1   0.0000
    35 C29      -4.2201   -6.5733    2.0437   C.3       1 RES1   0.0000
    36 C30      -5.5557   -6.3360    1.3465   C.3       1 RES1   0.0000
    37 C31      -6.4924   -5.3695    2.0862   C.3       1 RES1   0.0000
    38 C32      -7.9269   -5.8941    1.9941   C.3       1 RES1   0.0000
    39 C33      -8.9892   -5.0374    2.6792   C.3       1 RES1   0.0000
    40 C34      -9.1412   -3.6675    2.0157   C.3       1 RES1   0.0000
    41 C35     -10.5400   -3.0664    2.1573   C.3       1 RES1   0.0000
    42 C36     -10.9339   -2.7841    3.6013   C.3       1 RES1   0.0000
    43 C37      -0.2736   -5.2786    1.3188   C.3       1 RES1   0.0000
    44 C38       1.1452   -5.5613    0.7648   C.3       1 RES1   0.0000
    45 C39       1.3190   -6.5766   -0.3762   C.3       1 RES1   0.0000
    46 C40       2.5100   -7.5446   -0.2214   C.3       1 RES1   0.0000
    47 C41       2.2180   -8.9691   -0.7233   C.3       1 RES1   0.0000
    48 C42       2.1035   -9.1877   -2.2369   C.3       1 RES1   0.0000
    49 C43       1.5073  -10.5781   -2.4840   C.3       1 RES1   0.0000
    50 C44       1.1965  -10.9236   -3.9448   C.3       1 RES1   0.0000
    51 C45      -0.1879  -10.5107   -4.4605   C.3       1 RES1   0.0000
    52 C46      -1.3158  -11.4054   -3.9574   C.3       1 RES1   0.0000
    53 H1        7.1555   -0.7310   -1.5500   H         1 RES1   0.0000
    54 H2        7.3402    0.9623   -1.0847   H         1 RES1   0.0000
    55 H3        8.2433    0.3212   -2.4518   H         1 RES1   0.0000
    56 H4        5.2133    0.7042   -2.3173   H         1 RES1   0.0000
    57 H5        6.0612   -0.0845   -3.6535   H         1 RES1   0.0000
    58 H6        7.2716    1.9522   -4.1901   H         1 RES1   0.0000
    59 H7        6.7203    2.7264   -2.7101   H         1 RES1   0.0000
    60 H8        5.4700    3.7000   -4.4163   H         1 RES1   0.0000
    61 H9        4.3405    2.5900   -3.6364   H         1 RES1   0.0000
    62 H10       5.8671    1.7361   -6.1020   H         1 RES1   0.0000
    63 H11       4.4821    2.8183   -6.2532   H         1 RES1   0.0000
    64 H12       4.4301   -0.0116   -5.1190   H         1 RES1   0.0000
    65 H13       3.8420    0.5524   -6.6798   H         1 RES1   0.0000
    66 H14       2.3019    2.1412   -5.2145   H         1 RES1   0.0000
    67 H15       2.6249    0.9642   -3.9392   H         1 RES1   0.0000
    68 H16       2.0560   -0.8022   -5.8448   H         1 RES1   0.0000
    69 H17       1.2484    0.5642   -6.6102   H         1 RES1   0.0000
    70 H18       0.6564   -0.6503   -3.8677   H         1 RES1   0.0000
    71 H19      -0.2927   -0.8567   -5.3406   H         1 RES1   0.0000
    72 H20      -0.8010    1.6304   -5.2881   H         1 RES1   0.0000
    73 H21       0.0662    1.6978   -3.7406   H         1 RES1   0.0000
    74 H22      -3.6182   -0.1540   -4.2001   H         1 RES1   0.0000
    75 H23      -2.7800    0.7166   -5.4834   H         1 RES1   0.0000
    76 H24      -3.4011    2.3405   -3.0534   H         1 RES1   0.0000
    77 H25      -4.7963    1.8530   -4.0114   H         1 RES1   0.0000
    78 H26      -3.8991    2.9057   -5.9890   H         1 RES1   0.0000
    79 H27      -2.3806    3.2960   -5.1715   H         1 RES1   0.0000
    80 H28      -5.1135    4.3615   -4.3253   H         1 RES1   0.0000
    81 H29      -4.0058    5.2062   -5.3973   H         1 RES1   0.0000
    82 H30      -2.2485    5.0154   -3.5432   H         1 RES1   0.0000
    83 H31      -3.5689    4.5287   -2.4687   H         1 RES1   0.0000
    84 H32      -4.6912    6.7074   -2.8796   H         1 RES1   0.0000
    85 H33      -3.3980    7.1755   -3.9731   H         1 RES1   0.0000
    86 H34      -1.7529    6.8107   -2.0738   H         1 RES1   0.0000
    87 H35      -3.1403    6.5922   -0.9942   H         1 RES1   0.0000
    88 H36      -3.9035    8.9245   -1.6853   H         1 RES1   0.0000
    89 H37      -2.3830    9.0915   -2.5583   H         1 RES1   0.0000
    90 H38      -2.6980    8.6545    0.4520   H         1 RES1   0.0000
    91 H39      -2.2885   10.1607   -0.3552   H         1 RES1   0.0000
    92 H40      -0.5361    7.6627   -0.2876   H         1 RES1   0.0000
    93 H41      -0.2335    9.2068    0.5059   H         1 RES1   0.0000
    94 H42      -0.2002    9.1077   -1.2542   H         1 RES1   0.0000
    95 H43      -2.8358   -1.5402   -2.3868   H         1 RES1   0.0000
    96 H44      -3.6542    0.9577   -0.7877   H         1 RES1   0.0000
    97 H45      -4.5478   -0.5563   -0.8137   H         1 RES1   0.0000
    98 H46      -4.4430    0.3849   -2.2773   H         1 RES1   0.0000
    99 H47      -3.0466   -2.9002   -0.7437   H         1 RES1   0.0000
   100 H48      -4.2773   -2.6517    1.2522   H         1 RES1   0.0000
   101 H49      -2.8259   -2.1968    2.1712   H         1 RES1   0.0000
   102 H50      -3.6677   -1.0046    1.2152   H         1 RES1   0.0000
   103 H51      -2.4519   -6.2244    0.1468   H         1 RES1   0.0000
   104 H52      -3.3254   -4.7216   -0.0746   H         1 RES1   0.0000
   105 H53      -3.6827   -4.5006    2.2939   H         1 RES1   0.0000
   106 H54      -2.4100   -5.6630    2.6675   H         1 RES1   0.0000
   107 H55      -4.4111   -6.7862    3.0963   H         1 RES1   0.0000
   108 H56      -3.7755   -7.4726    1.6196   H         1 RES1   0.0000
   109 H57      -6.0513   -7.3064    1.2898   H         1 RES1   0.0000
   110 H58      -5.3929   -6.0074    0.3178   H         1 RES1   0.0000
   111 H59      -6.4190   -4.3635    1.6603   H         1 RES1   0.0000
   112 H60      -6.1968   -5.3114    3.1367   H         1 RES1   0.0000
   113 H61      -7.9496   -6.8910    2.4391   H         1 RES1   0.0000
   114 H62      -8.1908   -5.9979    0.9380   H         1 RES1   0.0000
   115 H63      -8.7597   -4.9230    3.7408   H         1 RES1   0.0000
   116 H64      -9.9363   -5.5752    2.6032   H         1 RES1   0.0000
   117 H65      -8.9387   -3.7818    0.9467   H         1 RES1   0.0000
   118 H66      -8.4056   -2.9733    2.4327   H         1 RES1   0.0000
   119 H67     -11.2642   -3.7511    1.7112   H         1 RES1   0.0000
   120 H68     -10.5805   -2.1376    1.5810   H         1 RES1   0.0000
   121 H69     -10.8947   -3.6969    4.1898   H         1 RES1   0.0000
   122 H70     -11.9469   -2.3917    3.6406   H         1 RES1   0.0000
   123 H71     -10.2655   -2.0502    4.0480   H         1 RES1   0.0000
   124 H72      -0.7130   -6.2471    1.5462   H         1 RES1   0.0000
   125 H73      -0.1087   -4.7597    2.2665   H         1 RES1   0.0000
   126 H74       1.6489   -5.9848    1.6396   H         1 RES1   0.0000
   127 H75       1.6521   -4.6348    0.5125   H         1 RES1   0.0000
   128 H76       1.3788   -6.0546   -1.3298   H         1 RES1   0.0000
   129 H77       0.4299   -7.1891   -0.4035   H         1 RES1   0.0000
   130 H78       2.7524   -7.6456    0.8367   H         1 RES1   0.0000
   131 H79       3.4030   -7.1741   -0.7252   H         1 RES1   0.0000
   132 H80       1.2957   -9.3260   -0.2633   H         1 RES1   0.0000
   133 H81       3.0109   -9.6317   -0.3672   H         1 RES1   0.0000
   134 H82       3.0894   -9.1270   -2.7012   H         1 RES1   0.0000
   135 H83       1.4837   -8.4203   -2.7009   H         1 RES1   0.0000
   136 H84       0.6003  -10.6928   -1.8886   H         1 RES1   0.0000
   137 H85       2.2242  -11.3057   -2.1027   H         1 RES1   0.0000
   138 H86       1.2668  -12.0068   -4.0587   H         1 RES1   0.0000
   139 H87       1.9608  -10.4748   -4.5827   H         1 RES1   0.0000
   140 H88      -0.1714  -10.5894   -5.5496   H         1 RES1   0.0000
   141 H89      -0.3988   -9.4685   -4.2126   H         1 RES1   0.0000
   142 H90      -1.1336  -12.4347   -4.2467   H         1 RES1   0.0000
   143 H91      -2.2597  -11.1040   -4.4025   H         1 RES1   0.0000
   144 H92      -1.4226  -11.3752   -2.8764   H         1 RES1   0.0000
   145 C47       3.0415   -2.6066    8.6495   C.3       1 RES1   0.0000
   146 C48       2.8742   -1.0999    8.4662   C.3       1 RES1   0.0000
   147 C49       1.6962   -0.5005    9.2381   C.3       1 RES1   0.0000
   148 C50       0.3505   -1.0857    8.8210   C.3       1 RES1   0.0000
   149 C51      -0.8577   -0.2700    9.2854   C.3       1 RES1   0.0000
   150 C52      -0.9788    1.1266    8.6719   C.3       1 RES1   0.0000
   151 C53      -1.1121    1.1772    7.1441   C.3       1 RES1   0.0000
   152 C54      -2.3604    0.4823    6.5772   C.3       1 RES1   0.0000
   153 C55      -3.0355    1.2327    5.4066   C.3       1 RES1   0.0000
   154 C56      -2.8736    0.6013    4.0069   C.3       1 RES1   0.0000
   155 N3       -2.8825    1.6144    2.9381   N.am      1 RES1   0.0000
   156 C57      -3.9998    2.5542    2.9743   C.3       1 RES1   0.0000
   157 C58      -5.1954    2.0803    2.1267   C.3       1 RES1   0.0000
   158 C59      -6.2926    1.3509    2.9071   C.3       1 RES1   0.0000
   159 C60      -7.3353    0.7548    1.9530   C.3       1 RES1   0.0000
   160 C61      -6.8691   -0.5425    1.2841   C.3       1 RES1   0.0000
   161 C62      -7.4831   -0.7377   -0.1021   C.3       1 RES1   0.0000
   162 C63      -6.9609   -1.9968   -0.7953   C.3       1 RES1   0.0000
   163 C64      -7.4600   -2.1112   -2.2376   C.3       1 RES1   0.0000
   164 C65      -6.7316   -3.1854   -3.0501   C.3       1 RES1   0.0000
   165 C66      -6.9778   -4.5962   -2.5253   C.3       1 RES1   0.0000
   166 C67      -1.9906    1.5302    1.9513   C.2       1 RES1   0.0000
   167 O4       -1.2424    0.5314    1.8221   O.2       1 RES1   0.0000
   168 C68      -1.6825    2.7539    1.0476   C.3       1 RES1   0.0000
   169 C69      -2.7800    3.4078    0.1940   C.3       1 RES1   0.0000
   170 O5       -0.6157    2.3032    0.2033   O.3       1 RES1   0.0000
   171 C70       0.1643    3.3410   -0.4081   C.3       1 RES1   0.0000
   172 C71      -0.4185    3.7883   -1.7551   C.3       1 RES1   0.0000
   173 C72       1.5631    2.7374   -0.6202   C.2       1 RES1   0.0000
   174 O6        1.6761    1.4951   -0.5963   O.2       1 RES1   0.0000
   175 N4        2.5980    3.5493   -0.8007   N.am      1 RES1   0.0000
   176 C73       2.5170    4.9634   -1.1383   C.3       1 RES1   0.0000
   177 C74       2.9482    5.2510   -2.5848   C.3       1 RES1   0.0000
   178 C75       2.9533    6.7549   -2.8850   C.3       1 RES1   0.0000
   179 C76       1.5896    7.3703   -3.2064   C.3       1 RES1   0.0000
   180 C77       1.0259    6.9687   -4.5767   C.3       1 RES1   0.0000
   181 C78       0.2362    8.1185   -5.2081   C.3       1 RES1   0.0000
   182 C79      -0.4059    7.7745   -6.5537   C.3       1 RES1   0.0000
   183 C80      -1.6440    6.8954   -6.4012   C.3       1 RES1   0.0000
   184 C81      -2.4665    6.7491   -7.6804   C.3       1 RES1   0.0000
   185 C82      -1.7423    5.9842   -8.7773   C.3       1 RES1   0.0000
   186 C83       3.9404    2.9888   -0.6510   C.3       1 RES1   0.0000
   187 C84       4.7362    3.6699    0.4647   C.3       1 RES1   0.0000
   188 C85       4.0167    3.6166    1.8108   C.3       1 RES1   0.0000
   189 C86       4.9222    3.9920    2.9888   C.3       1 RES1   0.0000
   190 C87       5.2612    5.4785    3.1155   C.3       1 RES1   0.0000
   191 C88       4.0864    6.3198    3.6133   C.3       1 RES1   0.0000
   192 C89       4.4776    7.7770    3.9003   C.3       1 RES1   0.0000
   193 C90       3.8666    8.7886    2.9300   C.3       1 RES1   0.0000
   194 C91       4.3871    8.6903    1.4950   C.3       1 RES1   0.0000
   195 C92       5.8488    9.0985    1.3623   C.3       1 RES1   0.0000
   196 H93       4.0459   -2.9170    8.3727   H         1 RES1   0.0000
   197 H94       2.3328   -3.1649    8.0388   H         1 RES1   0.0000
   198 H95       2.8873   -2.8774    9.6884   H         1 RES1   0.0000
   199 H96       2.7562   -0.8881    7.3976   H         1 RES1   0.0000
   200 H97       3.7825   -0.5933    8.7961   H         1 RES1   0.0000
   201 H98       1.7000    0.5774    9.0732   H         1 RES1   0.0000
   202 H99       1.8416   -0.6730   10.3052   H         1 RES1   0.0000
   203 H100      0.2602   -2.0853    9.2472   H         1 RES1   0.0000
   204 H101      0.3202   -1.1881    7.7342   H         1 RES1   0.0000
   205 H102     -0.8027   -0.1541   10.3699   H         1 RES1   0.0000
   206 H103     -1.7647   -0.8400    9.0627   H         1 RES1   0.0000
   207 H104     -0.1031    1.7173    8.9474   H         1 RES1   0.0000
   208 H105     -1.8448    1.6263    9.1130   H         1 RES1   0.0000
   209 H106     -0.2186    0.7467    6.6952   H         1 RES1   0.0000
   210 H107     -1.1386    2.2335    6.8725   H         1 RES1   0.0000
   211 H108     -3.0928    0.4176    7.3798   H         1 RES1   0.0000
   212 H109     -2.1046   -0.5395    6.2950   H         1 RES1   0.0000
   213 H110     -2.6397    2.2502    5.3900   H         1 RES1   0.0000
   214 H111     -4.1030    1.2917    5.6317   H         1 RES1   0.0000
   215 H112     -1.9241    0.0672    3.9194   H         1 RES1   0.0000
   216 H113     -3.6878   -0.1107    3.8236   H         1 RES1   0.0000
   217 H114     -3.6546    3.5378    2.6598   H         1 RES1   0.0000
   218 H115     -4.3167    2.6412    4.0095   H         1 RES1   0.0000
   219 H116     -4.8389    1.4296    1.3267   H         1 RES1   0.0000
   220 H117     -5.6541    2.9534    1.6648   H         1 RES1   0.0000
   221 H118     -6.7835    2.0647    3.5713   H         1 RES1   0.0000
   222 H119     -5.8651    0.5597    3.5267   H         1 RES1   0.0000
   223 H120     -7.5786    1.4978    1.1905   H         1 RES1   0.0000
   224 H121     -8.2517    0.5574    2.5066   H         1 RES1   0.0000
   225 H122     -7.1374   -1.3866    1.9206   H         1 RES1   0.0000
   226 H123     -5.7787   -0.5431    1.1990   H         1 RES1   0.0000
   227 H124     -7.2598    0.1402   -0.7159   H         1 RES1   0.0000
   228 H125     -8.5683   -0.8090   -0.0156   H         1 RES1   0.0000
   229 H126     -7.2909   -2.8668   -0.2279   H         1 RES1   0.0000
   230 H127     -5.8631   -2.0000   -0.7933   H         1 RES1   0.0000
   231 H128     -7.3301   -1.1478   -2.7408   H         1 RES1   0.0000
   232 H129     -8.5273   -2.3379   -2.2273   H         1 RES1   0.0000
   233 H130     -5.6561   -2.9705   -3.0476   H         1 RES1   0.0000
   234 H131     -7.0704   -3.1275   -4.0873   H         1 RES1   0.0000
   235 H132     -6.5731   -4.7193   -1.5220   H         1 RES1   0.0000
   236 H133     -8.0456   -4.7934   -2.4932   H         1 RES1   0.0000
   237 H134     -6.5154   -5.3360   -3.1753   H         1 RES1   0.0000
   238 H135     -1.2890    3.5042    1.7587   H         1 RES1   0.0000
   239 H136     -3.7723    3.3570    0.6191   H         1 RES1   0.0000
   240 H137     -2.8011    2.9362   -0.7846   H         1 RES1   0.0000
   241 H138     -2.5405    4.4591    0.0455   H         1 RES1   0.0000
   242 H139      0.2355    4.1793    0.2974   H         1 RES1   0.0000
   243 H140     -0.9568    2.9508   -2.1882   H         1 RES1   0.0000
   244 H141      0.3737    4.0655   -2.4438   H         1 RES1   0.0000
   245 H142     -1.0977    4.6287   -1.6456   H         1 RES1   0.0000
   246 H143      3.1771    5.5176   -0.4688   H         1 RES1   0.0000
   247 H144      1.5027    5.3254   -0.9947   H         1 RES1   0.0000
   248 H145      2.2973    4.7335   -3.2930   H         1 RES1   0.0000
   249 H146      3.9594    4.8790   -2.7391   H         1 RES1   0.0000
   250 H147      3.6084    6.9365   -3.7389   H         1 RES1   0.0000
   251 H148      3.3892    7.2823   -2.0330   H         1 RES1   0.0000
   252 H149      1.7235    8.4524   -3.2046   H         1 RES1   0.0000
   253 H150      0.8710    7.1361   -2.4193   H         1 RES1   0.0000
   254 H151      0.3893    6.0861   -4.4793   H         1 RES1   0.0000
   255 H152      1.8520    6.7075   -5.2406   H         1 RES1   0.0000
   256 H153      0.9215    8.9556   -5.3530   H         1 RES1   0.0000
   257 H154     -0.5443    8.4468   -4.5171   H         1 RES1   0.0000
   258 H155      0.3296    7.2857   -7.1934   H         1 RES1   0.0000
   259 H156     -0.7064    8.7050   -7.0372   H         1 RES1   0.0000
   260 H157     -2.2814    7.3486   -5.6395   H         1 RES1   0.0000
   261 H158     -1.3523    5.9053   -6.0430   H         1 RES1   0.0000
   262 H159     -2.7386    7.7393   -8.0463   H         1 RES1   0.0000
   263 H160     -3.3973    6.2291   -7.4378   H         1 RES1   0.0000
   264 H161     -0.8699    6.5309   -9.1185   H         1 RES1   0.0000
   265 H162     -2.3981    5.8297   -9.6277   H         1 RES1   0.0000
   266 H163     -1.4222    5.0090   -8.4193   H         1 RES1   0.0000
   267 H164      4.4856    3.0695   -1.5903   H         1 RES1   0.0000
   268 H165      3.8081    1.9320   -0.4120   H         1 RES1   0.0000
   269 H166      4.9606    4.6999    0.1929   H         1 RES1   0.0000
   270 H167      5.6920    3.1506    0.5467   H         1 RES1   0.0000
   271 H168      3.6545    2.5963    1.9658   H         1 RES1   0.0000
   272 H169      3.1463    4.2757    1.7865   H         1 RES1   0.0000
   273 H170      5.8492    3.4193    2.9052   H         1 RES1   0.0000
   274 H171      4.4313    3.6858    3.9147   H         1 RES1   0.0000
   275 H172      5.6294    5.8531    2.1612   H         1 RES1   0.0000
   276 H173      6.0735    5.5739    3.8391   H         1 RES1   0.0000
   277 H174      3.7096    5.8608    4.5290   H         1 RES1   0.0000
   278 H175      3.2700    6.2949    2.8888   H         1 RES1   0.0000
   279 H176      5.5622    7.8705    3.8866   H         1 RES1   0.0000
   280 H177      4.1502    8.0460    4.9045   H         1 RES1   0.0000
   281 H178      4.0689    9.7941    3.3037   H         1 RES1   0.0000
   282 H179      2.7795    8.6609    2.9270   H         1 RES1   0.0000
   283 H180      3.7804    9.3454    0.8649   H         1 RES1   0.0000
   284 H181      4.2543    7.6703    1.1249   H         1 RES1   0.0000
   285 H182      6.0007   10.0883    1.7822   H         1 RES1   0.0000
   286 H183      6.1471    9.1231    0.3173   H         1 RES1   0.0000
   287 H184      6.5042    8.4050    1.8808   H         1 RES1   0.0000
   288 C93      -8.4036   -2.7215    6.8781   C.3       1 RES1   0.0000
   289 C94      -7.1685   -2.9965    6.0299   C.3       1 RES1   0.0000
   290 C95      -5.8982   -2.4643    6.6937   C.3       1 RES1   0.0000
   291 C96      -4.6480   -2.6624    5.8215   C.3       1 RES1   0.0000
   292 C97      -3.7636   -3.8145    6.3098   C.3       1 RES1   0.0000
   293 C98      -2.8371   -4.3666    5.2248   C.3       1 RES1   0.0000
   294 C99      -1.7521   -3.4053    4.7163   C.3       1 RES1   0.0000
   295 C100     -0.5248   -3.3496    5.6335   C.3       1 RES1   0.0000
   296 C101      0.7792   -2.8486    4.9755   C.3       1 RES1   0.0000
   297 C102      0.5095   -1.7601    3.9388   C.3       1 RES1   0.0000
   298 N5        1.6472   -0.9751    3.4569   N.am      1 RES1   0.0000
   299 C103      1.9805    0.1946    4.2784   C.3       1 RES1   0.0000
   300 C104      1.1245    1.4428    4.0467   C.3       1 RES1   0.0000
   301 C105      1.6109    2.5842    4.9472   C.3       1 RES1   0.0000
   302 C106      1.1553    3.9677    4.4830   C.3       1 RES1   0.0000
   303 C107     -0.3524    4.2065    4.5380   C.3       1 RES1   0.0000
   304 C108     -0.6753    5.6627    4.1974   C.3       1 RES1   0.0000
   305 C109     -2.1446    5.8947    3.8582   C.3       1 RES1   0.0000
   306 C110     -2.4761    7.3844    3.7992   C.3       1 RES1   0.0000
   307 C111     -3.9005    7.6594    3.3175   C.3       1 RES1   0.0000
   308 C112     -4.9699    7.1167    4.2574   C.3       1 RES1   0.0000
   309 C113      2.0196   -0.9258    2.1633   C.2       1 RES1   0.0000
   310 O7        2.2555    0.1545    1.6021   O.2       1 RES1   0.0000
   311 C114      2.3613   -2.1923    1.3435   C.3       1 RES1   0.0000
   312 C115      3.8581   -2.4558    1.5573   C.3       1 RES1   0.0000
   313 O8        2.0202   -1.8052   -0.0064   O.3       1 RES1   0.0000
   314 C116      2.4040   -2.5879   -1.1610   C.3       1 RES1   0.0000
   315 C117      3.2195   -1.6436   -2.0441   C.3       1 RES1   0.0000
   316 C118      1.0808   -3.0020   -1.8701   C.2       1 RES1   0.0000
   317 O9        0.0875   -2.3158   -1.5874   O.2       1 RES1   0.0000
   318 N6        1.0094   -4.0549   -2.6985   N.am      1 RES1   0.0000
   319 C119      2.1756   -4.5668   -3.4134   C.3       1 RES1   0.0000
   320 C120      2.3807   -3.8797   -4.7792   C.3       1 RES1   0.0000
   321 C121      3.3376   -4.6560   -5.6936   C.3       1 RES1   0.0000
   322 C122      4.8187   -4.5850   -5.3049   C.3       1 RES1   0.0000
   323 C123      5.5251   -3.3147   -5.7813   C.3       1 RES1   0.0000
   324 C124      7.0178   -3.3558   -5.4382   C.3       1 RES1   0.0000
   325 C125      7.8821   -2.4081   -6.2752   C.3       1 RES1   0.0000
   326 C126      7.7145   -0.9327   -5.9181   C.3       1 RES1   0.0000
   327 C127      8.6052   -0.0044   -6.7483   C.3       1 RES1   0.0000
   328 C128      8.1279    0.1591   -8.1852   C.3       1 RES1   0.0000
   329 C129     -0.3259   -4.4714   -3.1775   C.3       1 RES1   0.0000
   330 C130     -0.5909   -5.9941   -3.2692   C.3       1 RES1   0.0000
   331 C131     -1.4778   -6.5146   -2.1282   C.3       1 RES1   0.0000
   332 C132     -1.4273   -8.0448   -2.0029   C.3       1 RES1   0.0000
   333 C133     -2.1595   -8.6911   -0.8093   C.3       1 RES1   0.0000
   334 C134     -1.4506   -8.6704    0.5647   C.3       1 RES1   0.0000
   335 C135     -1.1486  -10.0624    1.1274   C.3       1 RES1   0.0000
   336 C136     -0.6811  -10.0190    2.5902   C.3       1 RES1   0.0000
   337 C137      0.6963   -9.3913    2.8445   C.3       1 RES1   0.0000
   338 C138      1.8342  -10.3865    2.6234   C.3       1 RES1   0.0000
   339 H185     -9.2928   -3.1378    6.4134   H         1 RES1   0.0000
   340 H186     -8.5555   -1.6506    6.9997   H         1 RES1   0.0000
   341 H187     -8.2947   -3.1666    7.8624   H         1 RES1   0.0000
   342 H188     -7.2952   -2.5197    5.0527   H         1 RES1   0.0000
   343 H189     -7.0668   -4.0729    5.8740   H         1 RES1   0.0000
   344 H190     -5.7640   -2.9727    7.6495   H         1 RES1   0.0000
   345 H191     -6.0379   -1.4037    6.9160   H         1 RES1   0.0000
   346 H192     -4.0755   -1.7356    5.8069   H         1 RES1   0.0000
   347 H193     -4.9648   -2.8695    4.7954   H         1 RES1   0.0000
   348 H194     -4.4118   -4.6341    6.6296   H         1 RES1   0.0000
   349 H195     -3.1763   -3.5063    7.1741   H         1 RES1   0.0000
   350 H196     -3.4803   -4.6549    4.3930   H         1 RES1   0.0000
   351 H197     -2.3541   -5.2745    5.5946   H         1 RES1   0.0000
   352 H198     -2.1952   -2.4143    4.6107   H         1 RES1   0.0000
   353 H199     -1.4438   -3.7350    3.7206   H         1 RES1   0.0000
   354 H200     -0.3388   -4.3549    6.0160   H         1 RES1   0.0000
   355 H201     -0.7541   -2.7153    6.4910   H         1 RES1   0.0000
   356 H202      1.3100   -3.6803    4.5082   H         1 RES1   0.0000
   357 H203      1.4241   -2.4511    5.7598   H         1 RES1   0.0000
   358 H204     -0.1802   -1.0369    4.3830   H         1 RES1   0.0000
   359 H205      0.0139   -2.1955    3.0736   H         1 RES1   0.0000
   360 H206      3.0275    0.4447    4.0905   H         1 RES1   0.0000
   361 H207      1.8972   -0.1144    5.3219   H         1 RES1   0.0000
   362 H208      0.0779    1.2339    4.2806   H         1 RES1   0.0000
   363 H209      1.2035    1.7380    2.9937   H         1 RES1   0.0000
   364 H210      2.7028    2.5853    4.9633   H         1 RES1   0.0000
   365 H211      1.2729    2.4011    5.9687   H         1 RES1   0.0000
   366 H212      1.4985    4.1259    3.4569   H         1 RES1   0.0000
   367 H213      1.6450    4.7189    5.1055   H         1 RES1   0.0000
   368 H214     -0.7268    3.9806    5.5387   H         1 RES1   0.0000
   369 H215     -0.8610    3.5329    3.8393   H         1 RES1   0.0000
   370 H216     -0.0634    5.9837    3.3502   H         1 RES1   0.0000
   371 H217     -0.3974    6.2865    5.0465   H         1 RES1   0.0000
   372 H218     -2.7741    5.4061    4.6043   H         1 RES1   0.0000
   373 H219     -2.3591    5.4460    2.8811   H         1 RES1   0.0000
   374 H220     -1.7692    7.8804    3.1285   H         1 RES1   0.0000
   375 H221     -2.3381    7.8209    4.7891   H         1 RES1   0.0000
   376 H222     -4.0371    7.2297    2.3203   H         1 RES1   0.0000
   377 H223     -4.0290    8.7388    3.2368   H         1 RES1   0.0000
   378 H224     -4.9424    6.0309    4.3079   H         1 RES1   0.0000
   379 H225     -5.9585    7.4118    3.9178   H         1 RES1   0.0000
   380 H226     -4.8244    7.5138    5.2580   H         1 RES1   0.0000
   381 H227      1.7724   -3.0560    1.6680   H         1 RES1   0.0000
   382 H228      4.4417   -1.5947    1.2322   H         1 RES1   0.0000
   383 H229      4.1914   -3.3484    1.0283   H         1 RES1   0.0000
   384 H230      4.0529   -2.6274    2.6145   H         1 RES1   0.0000
   385 H231      2.9692   -3.4735   -0.8601   H         1 RES1   0.0000
   386 H232      2.5852   -0.8100   -2.3610   H         1 RES1   0.0000
   387 H233      3.6184   -2.1455   -2.9178   H         1 RES1   0.0000
   388 H234      4.0488   -1.2470   -1.4648   H         1 RES1   0.0000
   389 H235      2.0631   -5.6403   -3.5838   H         1 RES1   0.0000
   390 H236      3.0558   -4.4241   -2.7866   H         1 RES1   0.0000
   391 H237      2.7573   -2.8659   -4.6320   H         1 RES1   0.0000
   392 H238      1.4145   -3.8055   -5.2839   H         1 RES1   0.0000
   393 H239      3.2285   -4.2635   -6.7070   H         1 RES1   0.0000
   394 H240      3.0143   -5.6986   -5.7165   H         1 RES1   0.0000
   395 H241      5.3259   -5.4327   -5.7673   H         1 RES1   0.0000
   396 H242      4.9382   -4.6952   -4.2250   H         1 RES1   0.0000
   397 H243      5.0582   -2.4283   -5.3451   H         1 RES1   0.0000
   398 H244      5.4088   -3.2452   -6.8638   H         1 RES1   0.0000
   399 H245      7.3797   -4.3722   -5.6105   H         1 RES1   0.0000
   400 H246      7.1600   -3.1364   -4.3763   H         1 RES1   0.0000
   401 H247      7.6579   -2.5611   -7.3317   H         1 RES1   0.0000
   402 H248      8.9275   -2.6781   -6.1183   H         1 RES1   0.0000
   403 H249      7.9627   -0.8025   -4.8616   H         1 RES1   0.0000
   404 H250      6.6718   -0.6409   -6.0564   H         1 RES1   0.0000
   405 H251      9.6257   -0.3895   -6.7470   H         1 RES1   0.0000
   406 H252      8.6304    0.9787   -6.2697   H         1 RES1   0.0000
   407 H253      8.1601   -0.7827   -8.7230   H         1 RES1   0.0000
   408 H254      8.7644    0.8618   -8.7133   H         1 RES1   0.0000
   409 H255      7.1072    0.5340   -8.2141   H         1 RES1   0.0000
   410 H256     -0.5007   -4.0051   -4.1507   H         1 RES1   0.0000
   411 H257     -1.0366   -4.0265   -2.4771   H         1 RES1   0.0000
   412 H258      0.3413   -6.5609   -3.2801   H         1 RES1   0.0000
   413 H259     -1.0743   -6.2011   -4.2227   H         1 RES1   0.0000
   414 H260     -2.5133   -6.2117   -2.3028   H         1 RES1   0.0000
   415 H261     -1.1137   -6.0353   -1.2264   H         1 RES1   0.0000
   416 H262     -0.3880   -8.3636   -1.9843   H         1 RES1   0.0000
   417 H263     -1.8782   -8.4568   -2.9070   H         1 RES1   0.0000
   418 H264     -2.3070   -9.7400   -1.0739   H         1 RES1   0.0000
   419 H265     -3.1615   -8.2609   -0.7187   H         1 RES1   0.0000
   420 H266     -2.0516   -8.1465    1.3098   H         1 RES1   0.0000
   421 H267     -0.4995   -8.1518    0.5069   H         1 RES1   0.0000
   422 H268     -0.3962  -10.5434    0.4980   H         1 RES1   0.0000
   423 H269     -2.0628  -10.6583    1.0964   H         1 RES1   0.0000
   424 H270     -0.6555  -11.0406    2.9764   H         1 RES1   0.0000
   425 H271     -1.4376   -9.4719    3.1624   H         1 RES1   0.0000
   426 H272      0.7297   -9.0402    3.8796   H         1 RES1   0.0000
   427 H273      0.8354   -8.5123    2.2111   H         1 RES1   0.0000
   428 H274      1.8724  -11.1041    3.4418   H         1 RES1   0.0000
   429 H275      2.7963   -9.8772    2.5714   H         1 RES1   0.0000
   430 H276      1.6892  -10.9435    1.7003   H         1 RES1   0.0000
@<TRIPOS>BOND
     1     1    24    1
     2     1    27    1
     3     1    31    1
     4     1   167    1
     5     1   170    1
     6     1   174    1
     7     1   310    1
     8     1   313    1
     9     1   317    1
    10     2     3    1
    11     2    53    1
    12     2    54    1
    13     2    55    1
    14     3     4    1
    15     3    56    1
    16     3    57    1
    17     4     5    1
    18     4    58    1
    19     4    59    1
    20     5     6    1
    21     5    60    1
    22     5    61    1
    23     6     7    1
    24     6    62    1
    25     6    63    1
    26     7     8    1
    27     7    64    1
    28     7    65    1
    29     8     9    1
    30     8    66    1
    31     8    67    1
    32     9    10    1
    33     9    68    1
    34     9    69    1
    35    10    11    1
    36    10    70    1
    37    10    71    1
    38    11    12    1
    39    11    72    1
    40    11    73    1
    41    12    13    1
    42    12    23    1
    43    13    14    1
    44    13    74    1
    45    13    75    1
    46    14    15    1
    47    14    76    1
    48    14    77    1
    49    15    16    1
    50    15    78    1
    51    15    79    1
    52    16    17    1
    53    16    80    1
    54    16    81    1
    55    17    18    1
    56    17    82    1
    57    17    83    1
    58    18    19    1
    59    18    84    1
    60    18    85    1
    61    19    20    1
    62    19    86    1
    63    19    87    1
    64    20    21    1
    65    20    88    1
    66    20    89    1
    67    21    22    1
    68    21    90    1
    69    21    91    1
    70    22    92    1
    71    22    93    1
    72    22    94    1
    73    23    24    2
    74    23    25    1
    75    25    26    1
    76    25    27    1
    77    25    95    1
    78    26    96    1
    79    26    97    1
    80    26    98    1
    81    27    28    1
    82    28    29    1
    83    28    30    1
    84    28    99    1
    85    29   100    1
    86    29   101    1
    87    29   102    1
    88    30    31    2
    89    30    32    1
    90    32    33    1
    91    32    43    1
    92    33    34    1
    93    33   103    1
    94    33   104    1
    95    34    35    1
    96    34   105    1
    97    34   106    1
    98    35    36    1
    99    35   107    1
   100    35   108    1
   101    36    37    1
   102    36   109    1
   103    36   110    1
   104    37    38    1
   105    37   111    1
   106    37   112    1
   107    38    39    1
   108    38   113    1
   109    38   114    1
   110    39    40    1
   111    39   115    1
   112    39   116    1
   113    40    41    1
   114    40   117    1
   115    40   118    1
   116    41    42    1
   117    41   119    1
   118    41   120    1
   119    42   121    1
   120    42   122    1
   121    42   123    1
   122    43    44    1
   123    43   124    1
   124    43   125    1
   125    44    45    1
   126    44   126    1
   127    44   127    1
   128    45    46    1
   129    45   128    1
   130    45   129    1
   131    46    47    1
   132    46   130    1
   133    46   131    1
   134    47    48    1
   135    47   132    1
   136    47   133    1
   137    48    49    1
   138    48   134    1
   139    48   135    1
   140    49    50    1
   141    49   136    1
   142    49   137    1
   143    50    51    1
   144    50   138    1
   145    50   139    1
   146    51    52    1
   147    51   140    1
   148    51   141    1
   149    52   142    1
   150    52   143    1
   151    52   144    1
   152   145   146    1
   153   145   196    1
   154   145   197    1
   155   145   198    1
   156   146   147    1
   157   146   199    1
   158   146   200    1
   159   147   148    1
   160   147   201    1
   161   147   202    1
   162   148   149    1
   163   148   203    1
   164   148   204    1
   165   149   150    1
   166   149   205    1
   167   149   206    1
   168   150   151    1
   169   150   207    1
   170   150   208    1
   171   151   152    1
   172   151   209    1
   173   151   210    1
   174   152   153    1
   175   152   211    1
   176   152   212    1
   177   153   154    1
   178   153   213    1
   179   153   214    1
   180   154   155    1
   181   154   215    1
   182   154   216    1
   183   155   156    1
   184   155   166    1
   185   156   157    1
   186   156   217    1
   187   156   218    1
   188   157   158    1
   189   157   219    1
   190   157   220    1
   191   158   159    1
   192   158   221    1
   193   158   222    1
   194   159   160    1
   195   159   223    1
   196   159   224    1
   197   160   161    1
   198   160   225    1
   199   160   226    1
   200   161   162    1
   201   161   227    1
   202   161   228    1
   203   162   163    1
   204   162   229    1
   205   162   230    1
   206   163   164    1
   207   163   231    1
   208   163   232    1
   209   164   165    1
   210   164   233    1
   211   164   234    1
   212   165   235    1
   213   165   236    1
   214   165   237    1
   215   166   167    2
   216   166   168    1
   217   168   169    1
   218   168   170    1
   219   168   238    1
   220   169   239    1
   221   169   240    1
   222   169   241    1
   223   170   171    1
   224   171   172    1
   225   171   173    1
   226   171   242    1
   227   172   243    1
   228   172   244    1
   229   172   245    1
   230   173   174    2
   231   173   175    1
   232   175   176    1
   233   175   186    1
   234   176   177    1
   235   176   246    1
   236   176   247    1
   237   177   178    1
   238   177   248    1
   239   177   249    1
   240   178   179    1
   241   178   250    1
   242   178   251    1
   243   179   180    1
   244   179   252    1
   245   179   253    1
   246   180   181    1
   247   180   254    1
   248   180   255    1
   249   181   182    1
   250   181   256    1
   251   181   257    1
   252   182   183    1
   253   182   258    1
   254   182   259    1
   255   183   184    1
   256   183   260    1
   257   183   261    1
   258   184   185    1
   259   184   262    1
   260   184   263    1
   261   185   264    1
   262   185   265    1
   263   185   266    1
   264   186   187    1
   265   186   267    1
   266   186   268    1
   267   187   188    1
   268   187   269    1
   269   187   270    1
   270   188   189    1
   271   188   271    1
   272   188   272    1
   273   189   190    1
   274   189   273    1
   275   189   274    1
   276   190   191    1
   277   190   275    1
   278   190   276    1
   279   191   192    1
   280   191   277    1
   281   191   278    1
   282   192   193    1
   283   192   279    1
   284   192   280    1
   285   193   194    1
   286   193   281    1
   287   193   282    1
   288   194   195    1
   289   194   283    1
   290   194   284    1
   291   195   285    1
   292   195   286    1
   293   195   287    1
   294   288   289    1
   295   288   339    1
   296   288   340    1
   297   288   341    1
   298   289   290    1
   299   289   342    1
   300   289   343    1
   301   290   291    1
   302   290   344    1
   303   290   345    1
   304   291   292    1
   305   291   346    1
   306   291   347    1
   307   292   293    1
   308   292   348    1
   309   292   349    1
   310   293   294    1
   311   293   350    1
   312   293   351    1
   313   294   295    1
   314   294   352    1
   315   294   353    1
   316   295   296    1
   317   295   354    1
   318   295   355    1
   319   296   297    1
   320   296   356    1
   321   296   357    1
   322   297   298    1
   323   297   358    1
   324   297   359    1
   325   298   299    1
   326   298   309    1
   327   299   300    1
   328   299   360    1
   329   299   361    1
   330   300   301    1
   331   300   362    1
   332   300   363    1
   333   301   302    1
   334   301   364    1
   335   301   365    1
   336   302   303    1
   337   302   366    1
   338   302   367    1
   339   303   304    1
   340   303   368    1
   341   303   369    1
   342   304   305    1
   343   304   370    1
   344   304   371    1
   345   305   306    1
   346   305   372    1
   347   305   373    1
   348   306   307    1
   349   306   374    1
   350   306   375    1
   351   307   308    1
   352   307   376    1
   353   307   377    1
   354   308   378    1
   355   308   379    1
   356   308   380    1
   357   309   310    2
   358   309   311    1
   359   311   312    1
   360   311   313    1
   361   311   381    1
   362   312   382    1
   363   312   383    1
   364   312   384    1
   365   313   314    1
   366   314   315    1
   367   314   316    1
   368   314   385    1
   369   315   386    1
   370   315   387    1
   371   315   388    1
   372   316   317    2
   373   316   318    1
   374   318   319    1
   375   318   329    1
   376   319   320    1
   377   319   389    1
   378   319   390    1
   379   320   321    1
   380   320   391    1
   381   320   392    1
   382   321   322    1
   383   321   393    1
   384   321   394    1
   385   322   323    1
   386   322   395    1
   387   322   396    1
   388   323   324    1
   389   323   397    1
   390   323   398    1
   391   324   325    1
   392   324   399    1
   393   324   400    1
   394   325   326    1
   395   325   401    1
   396   325   402    1
   397   326   327    1
   398   326   403    1
   399   326   404    1
   400   327   328    1
   401   327   405    1
   402   327   406    1
   403   328   407    1
   404   328   408    1
   405   328   409    1
   406   329   330    1
   407   329   410    1
   408   329   411    1
   409   330   331    1
   410   330   412    1
   411   330   413    1
   412   331   332    1
   413   331   414    1
   414   331   415    1
   415   332   333    1
   416   332   416    1
   417   332   417    1
   418   333   334    1
   419   333   418    1
   420   333   419    1
   421   334   335    1
   422   334   420    1
   423   334   421    1
   424   335   336    1
   425   335   422    1
   426   335   423    1
   427   336   337    1
   428   336   424    1
   429   336   425    1
   430   337   338    1
   431   337   426    1
   432   337   427    1
   433   338   428    1
   434   338   429    1
   435   338   430    1
@<TRIPOS>SUBSTRUCTURE
     1 RES1      430 GROUP             0 ****  ****    0  
