@<TRIPOS>MOLECULE
am_c3_9H2O_c0_0_nunpairedes_0_charge_3 Charge: 3 Unpaired_Electrons: 6 XTB_Unpaired_Electrons: 0 XTB_Charge: 3
   394   399     1     0     0
SMALL
NoCharges
****
Generated from Architector

@<TRIPOS>ATOM
     1 Eu1      -0.2672   -0.2675   -0.2899   Eu        1 RES1   0.0000
     2 C1        3.7254   -2.2871    9.7934   C.3       1 RES1   0.0000
     3 C2        2.5973   -1.3795    9.3187   C.3       1 RES1   0.0000
     4 C3        1.2561   -2.1079    9.2603   C.3       1 RES1   0.0000
     5 C4        0.1045   -1.2021    8.8256   C.3       1 RES1   0.0000
     6 C5       -1.2043   -1.9549    8.5310   C.3       1 RES1   0.0000
     7 C6       -1.4184   -2.3881    7.0665   C.3       1 RES1   0.0000
     8 C7       -2.5638   -1.6512    6.3325   C.3       1 RES1   0.0000
     9 C8       -2.0963   -0.6519    5.2599   C.3       1 RES1   0.0000
    10 N1       -3.0950   -0.3844    4.2099   N.am      1 RES1   0.0000
    11 C9       -4.3636    0.1644    4.6892   C.3       1 RES1   0.0000
    12 C10      -5.4980   -0.8581    4.8337   C.3       1 RES1   0.0000
    13 C11      -6.8845   -0.2106    4.7342   C.3       1 RES1   0.0000
    14 C12      -7.2872    0.7010    5.8998   C.3       1 RES1   0.0000
    15 C13      -6.9599    2.1904    5.7571   C.3       1 RES1   0.0000
    16 C14      -7.6896    2.9073    4.6103   C.3       1 RES1   0.0000
    17 C15      -6.8474    3.0455    3.3411   C.3       1 RES1   0.0000
    18 C16      -7.4452    4.0213    2.3348   C.3       1 RES1   0.0000
    19 C17      -2.6959   -0.4341    2.9301   C.2       1 RES1   0.0000
    20 O1       -1.5318   -0.7064    2.6109   O.2       1 RES1   0.0000
    21 C18      -3.6369   -0.1801    1.7219   C.3       1 RES1   0.0000
    22 C19      -3.9005    1.3161    1.4439   C.3       1 RES1   0.0000
    23 C20      -2.6923    2.2540    1.5609   C.3       1 RES1   0.0000
    24 C21      -2.3597    2.6747    2.9862   C.3       1 RES1   0.0000
    25 O2       -2.9585   -0.7619    0.5822   O.3       1 RES1   0.0000
    26 C22      -3.7020   -1.7581   -0.1320   C.3       1 RES1   0.0000
    27 C23      -4.6702   -1.0957   -1.1341   C.3       1 RES1   0.0000
    28 C24      -3.9474   -0.2055   -2.1456   C.3       1 RES1   0.0000
    29 C25      -3.5197   -0.9570   -3.3987   C.3       1 RES1   0.0000
    30 C26      -2.6753   -2.6696   -0.8269   C.2       1 RES1   0.0000
    31 O3       -1.5445   -2.1775   -1.0746   O.2       1 RES1   0.0000
    32 N2       -2.9705   -3.9444   -1.0869   N.am      1 RES1   0.0000
    33 C27      -1.9181   -4.7769   -1.7166   C.3       1 RES1   0.0000
    34 C28      -2.0039   -6.3055   -1.5494   C.3       1 RES1   0.0000
    35 C29      -1.3601   -6.9497   -0.3055   C.3       1 RES1   0.0000
    36 C30       0.0819   -7.4615   -0.5008   C.3       1 RES1   0.0000
    37 C31       0.3025   -8.8480    0.1497   C.3       1 RES1   0.0000
    38 C32       1.6815   -9.0504    0.7875   C.3       1 RES1   0.0000
    39 C33       1.7791   -8.4751    2.1976   C.3       1 RES1   0.0000
    40 C34       3.0574   -8.9212    2.8910   C.3       1 RES1   0.0000
    41 C35      -4.3097   -4.5252   -1.0155   C.3       1 RES1   0.0000
    42 C36      -4.8804   -4.8409   -2.4128   C.3       1 RES1   0.0000
    43 C37      -6.4080   -4.7451   -2.5112   C.3       1 RES1   0.0000
    44 C38      -7.1913   -5.7688   -1.6825   C.3       1 RES1   0.0000
    45 C39      -7.2756   -5.5099   -0.1748   C.3       1 RES1   0.0000
    46 C40      -7.8014   -4.1242    0.1919   C.3       1 RES1   0.0000
    47 C41      -7.9897   -3.9845    1.6993   C.3       1 RES1   0.0000
    48 C42      -8.5084   -2.6083    2.0907   C.3       1 RES1   0.0000
    49 H1        4.6797   -1.7722    9.7441   H         1 RES1   0.0000
    50 H2        3.7865   -3.1890    9.1879   H         1 RES1   0.0000
    51 H3        3.5633   -2.5856   10.8222   H         1 RES1   0.0000
    52 H4        2.8393   -1.0072    8.3223   H         1 RES1   0.0000
    53 H5        2.5318   -0.5210    9.9886   H         1 RES1   0.0000
    54 H6        1.0310   -2.5275   10.2406   H         1 RES1   0.0000
    55 H7        1.3474   -2.9410    8.5645   H         1 RES1   0.0000
    56 H8       -0.0806   -0.4954    9.6355   H         1 RES1   0.0000
    57 H9        0.3985   -0.6277    7.9488   H         1 RES1   0.0000
    58 H10      -2.0392   -1.3216    8.8354   H         1 RES1   0.0000
    59 H11      -1.2270   -2.8386    9.1695   H         1 RES1   0.0000
    60 H12      -1.6488   -3.4507    7.0512   H         1 RES1   0.0000
    61 H13      -0.4875   -2.2829    6.5133   H         1 RES1   0.0000
    62 H14      -3.1659   -1.1407    7.0862   H         1 RES1   0.0000
    63 H15      -3.2015   -2.3933    5.8474   H         1 RES1   0.0000
    64 H16      -1.2073   -1.0376    4.7613   H         1 RES1   0.0000
    65 H17      -1.8468    0.3102    5.7204   H         1 RES1   0.0000
    66 H18      -4.6911    0.9520    4.0138   H         1 RES1   0.0000
    67 H19      -4.1687    0.6218    5.6606   H         1 RES1   0.0000
    68 H20      -5.4128   -1.3904    5.7824   H         1 RES1   0.0000
    69 H21      -5.4092   -1.6049    4.0391   H         1 RES1   0.0000
    70 H22      -7.6083   -1.0228    4.6808   H         1 RES1   0.0000
    71 H23      -6.9601    0.3357    3.7940   H         1 RES1   0.0000
    72 H24      -6.8374    0.3323    6.8240   H         1 RES1   0.0000
    73 H25      -8.3686    0.6285    6.0268   H         1 RES1   0.0000
    74 H26      -5.8842    2.3459    5.6570   H         1 RES1   0.0000
    75 H27      -7.2629    2.6660    6.6896   H         1 RES1   0.0000
    76 H28      -7.9641    3.9145    4.9284   H         1 RES1   0.0000
    77 H29      -8.6183    2.3851    4.3760   H         1 RES1   0.0000
    78 H30      -6.7408    2.0714    2.8541   H         1 RES1   0.0000
    79 H31      -5.8491    3.3997    3.6208   H         1 RES1   0.0000
    80 H32      -8.4322    3.6957    2.0202   H         1 RES1   0.0000
    81 H33      -6.8088    4.0999    1.4548   H         1 RES1   0.0000
    82 H34      -7.5388    5.0080    2.7761   H         1 RES1   0.0000
    83 H35      -4.6025   -0.6811    1.8554   H         1 RES1   0.0000
    84 H36      -4.2894    1.3792    0.4235   H         1 RES1   0.0000
    85 H37      -4.6944    1.6616    2.1110   H         1 RES1   0.0000
    86 H38      -2.9424    3.1605    1.0105   H         1 RES1   0.0000
    87 H39      -1.7912    1.7913    1.1002   H         1 RES1   0.0000
    88 H40      -2.0402    1.8318    3.5844   H         1 RES1   0.0000
    89 H41      -3.2332    3.1167    3.4614   H         1 RES1   0.0000
    90 H42      -1.5587    3.4110    2.9857   H         1 RES1   0.0000
    91 H43      -4.2728   -2.3500    0.5930   H         1 RES1   0.0000
    92 H44      -5.2343   -1.8670   -1.6565   H         1 RES1   0.0000
    93 H45      -5.3850   -0.4989   -0.5643   H         1 RES1   0.0000
    94 H46      -3.0554    0.2340   -1.6790   H         1 RES1   0.0000
    95 H47      -4.6067    0.6114   -2.4402   H         1 RES1   0.0000
    96 H48      -2.7742   -1.7131   -3.1695   H         1 RES1   0.0000
    97 H49      -3.0780   -0.2642   -4.1069   H         1 RES1   0.0000
    98 H50      -4.3725   -1.4272   -3.8793   H         1 RES1   0.0000
    99 H51      -0.9752   -4.4141   -1.3102   H         1 RES1   0.0000
   100 H52      -1.9279   -4.5584   -2.7899   H         1 RES1   0.0000
   101 H53      -1.5293   -6.7438   -2.4310   H         1 RES1   0.0000
   102 H54      -3.0409   -6.6198   -1.5885   H         1 RES1   0.0000
   103 H55      -1.9758   -7.8114   -0.0478   H         1 RES1   0.0000
   104 H56      -1.3989   -6.2799    0.5523   H         1 RES1   0.0000
   105 H57       0.7975   -6.7520   -0.0851   H         1 RES1   0.0000
   106 H58       0.3076   -7.5579   -1.5659   H         1 RES1   0.0000
   107 H59       0.1402   -9.6182   -0.6091   H         1 RES1   0.0000
   108 H60      -0.4492   -9.0141    0.9269   H         1 RES1   0.0000
   109 H61       2.4490   -8.6082    0.1505   H         1 RES1   0.0000
   110 H62       1.8804  -10.1206    0.8445   H         1 RES1   0.0000
   111 H63       0.9312   -8.8242    2.7864   H         1 RES1   0.0000
   112 H64       1.7330   -7.3840    2.1567   H         1 RES1   0.0000
   113 H65       3.9351   -8.6752    2.3019   H         1 RES1   0.0000
   114 H66       3.0448   -9.9969    3.0319   H         1 RES1   0.0000
   115 H67       3.1570   -8.4529    3.8649   H         1 RES1   0.0000
   116 H68      -4.9820   -3.8298   -0.5242   H         1 RES1   0.0000
   117 H69      -4.2524   -5.4248   -0.3980   H         1 RES1   0.0000
   118 H70      -4.5855   -5.8403   -2.7362   H         1 RES1   0.0000
   119 H71      -4.4479   -4.1323   -3.1256   H         1 RES1   0.0000
   120 H72      -6.6591   -4.9172   -3.5596   H         1 RES1   0.0000
   121 H73      -6.7428   -3.7356   -2.2654   H         1 RES1   0.0000
   122 H74      -6.7630   -6.7611   -1.8460   H         1 RES1   0.0000
   123 H75      -8.2113   -5.7885   -2.0716   H         1 RES1   0.0000
   124 H76      -6.3097   -5.6760    0.3050   H         1 RES1   0.0000
   125 H77      -7.9595   -6.2514    0.2414   H         1 RES1   0.0000
   126 H78      -8.7546   -3.9599   -0.3110   H         1 RES1   0.0000
   127 H79      -7.1128   -3.3460   -0.1492   H         1 RES1   0.0000
   128 H80      -7.0377   -4.1772    2.2036   H         1 RES1   0.0000
   129 H81      -8.6966   -4.7408    2.0375   H         1 RES1   0.0000
   130 H82      -7.7980   -1.8292    1.8190   H         1 RES1   0.0000
   131 H83      -8.6797   -2.5621    3.1619   H         1 RES1   0.0000
   132 H84      -9.4481   -2.4004    1.5883   H         1 RES1   0.0000
   133 C43      -2.6935   -4.3952   -6.1901   C.3       1 RES1   0.0000
   134 C44      -1.9762   -3.0625   -6.3728   C.3       1 RES1   0.0000
   135 C45      -2.7469   -2.1458   -7.3246   C.3       1 RES1   0.0000
   136 C46      -2.3980   -0.6600   -7.2027   C.3       1 RES1   0.0000
   137 C47      -1.0460   -0.2607   -7.8040   C.3       1 RES1   0.0000
   138 C48       0.1719   -0.4209   -6.8844   C.3       1 RES1   0.0000
   139 C49       0.5126    0.8391   -6.0799   C.3       1 RES1   0.0000
   140 C50      -0.2767    0.9340   -4.7753   C.3       1 RES1   0.0000
   141 N3        0.0913    2.0982   -3.9571   N.am      1 RES1   0.0000
   142 C51       0.1956    3.3812   -4.6683   C.3       1 RES1   0.0000
   143 C52       1.5864    3.7521   -5.1998   C.3       1 RES1   0.0000
   144 C53       1.7181    5.2244   -5.6199   C.3       1 RES1   0.0000
   145 C54       0.8966    5.6421   -6.8438   C.3       1 RES1   0.0000
   146 C55      -0.5548    6.0456   -6.5646   C.3       1 RES1   0.0000
   147 C56      -0.7298    7.3774   -5.8128   C.3       1 RES1   0.0000
   148 C57      -1.2035    7.2057   -4.3684   C.3       1 RES1   0.0000
   149 C58      -1.6698    8.5212   -3.7554   C.3       1 RES1   0.0000
   150 C59      -0.1128    2.0304   -2.6428   C.2       1 RES1   0.0000
   151 O4       -0.6869    1.0649   -2.0917   O.2       1 RES1   0.0000
   152 C60       0.4065    3.1550   -1.7287   C.3       1 RES1   0.0000
   153 C61      -0.7130    4.1391   -1.2908   C.3       1 RES1   0.0000
   154 C62      -2.1698    3.6821   -1.4550   C.3       1 RES1   0.0000
   155 C63      -2.7515    3.7450   -2.8631   C.3       1 RES1   0.0000
   156 O5        0.9355    2.4766   -0.5732   O.3       1 RES1   0.0000
   157 C64       2.2584    2.8402   -0.1334   C.3       1 RES1   0.0000
   158 C65       2.2177    4.0679    0.7805   C.3       1 RES1   0.0000
   159 C66       1.6023    3.8086    2.1600   C.3       1 RES1   0.0000
   160 C67       2.6053    4.1017    3.2657   C.3       1 RES1   0.0000
   161 C68       2.8613    1.4991    0.3781   C.2       1 RES1   0.0000
   162 O6        2.1785    0.5036    0.0717   O.2       1 RES1   0.0000
   163 N4        4.0639    1.3048    0.9570   N.am      1 RES1   0.0000
   164 C69       4.4045   -0.1462    0.9667   C.3       1 RES1   0.0000
   165 C70       5.6678   -0.6637    1.6638   C.3       1 RES1   0.0000
   166 C71       6.6335   -1.3681    0.7020   C.3       1 RES1   0.0000
   167 C72       6.1993   -2.7834    0.3078   C.3       1 RES1   0.0000
   168 C73       6.5593   -3.8498    1.3414   C.3       1 RES1   0.0000
   169 C74       6.4986   -5.2818    0.7916   C.3       1 RES1   0.0000
   170 C75       5.2236   -5.6583    0.0352   C.3       1 RES1   0.0000
   171 C76       3.9896   -5.6602    0.9304   C.3       1 RES1   0.0000
   172 C77       5.1081    2.3195    1.1449   C.3       1 RES1   0.0000
   173 C78       5.7972    2.3669    2.5274   C.3       1 RES1   0.0000
   174 C79       6.3565    3.7427    2.9437   C.3       1 RES1   0.0000
   175 C80       7.8589    3.9047    2.6752   C.3       1 RES1   0.0000
   176 C81       8.2430    4.1987    1.2293   C.3       1 RES1   0.0000
   177 C82       7.6506    5.5141    0.7325   C.3       1 RES1   0.0000
   178 C83       8.3505    6.0510   -0.5143   C.3       1 RES1   0.0000
   179 C84       7.7540    7.3804   -0.9585   C.3       1 RES1   0.0000
   180 H85      -2.1275   -5.0560   -5.5363   H         1 RES1   0.0000
   181 H86      -2.8252   -4.8896   -7.1481   H         1 RES1   0.0000
   182 H87      -3.6779   -4.2344   -5.7544   H         1 RES1   0.0000
   183 H88      -0.9754   -3.2452   -6.7701   H         1 RES1   0.0000
   184 H89      -1.8788   -2.5732   -5.3975   H         1 RES1   0.0000
   185 H90      -3.8142   -2.2614   -7.1186   H         1 RES1   0.0000
   186 H91      -2.5804   -2.4710   -8.3524   H         1 RES1   0.0000
   187 H92      -2.4455   -0.3726   -6.1509   H         1 RES1   0.0000
   188 H93      -3.1753   -0.1063   -7.7326   H         1 RES1   0.0000
   189 H94      -1.1013    0.7831   -8.1293   H         1 RES1   0.0000
   190 H95      -0.8948   -0.8593   -8.7043   H         1 RES1   0.0000
   191 H96       1.0333   -0.6487   -7.5117   H         1 RES1   0.0000
   192 H97       0.0330   -1.2603   -6.2064   H         1 RES1   0.0000
   193 H98       0.3195    1.7079   -6.7112   H         1 RES1   0.0000
   194 H99       1.5794    0.8290   -5.8482   H         1 RES1   0.0000
   195 H100     -0.1025    0.0440   -4.1632   H         1 RES1   0.0000
   196 H101     -1.3427    0.9948   -5.0074   H         1 RES1   0.0000
   197 H102     -0.1608    4.1716   -4.0076   H         1 RES1   0.0000
   198 H103     -0.5011    3.3153   -5.5071   H         1 RES1   0.0000
   199 H104      1.8487    3.1348   -6.0617   H         1 RES1   0.0000
   200 H105      2.3184    3.5517   -4.4128   H         1 RES1   0.0000
   201 H106      2.7697    5.3742   -5.8631   H         1 RES1   0.0000
   202 H107      1.4717    5.8799   -4.7865   H         1 RES1   0.0000
   203 H108      0.9066    4.8317   -7.5786   H         1 RES1   0.0000
   204 H109      1.3898    6.4957   -7.3125   H         1 RES1   0.0000
   205 H110     -1.0678    5.2587   -6.0118   H         1 RES1   0.0000
   206 H111     -1.0566    6.1270   -7.5286   H         1 RES1   0.0000
   207 H112     -1.4784    7.9825   -6.3258   H         1 RES1   0.0000
   208 H113      0.2016    7.9443   -5.8216   H         1 RES1   0.0000
   209 H114     -0.4024    6.7833   -3.7517   H         1 RES1   0.0000
   210 H115     -2.0464    6.5076   -4.3566   H         1 RES1   0.0000
   211 H116     -0.8732    9.2598   -3.7644   H         1 RES1   0.0000
   212 H117     -1.9930    8.3774   -2.7263   H         1 RES1   0.0000
   213 H118     -2.5081    8.9184   -4.3200   H         1 RES1   0.0000
   214 H119      1.2071    3.7104   -2.2276   H         1 RES1   0.0000
   215 H120     -0.5467    4.3073   -0.2252   H         1 RES1   0.0000
   216 H121     -0.5825    5.0932   -1.7993   H         1 RES1   0.0000
   217 H122     -2.7766    4.3439   -0.8331   H         1 RES1   0.0000
   218 H123     -2.2657    2.6573   -1.0807   H         1 RES1   0.0000
   219 H124     -2.4967    4.6803   -3.3505   H         1 RES1   0.0000
   220 H125     -3.8363    3.6984   -2.8113   H         1 RES1   0.0000
   221 H126     -2.4160    2.9123   -3.4726   H         1 RES1   0.0000
   222 H127      2.8691    3.1040   -1.0132   H         1 RES1   0.0000
   223 H128      3.2247    4.4674    0.8989   H         1 RES1   0.0000
   224 H129      1.6589    4.8350    0.2442   H         1 RES1   0.0000
   225 H130      1.2713    2.7646    2.2208   H         1 RES1   0.0000
   226 H131      0.7248    4.4429    2.2904   H         1 RES1   0.0000
   227 H132      3.3340    3.3053    3.3328   H         1 RES1   0.0000
   228 H133      2.1130    4.1995    4.2231   H         1 RES1   0.0000
   229 H134      3.1302    5.0341    3.0724   H         1 RES1   0.0000
   230 H135      4.4574   -0.4336   -0.0896   H         1 RES1   0.0000
   231 H136      3.5290   -0.6364    1.3991   H         1 RES1   0.0000
   232 H137      5.3957   -1.3541    2.4640   H         1 RES1   0.0000
   233 H138      6.2156    0.1350    2.1349   H         1 RES1   0.0000
   234 H139      7.6152   -1.4387    1.1734   H         1 RES1   0.0000
   235 H140      6.7409   -0.7521   -0.1941   H         1 RES1   0.0000
   236 H141      6.6874   -3.0595   -0.6257   H         1 RES1   0.0000
   237 H142      5.1225   -2.8030    0.1311   H         1 RES1   0.0000
   238 H143      5.9146   -3.7658    2.2177   H         1 RES1   0.0000
   239 H144      7.5845   -3.6713    1.6692   H         1 RES1   0.0000
   240 H145      6.6161   -5.9700    1.6305   H         1 RES1   0.0000
   241 H146      7.3458   -5.4449    0.1277   H         1 RES1   0.0000
   242 H147      5.3576   -6.6622   -0.3744   H         1 RES1   0.0000
   243 H148      5.0695   -4.9906   -0.8160   H         1 RES1   0.0000
   244 H149      4.1284   -6.3662    1.7443   H         1 RES1   0.0000
   245 H150      3.1076   -5.9552    0.3635   H         1 RES1   0.0000
   246 H151      3.8237   -4.6762    1.3666   H         1 RES1   0.0000
   247 H152      4.6507    3.2878    0.9601   H         1 RES1   0.0000
   248 H153      5.8712    2.1632    0.3804   H         1 RES1   0.0000
   249 H154      6.6642    1.7083    2.5478   H         1 RES1   0.0000
   250 H155      5.0966    2.0113    3.2851   H         1 RES1   0.0000
   251 H156      6.2144    3.8423    4.0224   H         1 RES1   0.0000
   252 H157      5.8041    4.5551    2.4720   H         1 RES1   0.0000
   253 H158      8.3835    3.0104    3.0162   H         1 RES1   0.0000
   254 H159      8.2182    4.7330    3.2854   H         1 RES1   0.0000
   255 H160      7.9454    3.3780    0.5743   H         1 RES1   0.0000
   256 H161      9.3295    4.2726    1.1831   H         1 RES1   0.0000
   257 H162      6.5862    5.3909    0.5150   H         1 RES1   0.0000
   258 H163      7.7384    6.2630    1.5201   H         1 RES1   0.0000
   259 H164      8.2716    5.3210   -1.3248   H         1 RES1   0.0000
   260 H165      9.4120    6.1888   -0.3026   H         1 RES1   0.0000
   261 H166      6.7027    7.2629   -1.1950   H         1 RES1   0.0000
   262 H167      8.2635    7.7554   -1.8409   H         1 RES1   0.0000
   263 H168      7.8437    8.1189   -0.1670   H         1 RES1   0.0000
   264 C85      -1.6941    4.8703    5.7263   C.3       1 RES1   0.0000
   265 C86      -0.6813    3.7427    5.8592   C.3       1 RES1   0.0000
   266 C87      -0.4881    3.3518    7.3204   C.3       1 RES1   0.0000
   267 C88       0.2351    2.0160    7.5105   C.3       1 RES1   0.0000
   268 C89       1.7208    2.0039    7.1212   C.3       1 RES1   0.0000
   269 C90       2.0144    1.5775    5.6780   C.3       1 RES1   0.0000
   270 C91       1.9435    0.0563    5.4451   C.3       1 RES1   0.0000
   271 C92       1.8396   -0.1748    3.9396   C.3       1 RES1   0.0000
   272 N5        1.7802   -1.5239    3.3208   N.am      1 RES1   0.0000
   273 C93       2.4455   -2.7374    3.7898   C.3       1 RES1   0.0000
   274 C94       2.4057   -3.0540    5.2831   C.3       1 RES1   0.0000
   275 C95       2.7277   -4.5467    5.5079   C.3       1 RES1   0.0000
   276 C96       1.8108   -5.2192    6.5332   C.3       1 RES1   0.0000
   277 C97       0.3786   -5.4264    6.0323   C.3       1 RES1   0.0000
   278 C98       0.1738   -6.7137    5.2302   C.3       1 RES1   0.0000
   279 C99      -1.3115   -7.0022    5.0001   C.3       1 RES1   0.0000
   280 C100     -1.5804   -8.3110    4.2692   C.3       1 RES1   0.0000
   281 C101      1.2675   -1.5310    2.0845   C.2       1 RES1   0.0000
   282 O7        0.6685   -0.5389    1.6371   O.2       1 RES1   0.0000
   283 C102      1.4987   -2.7184    1.1011   C.3       1 RES1   0.0000
   284 C103      0.5526   -3.9275    1.2404   C.3       1 RES1   0.0000
   285 C104     -0.8805   -3.5628    1.6398   C.3       1 RES1   0.0000
   286 C105     -1.1084   -3.6279    3.1410   C.3       1 RES1   0.0000
   287 O8        1.3267   -2.1791   -0.2170   O.3       1 RES1   0.0000
   288 C106      2.4195   -2.3598   -1.1343   C.3       1 RES1   0.0000
   289 C107      2.2614   -3.6354   -1.9851   C.3       1 RES1   0.0000
   290 C108      1.0700   -3.6110   -2.9567   C.3       1 RES1   0.0000
   291 C109      1.4839   -3.3258   -4.3968   C.3       1 RES1   0.0000
   292 C110      2.3936   -1.1095   -2.0234   C.2       1 RES1   0.0000
   293 O9        1.2846   -0.5657   -2.1838   O.2       1 RES1   0.0000
   294 N6        3.5051   -0.6065   -2.5716   N.am      1 RES1   0.0000
   295 C111      3.3186    0.6713   -3.2819   C.3       1 RES1   0.0000
   296 C112      4.5229    1.5348   -3.6811   C.3       1 RES1   0.0000
   297 C113      5.2609    2.2861   -2.5649   C.3       1 RES1   0.0000
   298 C114      5.9460    3.5739   -3.0621   C.3       1 RES1   0.0000
   299 C115      5.0665    4.8182   -3.2666   C.3       1 RES1   0.0000
   300 C116      4.4485    5.3660   -1.9723   C.3       1 RES1   0.0000
   301 C117      4.1919    6.8820   -1.9550   C.3       1 RES1   0.0000
   302 C118      2.8512    7.2885   -2.5468   C.3       1 RES1   0.0000
   303 C119      4.7590   -1.3203   -2.7676   C.3       1 RES1   0.0000
   304 C120      4.8579   -1.9240   -4.1759   C.3       1 RES1   0.0000
   305 C121      5.9349   -3.0067   -4.2797   C.3       1 RES1   0.0000
   306 C122      7.3754   -2.4712   -4.2941   C.3       1 RES1   0.0000
   307 C123      8.1620   -2.7537   -3.0140   C.3       1 RES1   0.0000
   308 C124      8.4634   -4.2393   -2.8262   C.3       1 RES1   0.0000
   309 C125      9.4008   -4.5031   -1.6497   C.3       1 RES1   0.0000
   310 C126      9.7475   -5.9821   -1.5314   C.3       1 RES1   0.0000
   311 H169     -1.7855    5.2166    4.7009   H         1 RES1   0.0000
   312 H170     -1.3981    5.7135    6.3409   H         1 RES1   0.0000
   313 H171     -2.6702    4.5392    6.0665   H         1 RES1   0.0000
   314 H172     -1.0272    2.8684    5.3040   H         1 RES1   0.0000
   315 H173      0.2677    4.0579    5.4252   H         1 RES1   0.0000
   316 H174     -1.4818    3.2720    7.7720   H         1 RES1   0.0000
   317 H175      0.0427    4.1486    7.8444   H         1 RES1   0.0000
   318 H176     -0.3043    1.2533    6.9432   H         1 RES1   0.0000
   319 H177      0.1546    1.7645    8.5687   H         1 RES1   0.0000
   320 H178      2.2553    1.3360    7.7990   H         1 RES1   0.0000
   321 H179      2.1230    3.0028    7.2898   H         1 RES1   0.0000
   322 H180      3.0141    1.9274    5.4177   H         1 RES1   0.0000
   323 H181      1.3142    2.0729    5.0090   H         1 RES1   0.0000
   324 H182      1.0691   -0.3436    5.9595   H         1 RES1   0.0000
   325 H183      2.8326   -0.3984    5.8792   H         1 RES1   0.0000
   326 H184      2.6856    0.3397    3.4709   H         1 RES1   0.0000
   327 H185      0.9226    0.3185    3.6085   H         1 RES1   0.0000
   328 H186      1.9120   -3.5546    3.3122   H         1 RES1   0.0000
   329 H187      3.4804   -2.7444    3.4309   H         1 RES1   0.0000
   330 H188      1.4073   -2.8378    5.6537   H         1 RES1   0.0000
   331 H189      3.1182   -2.4557    5.8416   H         1 RES1   0.0000
   332 H190      3.7589   -4.6393    5.8506   H         1 RES1   0.0000
   333 H191      2.6485   -5.0987    4.5683   H         1 RES1   0.0000
   334 H192      1.7946   -4.6098    7.4372   H         1 RES1   0.0000
   335 H193      2.2331   -6.1866    6.8095   H         1 RES1   0.0000
   336 H194      0.0813   -4.5697    5.4283   H         1 RES1   0.0000
   337 H195     -0.2944   -5.4608    6.8894   H         1 RES1   0.0000
   338 H196      0.6055   -7.5464    5.7843   H         1 RES1   0.0000
   339 H197      0.6943   -6.6576    4.2720   H         1 RES1   0.0000
   340 H198     -1.7667   -6.1868    4.4342   H         1 RES1   0.0000
   341 H199     -1.8100   -7.0350    5.9689   H         1 RES1   0.0000
   342 H200     -1.1659   -8.2901    3.2651   H         1 RES1   0.0000
   343 H201     -2.6514   -8.4785    4.1888   H         1 RES1   0.0000
   344 H202     -1.1442   -9.1463    4.8079   H         1 RES1   0.0000
   345 H203      2.5368   -3.0553    1.2000   H         1 RES1   0.0000
   346 H204      0.5294   -4.4067    0.2595   H         1 RES1   0.0000
   347 H205      0.9560   -4.6620    1.9398   H         1 RES1   0.0000
   348 H206     -1.5713   -4.2617    1.1649   H         1 RES1   0.0000
   349 H207     -1.0968   -2.5508    1.2834   H         1 RES1   0.0000
   350 H208     -0.8019   -4.5990    3.5205   H         1 RES1   0.0000
   351 H209     -2.1590   -3.4777    3.3773   H         1 RES1   0.0000
   352 H210     -0.5463   -2.8485    3.6480   H         1 RES1   0.0000
   353 H211      3.3592   -2.4178   -0.5736   H         1 RES1   0.0000
   354 H212      3.1774   -3.7827   -2.5583   H         1 RES1   0.0000
   355 H213      2.1753   -4.4816   -1.3014   H         1 RES1   0.0000
   356 H214      0.3289   -2.8708   -2.6320   H         1 RES1   0.0000
   357 H215      0.5963   -4.5925   -2.9475   H         1 RES1   0.0000
   358 H216      1.8528   -2.3096   -4.5044   H         1 RES1   0.0000
   359 H217      0.6359   -3.4417   -5.0660   H         1 RES1   0.0000
   360 H218      2.2543   -4.0273   -4.7210   H         1 RES1   0.0000
   361 H219      2.6580    1.2524   -2.6323   H         1 RES1   0.0000
   362 H220      2.7601    0.4422   -4.1935   H         1 RES1   0.0000
   363 H221      4.0947    2.2822   -4.3515   H         1 RES1   0.0000
   364 H222      5.2441    0.9779   -4.2767   H         1 RES1   0.0000
   365 H223      6.0343    1.6418   -2.1394   H         1 RES1   0.0000
   366 H224      4.5700    2.5374   -1.7630   H         1 RES1   0.0000
   367 H225      6.4474    3.3538   -4.0059   H         1 RES1   0.0000
   368 H226      6.7252    3.8398   -2.3447   H         1 RES1   0.0000
   369 H227      4.2861    4.6223   -4.0024   H         1 RES1   0.0000
   370 H228      5.7135    5.5905   -3.6867   H         1 RES1   0.0000
   371 H229      5.1296    5.1208   -1.1519   H         1 RES1   0.0000
   372 H230      3.4953    4.8651   -1.7777   H         1 RES1   0.0000
   373 H231      4.2309    7.2261   -0.9194   H         1 RES1   0.0000
   374 H232      4.9862    7.3951   -2.4955   H         1 RES1   0.0000
   375 H233      2.8003    7.0278   -3.5964   H         1 RES1   0.0000
   376 H234      2.7234    8.3617   -2.4586   H         1 RES1   0.0000
   377 H235      2.0357    6.8005   -2.0164   H         1 RES1   0.0000
   378 H236      4.8422   -2.1220   -2.0374   H         1 RES1   0.0000
   379 H237      5.5726   -0.6175   -2.5887   H         1 RES1   0.0000
   380 H238      5.0536   -1.1441   -4.9136   H         1 RES1   0.0000
   381 H239      3.8971   -2.3761   -4.4192   H         1 RES1   0.0000
   382 H240      5.7503   -3.5582   -5.2012   H         1 RES1   0.0000
   383 H241      5.8091   -3.7163   -3.4589   H         1 RES1   0.0000
   384 H242      7.3544   -1.3944   -4.4730   H         1 RES1   0.0000
   385 H243      7.9161   -2.9224   -5.1270   H         1 RES1   0.0000
   386 H244      7.6185   -2.3632   -2.1509   H         1 RES1   0.0000
   387 H245      9.1075   -2.2123   -3.0613   H         1 RES1   0.0000
   388 H246      8.9265   -4.6161   -3.7382   H         1 RES1   0.0000
   389 H247      7.5372   -4.8006   -2.6777   H         1 RES1   0.0000
   390 H248      8.9340   -4.1534   -0.7249   H         1 RES1   0.0000
   391 H249     10.3181   -3.9274   -1.7827   H         1 RES1   0.0000
   392 H250      8.8466   -6.5918   -1.5229   H         1 RES1   0.0000
   393 H251     10.3015   -6.1723   -0.6170   H         1 RES1   0.0000
   394 H252     10.3578   -6.2961   -2.3725   H         1 RES1   0.0000
@<TRIPOS>BOND
     1     1    20    1
     2     1    25    1
     3     1    31    1
     4     1   151    1
     5     1   156    1
     6     1   162    1
     7     1   282    1
     8     1   287    1
     9     1   293    1
    10     2     3    1
    11     2    49    1
    12     2    50    1
    13     2    51    1
    14     3     4    1
    15     3    52    1
    16     3    53    1
    17     4     5    1
    18     4    54    1
    19     4    55    1
    20     5     6    1
    21     5    56    1
    22     5    57    1
    23     6     7    1
    24     6    58    1
    25     6    59    1
    26     7     8    1
    27     7    60    1
    28     7    61    1
    29     8     9    1
    30     8    62    1
    31     8    63    1
    32     9    10    1
    33     9    64    1
    34     9    65    1
    35    10    11    1
    36    10    19    1
    37    11    12    1
    38    11    66    1
    39    11    67    1
    40    12    13    1
    41    12    68    1
    42    12    69    1
    43    13    14    1
    44    13    70    1
    45    13    71    1
    46    14    15    1
    47    14    72    1
    48    14    73    1
    49    15    16    1
    50    15    74    1
    51    15    75    1
    52    16    17    1
    53    16    76    1
    54    16    77    1
    55    17    18    1
    56    17    78    1
    57    17    79    1
    58    18    80    1
    59    18    81    1
    60    18    82    1
    61    19    20    2
    62    19    21    1
    63    21    22    1
    64    21    25    1
    65    21    83    1
    66    22    23    1
    67    22    84    1
    68    22    85    1
    69    23    24    1
    70    23    86    1
    71    23    87    1
    72    24    88    1
    73    24    89    1
    74    24    90    1
    75    25    26    1
    76    26    27    1
    77    26    30    1
    78    26    91    1
    79    27    28    1
    80    27    92    1
    81    27    93    1
    82    28    29    1
    83    28    94    1
    84    28    95    1
    85    29    96    1
    86    29    97    1
    87    29    98    1
    88    30    31    2
    89    30    32    1
    90    32    33    1
    91    32    41    1
    92    33    34    1
    93    33    99    1
    94    33   100    1
    95    34    35    1
    96    34   101    1
    97    34   102    1
    98    35    36    1
    99    35   103    1
   100    35   104    1
   101    36    37    1
   102    36   105    1
   103    36   106    1
   104    37    38    1
   105    37   107    1
   106    37   108    1
   107    38    39    1
   108    38   109    1
   109    38   110    1
   110    39    40    1
   111    39   111    1
   112    39   112    1
   113    40   113    1
   114    40   114    1
   115    40   115    1
   116    41    42    1
   117    41   116    1
   118    41   117    1
   119    42    43    1
   120    42   118    1
   121    42   119    1
   122    43    44    1
   123    43   120    1
   124    43   121    1
   125    44    45    1
   126    44   122    1
   127    44   123    1
   128    45    46    1
   129    45   124    1
   130    45   125    1
   131    46    47    1
   132    46   126    1
   133    46   127    1
   134    47    48    1
   135    47   128    1
   136    47   129    1
   137    48   130    1
   138    48   131    1
   139    48   132    1
   140   133   134    1
   141   133   180    1
   142   133   181    1
   143   133   182    1
   144   134   135    1
   145   134   183    1
   146   134   184    1
   147   135   136    1
   148   135   185    1
   149   135   186    1
   150   136   137    1
   151   136   187    1
   152   136   188    1
   153   137   138    1
   154   137   189    1
   155   137   190    1
   156   138   139    1
   157   138   191    1
   158   138   192    1
   159   139   140    1
   160   139   193    1
   161   139   194    1
   162   140   141    1
   163   140   195    1
   164   140   196    1
   165   141   142    1
   166   141   150    1
   167   142   143    1
   168   142   197    1
   169   142   198    1
   170   143   144    1
   171   143   199    1
   172   143   200    1
   173   144   145    1
   174   144   201    1
   175   144   202    1
   176   145   146    1
   177   145   203    1
   178   145   204    1
   179   146   147    1
   180   146   205    1
   181   146   206    1
   182   147   148    1
   183   147   207    1
   184   147   208    1
   185   148   149    1
   186   148   209    1
   187   148   210    1
   188   149   211    1
   189   149   212    1
   190   149   213    1
   191   150   151    2
   192   150   152    1
   193   152   153    1
   194   152   156    1
   195   152   214    1
   196   153   154    1
   197   153   215    1
   198   153   216    1
   199   154   155    1
   200   154   217    1
   201   154   218    1
   202   155   219    1
   203   155   220    1
   204   155   221    1
   205   156   157    1
   206   157   158    1
   207   157   161    1
   208   157   222    1
   209   158   159    1
   210   158   223    1
   211   158   224    1
   212   159   160    1
   213   159   225    1
   214   159   226    1
   215   160   227    1
   216   160   228    1
   217   160   229    1
   218   161   162    2
   219   161   163    1
   220   163   164    1
   221   163   172    1
   222   164   165    1
   223   164   230    1
   224   164   231    1
   225   165   166    1
   226   165   232    1
   227   165   233    1
   228   166   167    1
   229   166   234    1
   230   166   235    1
   231   167   168    1
   232   167   236    1
   233   167   237    1
   234   168   169    1
   235   168   238    1
   236   168   239    1
   237   169   170    1
   238   169   240    1
   239   169   241    1
   240   170   171    1
   241   170   242    1
   242   170   243    1
   243   171   244    1
   244   171   245    1
   245   171   246    1
   246   172   173    1
   247   172   247    1
   248   172   248    1
   249   173   174    1
   250   173   249    1
   251   173   250    1
   252   174   175    1
   253   174   251    1
   254   174   252    1
   255   175   176    1
   256   175   253    1
   257   175   254    1
   258   176   177    1
   259   176   255    1
   260   176   256    1
   261   177   178    1
   262   177   257    1
   263   177   258    1
   264   178   179    1
   265   178   259    1
   266   178   260    1
   267   179   261    1
   268   179   262    1
   269   179   263    1
   270   264   265    1
   271   264   311    1
   272   264   312    1
   273   264   313    1
   274   265   266    1
   275   265   314    1
   276   265   315    1
   277   266   267    1
   278   266   316    1
   279   266   317    1
   280   267   268    1
   281   267   318    1
   282   267   319    1
   283   268   269    1
   284   268   320    1
   285   268   321    1
   286   269   270    1
   287   269   322    1
   288   269   323    1
   289   270   271    1
   290   270   324    1
   291   270   325    1
   292   271   272    1
   293   271   326    1
   294   271   327    1
   295   272   273    1
   296   272   281    1
   297   273   274    1
   298   273   328    1
   299   273   329    1
   300   274   275    1
   301   274   330    1
   302   274   331    1
   303   275   276    1
   304   275   332    1
   305   275   333    1
   306   276   277    1
   307   276   334    1
   308   276   335    1
   309   277   278    1
   310   277   336    1
   311   277   337    1
   312   278   279    1
   313   278   338    1
   314   278   339    1
   315   279   280    1
   316   279   340    1
   317   279   341    1
   318   280   342    1
   319   280   343    1
   320   280   344    1
   321   281   282    2
   322   281   283    1
   323   283   284    1
   324   283   287    1
   325   283   345    1
   326   284   285    1
   327   284   346    1
   328   284   347    1
   329   285   286    1
   330   285   348    1
   331   285   349    1
   332   286   350    1
   333   286   351    1
   334   286   352    1
   335   287   288    1
   336   288   289    1
   337   288   292    1
   338   288   353    1
   339   289   290    1
   340   289   354    1
   341   289   355    1
   342   290   291    1
   343   290   356    1
   344   290   357    1
   345   291   358    1
   346   291   359    1
   347   291   360    1
   348   292   293    2
   349   292   294    1
   350   294   295    1
   351   294   303    1
   352   295   296    1
   353   295   361    1
   354   295   362    1
   355   296   297    1
   356   296   363    1
   357   296   364    1
   358   297   298    1
   359   297   365    1
   360   297   366    1
   361   298   299    1
   362   298   367    1
   363   298   368    1
   364   299   300    1
   365   299   369    1
   366   299   370    1
   367   300   301    1
   368   300   371    1
   369   300   372    1
   370   301   302    1
   371   301   373    1
   372   301   374    1
   373   302   375    1
   374   302   376    1
   375   302   377    1
   376   303   304    1
   377   303   378    1
   378   303   379    1
   379   304   305    1
   380   304   380    1
   381   304   381    1
   382   305   306    1
   383   305   382    1
   384   305   383    1
   385   306   307    1
   386   306   384    1
   387   306   385    1
   388   307   308    1
   389   307   386    1
   390   307   387    1
   391   308   309    1
   392   308   388    1
   393   308   389    1
   394   309   310    1
   395   309   390    1
   396   309   391    1
   397   310   392    1
   398   310   393    1
   399   310   394    1
@<TRIPOS>SUBSTRUCTURE
     1 RES1      394 GROUP             0 ****  ****    0  
