@<TRIPOS>MOLECULE
tri_tri_mer_capped_0_nunpairedes_0_charge_3 Charge: 3 Unpaired_Electrons: 6 XTB_Unpaired_Electrons: 0 XTB_Charge: 3
   358   363     1     0     0
SMALL
NoCharges
****
Generated from Architector

@<TRIPOS>ATOM
     1 Eu1       0.0334    0.0105   -0.0467   Eu        1 RES1   0.0000
     2 C1       -7.3089   -0.4457    6.1399   C.3       1 RES1   0.0000
     3 C2       -5.8215   -0.7714    6.1990   C.3       1 RES1   0.0000
     4 C3       -5.6089   -2.2811    6.2935   C.3       1 RES1   0.0000
     5 C4       -4.1526   -2.7379    6.1862   C.3       1 RES1   0.0000
     6 C5       -3.2434   -2.2623    7.3211   C.3       1 RES1   0.0000
     7 C6       -1.7800   -2.6482    7.0568   C.3       1 RES1   0.0000
     8 C7       -1.0044   -1.5472    6.3175   C.3       1 RES1   0.0000
     9 C8        0.2332   -2.0621    5.5466   C.3       1 RES1   0.0000
    10 N1        0.0344   -2.1622    4.1058   N.am      1 RES1   0.0000
    11 C9       -0.6642   -3.3665    3.6407   C.3       1 RES1   0.0000
    12 C10       0.0284   -4.6938    3.9619   C.3       1 RES1   0.0000
    13 C11       1.3812   -4.9064    3.2784   C.3       1 RES1   0.0000
    14 C12       2.5029   -4.0212    3.8225   C.3       1 RES1   0.0000
    15 C13       3.8949   -4.4603    3.3613   C.3       1 RES1   0.0000
    16 C14       4.4271   -5.7528    3.9897   C.3       1 RES1   0.0000
    17 C15       4.6376   -5.7228    5.5068   C.3       1 RES1   0.0000
    18 C16       5.6087   -4.6469    5.9784   C.3       1 RES1   0.0000
    19 C17       0.3519   -1.2382    3.1962   C.2       1 RES1   0.0000
    20 O1        0.0091   -1.3413    2.0022   O.2       1 RES1   0.0000
    21 C18       1.2394   -0.0246    3.5521   C.3       1 RES1   0.0000
    22 C19       0.6949    0.9415    4.6075   C.3       1 RES1   0.0000
    23 O2        1.3992    0.6932    2.3173   O.3       1 RES1   0.0000
    24 C20       2.6975    1.2405    2.0591   C.3       1 RES1   0.0000
    25 C21       2.4712    2.6324    1.4730   C.3       1 RES1   0.0000
    26 C22       3.3451    0.3291    0.9921   C.2       1 RES1   0.0000
    27 O3        2.5478   -0.1195    0.1398   O.2       1 RES1   0.0000
    28 N2        4.6435    0.0285    1.0001   N.am      1 RES1   0.0000
    29 C23       5.1665   -1.0045    0.0970   C.3       1 RES1   0.0000
    30 C24       6.1230   -0.5049   -0.9991   C.3       1 RES1   0.0000
    31 C25       6.4141   -1.5890   -2.0537   C.3       1 RES1   0.0000
    32 C26       6.5871   -0.9859   -3.4525   C.3       1 RES1   0.0000
    33 C27       6.3534   -1.9818   -4.5941   C.3       1 RES1   0.0000
    34 C28       6.2703   -1.3342   -5.9851   C.3       1 RES1   0.0000
    35 C29       4.9469   -0.6184   -6.2956   C.3       1 RES1   0.0000
    36 C30       4.9764    0.8889   -6.0578   C.3       1 RES1   0.0000
    37 C31       5.6199    0.5789    1.9320   C.3       1 RES1   0.0000
    38 C32       6.2616    1.8810    1.4379   C.3       1 RES1   0.0000
    39 C33       7.0673    2.6195    2.5175   C.3       1 RES1   0.0000
    40 C34       8.5632    2.2975    2.5405   C.3       1 RES1   0.0000
    41 C35       8.8960    0.8503    2.8982   C.3       1 RES1   0.0000
    42 C36      10.3914    0.6755    3.1721   C.3       1 RES1   0.0000
    43 C37      10.7620   -0.7266    3.6561   C.3       1 RES1   0.0000
    44 C38      10.4507   -1.8209    2.6406   C.3       1 RES1   0.0000
    45 H1       -7.4744    0.6273    6.0976   H         1 RES1   0.0000
    46 H2       -7.7639   -0.9013    5.2628   H         1 RES1   0.0000
    47 H3       -7.8122   -0.8326    7.0206   H         1 RES1   0.0000
    48 H4       -5.3281   -0.3773    5.3042   H         1 RES1   0.0000
    49 H5       -5.3792   -0.2799    7.0658   H         1 RES1   0.0000
    50 H6       -6.0277   -2.6335    7.2362   H         1 RES1   0.0000
    51 H7       -6.1766   -2.7559    5.4874   H         1 RES1   0.0000
    52 H8       -4.1479   -3.8317    6.1796   H         1 RES1   0.0000
    53 H9       -3.7414   -2.4018    5.2304   H         1 RES1   0.0000
    54 H10      -3.3230   -1.1815    7.4409   H         1 RES1   0.0000
    55 H11      -3.5846   -2.7200    8.2488   H         1 RES1   0.0000
    56 H12      -1.2747   -2.8495    8.0005   H         1 RES1   0.0000
    57 H13      -1.7721   -3.5742    6.4807   H         1 RES1   0.0000
    58 H14      -1.6746   -1.0322    5.6314   H         1 RES1   0.0000
    59 H15      -0.6831   -0.8149    7.0617   H         1 RES1   0.0000
    60 H16       1.1017   -1.4383    5.7507   H         1 RES1   0.0000
    61 H17       0.4676   -3.0618    5.9110   H         1 RES1   0.0000
    62 H18      -1.6696   -3.3772    4.0773   H         1 RES1   0.0000
    63 H19      -0.7485   -3.2756    2.5553   H         1 RES1   0.0000
    64 H20       0.1345   -4.8247    5.0386   H         1 RES1   0.0000
    65 H21      -0.6593   -5.4671    3.6113   H         1 RES1   0.0000
    66 H22       1.6564   -5.9512    3.4257   H         1 RES1   0.0000
    67 H23       1.2749   -4.7372    2.2018   H         1 RES1   0.0000
    68 H24       2.3423   -2.9981    3.4735   H         1 RES1   0.0000
    69 H25       2.4752   -4.0179    4.9124   H         1 RES1   0.0000
    70 H26       3.8762   -4.5856    2.2741   H         1 RES1   0.0000
    71 H27       4.5994   -3.6550    3.5793   H         1 RES1   0.0000
    72 H28       3.7574   -6.5820    3.7518   H         1 RES1   0.0000
    73 H29       5.3880   -5.9716    3.5205   H         1 RES1   0.0000
    74 H30       3.6817   -5.6034    6.0210   H         1 RES1   0.0000
    75 H31       5.0350   -6.6964    5.7991   H         1 RES1   0.0000
    76 H32       5.2053   -3.6494    5.8209   H         1 RES1   0.0000
    77 H33       5.8054   -4.7644    7.0401   H         1 RES1   0.0000
    78 H34       6.5561   -4.7254    5.4523   H         1 RES1   0.0000
    79 H35       2.2066   -0.4380    3.8732   H         1 RES1   0.0000
    80 H36      -0.3612    1.1321    4.4435   H         1 RES1   0.0000
    81 H37       0.8309    0.5673    5.6154   H         1 RES1   0.0000
    82 H38       1.2317    1.8844    4.5298   H         1 RES1   0.0000
    83 H39       3.2744    1.3022    2.9829   H         1 RES1   0.0000
    84 H40       1.8115    2.5137    0.6085   H         1 RES1   0.0000
    85 H41       1.9850    3.2708    2.2086   H         1 RES1   0.0000
    86 H42       3.3983    3.1047    1.1713   H         1 RES1   0.0000
    87 H43       5.6892   -1.7424    0.7151   H         1 RES1   0.0000
    88 H44       4.3004   -1.4893   -0.3609   H         1 RES1   0.0000
    89 H45       7.0623   -0.1790   -0.5569   H         1 RES1   0.0000
    90 H46       5.6750    0.3555   -1.4993   H         1 RES1   0.0000
    91 H47       7.3043   -2.1537   -1.7822   H         1 RES1   0.0000
    92 H48       5.5932   -2.3029   -2.0658   H         1 RES1   0.0000
    93 H49       5.8834   -0.1620   -3.5582   H         1 RES1   0.0000
    94 H50       7.5913   -0.5710   -3.5423   H         1 RES1   0.0000
    95 H51       7.1710   -2.7039   -4.5979   H         1 RES1   0.0000
    96 H52       5.4281   -2.5449   -4.4282   H         1 RES1   0.0000
    97 H53       7.0999   -0.6403   -6.1175   H         1 RES1   0.0000
    98 H54       6.3983   -2.1313   -6.7190   H         1 RES1   0.0000
    99 H55       4.7012   -0.7724   -7.3475   H         1 RES1   0.0000
   100 H56       4.1416   -1.0787   -5.7156   H         1 RES1   0.0000
   101 H57       5.7129    1.3510   -6.7083   H         1 RES1   0.0000
   102 H58       4.0086    1.3354   -6.2868   H         1 RES1   0.0000
   103 H59       5.2341    1.1392   -5.0326   H         1 RES1   0.0000
   104 H60       5.1502    0.7668    2.8987   H         1 RES1   0.0000
   105 H61       6.3919   -0.1770    2.0778   H         1 RES1   0.0000
   106 H62       6.9098    1.6863    0.5869   H         1 RES1   0.0000
   107 H63       5.4590    2.5300    1.0811   H         1 RES1   0.0000
   108 H64       6.9709    3.6911    2.3386   H         1 RES1   0.0000
   109 H65       6.6406    2.4158    3.5012   H         1 RES1   0.0000
   110 H66       9.0055    2.5420    1.5738   H         1 RES1   0.0000
   111 H67       9.0263    2.9524    3.2798   H         1 RES1   0.0000
   112 H68       8.3333    0.5577    3.7901   H         1 RES1   0.0000
   113 H69       8.6017    0.1953    2.0751   H         1 RES1   0.0000
   114 H70      10.9578    0.9054    2.2673   H         1 RES1   0.0000
   115 H71      10.6877    1.3932    3.9387   H         1 RES1   0.0000
   116 H72      11.8323   -0.7426    3.8686   H         1 RES1   0.0000
   117 H73      10.2379   -0.9368    4.5919   H         1 RES1   0.0000
   118 H74      10.9735   -1.6293    1.7056   H         1 RES1   0.0000
   119 H75      10.7747   -2.7875    3.0190   H         1 RES1   0.0000
   120 H76       9.3812   -1.8790    2.4382   H         1 RES1   0.0000
   121 C39       8.7089   -5.3651    3.1742   C.3       1 RES1   0.0000
   122 C40       7.7865   -5.0392    2.0046   C.3       1 RES1   0.0000
   123 C41       7.4130   -6.3026    1.2256   C.3       1 RES1   0.0000
   124 C42       6.2352   -6.1246    0.2646   C.3       1 RES1   0.0000
   125 C43       6.5487   -5.1759   -0.8900   C.3       1 RES1   0.0000
   126 C44       5.4146   -5.0514   -1.9111   C.3       1 RES1   0.0000
   127 C45       4.1394   -4.4544   -1.3081   C.3       1 RES1   0.0000
   128 C46       3.1128   -4.0800   -2.3919   C.3       1 RES1   0.0000
   129 N3        1.8727   -3.5742   -1.8177   N.am      1 RES1   0.0000
   130 C47       1.0196   -4.6121   -1.2302   C.3       1 RES1   0.0000
   131 C48       0.2963   -5.4557   -2.2950   C.3       1 RES1   0.0000
   132 C49      -0.5437   -4.6270   -3.2747   C.3       1 RES1   0.0000
   133 C50       0.2461   -4.1190   -4.4847   C.3       1 RES1   0.0000
   134 C51      -0.4549   -2.9615   -5.2020   C.3       1 RES1   0.0000
   135 C52      -1.5516   -3.3953   -6.1782   C.3       1 RES1   0.0000
   136 C53      -1.0293   -3.9430   -7.5092   C.3       1 RES1   0.0000
   137 C54      -0.2794   -2.9174   -8.3530   C.3       1 RES1   0.0000
   138 C55       1.4507   -2.3120   -1.7299   C.2       1 RES1   0.0000
   139 O4        0.5455   -2.0091   -0.9232   O.2       1 RES1   0.0000
   140 C56       1.8478   -1.2069   -2.7464   C.3       1 RES1   0.0000
   141 C57       3.2717   -0.6825   -2.8421   C.3       1 RES1   0.0000
   142 O5        1.0322   -0.0784   -2.3959   O.3       1 RES1   0.0000
   143 C58       0.6488    0.7765   -3.4830   C.3       1 RES1   0.0000
   144 C59       1.2118    2.1649   -3.2046   C.3       1 RES1   0.0000
   145 C60      -0.9061    0.7251   -3.4804   C.2       1 RES1   0.0000
   146 O6       -1.4196    0.3751   -2.4058   O.2       1 RES1   0.0000
   147 N4       -1.5760    0.9497   -4.6149   N.am      1 RES1   0.0000
   148 C61      -2.8351    0.2646   -4.9380   C.3       1 RES1   0.0000
   149 C62      -4.0377    1.1153   -5.3687   C.3       1 RES1   0.0000
   150 C63      -5.1847    0.2271   -5.8874   C.3       1 RES1   0.0000
   151 C64      -6.5692    0.8684   -5.6861   C.3       1 RES1   0.0000
   152 C65      -7.1991    0.4591   -4.3555   C.3       1 RES1   0.0000
   153 C66      -8.5461    1.1284   -4.0910   C.3       1 RES1   0.0000
   154 C67      -9.1885    0.6566   -2.7742   C.3       1 RES1   0.0000
   155 C68      -9.0583    1.6683   -1.6388   C.3       1 RES1   0.0000
   156 C69      -1.0505    1.7771   -5.6910   C.3       1 RES1   0.0000
   157 C70      -1.4669    3.2482   -5.5043   C.3       1 RES1   0.0000
   158 C71      -0.5975    4.2296   -6.3015   C.3       1 RES1   0.0000
   159 C72      -1.1287    4.5139   -7.7083   C.3       1 RES1   0.0000
   160 C73      -1.1950    3.2721   -8.5939   C.3       1 RES1   0.0000
   161 C74      -1.4008    3.6175  -10.0671   C.3       1 RES1   0.0000
   162 C75      -1.2715    2.3971  -10.9828   C.3       1 RES1   0.0000
   163 C76      -2.1658    1.2269  -10.5814   C.3       1 RES1   0.0000
   164 H77       8.9693   -4.4640    3.7230   H         1 RES1   0.0000
   165 H78       8.2285   -6.0571    3.8623   H         1 RES1   0.0000
   166 H79       9.6258   -5.8263    2.8181   H         1 RES1   0.0000
   167 H80       6.8771   -4.5613    2.3827   H         1 RES1   0.0000
   168 H81       8.2892   -4.3279    1.3447   H         1 RES1   0.0000
   169 H82       8.2842   -6.6448    0.6662   H         1 RES1   0.0000
   170 H83       7.1545   -7.0889    1.9385   H         1 RES1   0.0000
   171 H84       5.9707   -7.1019   -0.1450   H         1 RES1   0.0000
   172 H85       5.3737   -5.7577    0.8289   H         1 RES1   0.0000
   173 H86       6.7884   -4.1890   -0.4887   H         1 RES1   0.0000
   174 H87       7.4352   -5.5473   -1.4069   H         1 RES1   0.0000
   175 H88       5.7636   -4.4279   -2.7352   H         1 RES1   0.0000
   176 H89       5.1904   -6.0356   -2.3235   H         1 RES1   0.0000
   177 H90       3.7022   -5.1886   -0.6331   H         1 RES1   0.0000
   178 H91       4.3925   -3.5749   -0.7100   H         1 RES1   0.0000
   179 H92       3.5430   -3.3490   -3.0733   H         1 RES1   0.0000
   180 H93       2.8878   -4.9839   -2.9628   H         1 RES1   0.0000
   181 H94       1.6236   -5.2699   -0.6021   H         1 RES1   0.0000
   182 H95       0.2784   -4.1098   -0.6048   H         1 RES1   0.0000
   183 H96       1.0060   -6.0779   -2.8416   H         1 RES1   0.0000
   184 H97      -0.3562   -6.1374   -1.7447   H         1 RES1   0.0000
   185 H98      -1.3717   -5.2367   -3.6340   H         1 RES1   0.0000
   186 H99      -0.9702   -3.7752   -2.7357   H         1 RES1   0.0000
   187 H100      1.2292   -3.7813   -4.1604   H         1 RES1   0.0000
   188 H101      0.4132   -4.9408   -5.1814   H         1 RES1   0.0000
   189 H102     -0.8866   -2.2962   -4.4445   H         1 RES1   0.0000
   190 H103      0.2849   -2.3840   -5.7607   H         1 RES1   0.0000
   191 H104     -2.1807   -4.1530   -5.7082   H         1 RES1   0.0000
   192 H105     -2.1869   -2.5312   -6.3890   H         1 RES1   0.0000
   193 H106     -0.3809   -4.8013   -7.3310   H         1 RES1   0.0000
   194 H107     -1.8869   -4.2980   -8.0823   H         1 RES1   0.0000
   195 H108      0.6680   -2.6346   -7.8992   H         1 RES1   0.0000
   196 H109     -0.0623   -3.3338   -9.3320   H         1 RES1   0.0000
   197 H110     -0.8757   -2.0201   -8.5010   H         1 RES1   0.0000
   198 H111      1.5223   -1.6083   -3.7203   H         1 RES1   0.0000
   199 H112      4.0007   -1.4552   -3.0434   H         1 RES1   0.0000
   200 H113      3.3209    0.0372   -3.6592   H         1 RES1   0.0000
   201 H114      3.5170   -0.1680   -1.9166   H         1 RES1   0.0000
   202 H115      1.0284    0.3645   -4.4263   H         1 RES1   0.0000
   203 H116      1.0159    2.3935   -2.1540   H         1 RES1   0.0000
   204 H117      2.2855    2.1919   -3.3719   H         1 RES1   0.0000
   205 H118      0.7465    2.9183   -3.8322   H         1 RES1   0.0000
   206 H119     -2.5928   -0.4118   -5.7690   H         1 RES1   0.0000
   207 H120     -3.1030   -0.3404   -4.0701   H         1 RES1   0.0000
   208 H121     -4.3960    1.7150   -4.5351   H         1 RES1   0.0000
   209 H122     -3.7640    1.7989   -6.1737   H         1 RES1   0.0000
   210 H123     -5.0238    0.0245   -6.9476   H         1 RES1   0.0000
   211 H124     -5.1696   -0.7368   -5.3735   H         1 RES1   0.0000
   212 H125     -6.4839    1.9563   -5.7375   H         1 RES1   0.0000
   213 H126     -7.2376    0.5537   -6.4887   H         1 RES1   0.0000
   214 H127     -7.3371   -0.6255   -4.3546   H         1 RES1   0.0000
   215 H128     -6.5136    0.7108   -3.5468   H         1 RES1   0.0000
   216 H129     -8.4133    2.2109   -4.0584   H         1 RES1   0.0000
   217 H130     -9.2079    0.9063   -4.9272   H         1 RES1   0.0000
   218 H131    -10.2505    0.4689   -2.9327   H         1 RES1   0.0000
   219 H132     -8.7362   -0.2924   -2.4717   H         1 RES1   0.0000
   220 H133     -9.6571    2.5517   -1.8444   H         1 RES1   0.0000
   221 H134     -9.4081    1.2380   -0.7023   H         1 RES1   0.0000
   222 H135     -8.0270    1.9861   -1.5063   H         1 RES1   0.0000
   223 H136      0.0375    1.7232   -5.7252   H         1 RES1   0.0000
   224 H137     -1.4373    1.3871   -6.6316   H         1 RES1   0.0000
   225 H138     -2.5047    3.3898   -5.8019   H         1 RES1   0.0000
   226 H139     -1.4130    3.4799   -4.4369   H         1 RES1   0.0000
   227 H140     -0.5409    5.1774   -5.7603   H         1 RES1   0.0000
   228 H141      0.4219    3.8421   -6.3812   H         1 RES1   0.0000
   229 H142     -2.1205    4.9651   -7.6394   H         1 RES1   0.0000
   230 H143     -0.4674    5.2458   -8.1726   H         1 RES1   0.0000
   231 H144     -0.2666    2.7037   -8.4895   H         1 RES1   0.0000
   232 H145     -2.0237    2.6449   -8.2659   H         1 RES1   0.0000
   233 H146     -2.3851    4.0690  -10.1987   H         1 RES1   0.0000
   234 H147     -0.6570    4.3568  -10.3698   H         1 RES1   0.0000
   235 H148     -1.5268    2.7028  -11.9991   H         1 RES1   0.0000
   236 H149     -0.2300    2.0646  -10.9923   H         1 RES1   0.0000
   237 H150     -3.2032    1.5440  -10.4990   H         1 RES1   0.0000
   238 H151     -2.1112    0.4401  -11.3294   H         1 RES1   0.0000
   239 H152     -1.8529    0.8019   -9.6288   H         1 RES1   0.0000
   240 C77      -1.6178   -9.4440    1.1395   C.3       1 RES1   0.0000
   241 C78      -2.3213   -8.1123    1.3691   C.3       1 RES1   0.0000
   242 C79      -2.9887   -7.6195    0.0891   C.3       1 RES1   0.0000
   243 C80      -3.5915   -6.2201    0.2141   C.3       1 RES1   0.0000
   244 C81      -4.7742   -6.1570    1.1853   C.3       1 RES1   0.0000
   245 C82      -5.4378   -4.7783    1.2364   C.3       1 RES1   0.0000
   246 C83      -4.6180   -3.7248    1.9981   C.3       1 RES1   0.0000
   247 C84      -4.8886   -2.2957    1.4882   C.3       1 RES1   0.0000
   248 N5       -3.8066   -1.8396    0.6394   N.am      1 RES1   0.0000
   249 C85      -3.7133   -2.5283   -0.6454   C.3       1 RES1   0.0000
   250 C86      -4.7756   -2.0079   -1.6138   C.3       1 RES1   0.0000
   251 C87      -4.5745   -0.5204   -1.9202   C.3       1 RES1   0.0000
   252 C88      -5.2821    0.4592   -0.9768   C.3       1 RES1   0.0000
   253 C89      -4.4212    1.6950   -0.6984   C.3       1 RES1   0.0000
   254 C90      -4.0952    2.5802   -1.9044   C.3       1 RES1   0.0000
   255 C91      -5.2664    3.3793   -2.4786   C.3       1 RES1   0.0000
   256 C92      -5.8278    4.3908   -1.4849   C.3       1 RES1   0.0000
   257 C93      -2.9002   -0.9050    0.8720   C.2       1 RES1   0.0000
   258 O7       -1.9457   -0.7471    0.0852   O.2       1 RES1   0.0000
   259 C94      -3.0078    0.1140    2.0295   C.3       1 RES1   0.0000
   260 C95      -2.9561   -0.5016    3.4219   C.3       1 RES1   0.0000
   261 O8       -1.8851    0.9931    1.8535   O.3       1 RES1   0.0000
   262 C96      -2.1601    2.3969    1.8306   C.3       1 RES1   0.0000
   263 C97      -1.7314    3.0542    3.1461   C.3       1 RES1   0.0000
   264 C98      -1.3919    2.9619    0.6205   C.2       1 RES1   0.0000
   265 O9       -0.5142    2.2494    0.0759   O.2       1 RES1   0.0000
   266 N6       -1.6672    4.1735    0.1600   N.am      1 RES1   0.0000
   267 C99      -0.9631    4.6394   -1.0335   C.3       1 RES1   0.0000
   268 C100      0.4625    5.1413   -0.7780   C.3       1 RES1   0.0000
   269 C101      1.0320    5.7960   -2.0408   C.3       1 RES1   0.0000
   270 C102      2.4787    6.2773   -1.8947   C.3       1 RES1   0.0000
   271 C103      3.5149    5.1646   -2.0481   C.3       1 RES1   0.0000
   272 C104      4.9563    5.6648   -1.8706   C.3       1 RES1   0.0000
   273 C105      5.5390    5.3855   -0.4849   C.3       1 RES1   0.0000
   274 C106      4.8508    6.1442    0.6441   C.3       1 RES1   0.0000
   275 C107     -2.6144    5.1098    0.7428   C.3       1 RES1   0.0000
   276 C108     -1.9224    6.1555    1.6273   C.3       1 RES1   0.0000
   277 C109     -2.8533    6.7278    2.7052   C.3       1 RES1   0.0000
   278 C110     -3.8073    7.8393    2.2604   C.3       1 RES1   0.0000
   279 C111     -4.9508    7.4319    1.3269   C.3       1 RES1   0.0000
   280 C112     -6.0535    8.4941    1.3533   C.3       1 RES1   0.0000
   281 C113     -7.2346    8.2164    0.4212   C.3       1 RES1   0.0000
   282 C114     -6.8962    8.3908   -1.0560   C.3       1 RES1   0.0000
   283 H153     -1.1752   -9.8124    2.0613   H         1 RES1   0.0000
   284 H154     -0.8301   -9.3399    0.3951   H         1 RES1   0.0000
   285 H155     -2.3264  -10.1867    0.7823   H         1 RES1   0.0000
   286 H156     -1.5952   -7.3676    1.7121   H         1 RES1   0.0000
   287 H157     -3.0710   -8.2361    2.1505   H         1 RES1   0.0000
   288 H158     -3.7663   -8.3249   -0.2041   H         1 RES1   0.0000
   289 H159     -2.2423   -7.6088   -0.7096   H         1 RES1   0.0000
   290 H160     -3.9349   -5.9108   -0.7783   H         1 RES1   0.0000
   291 H161     -2.7994   -5.5313    0.5290   H         1 RES1   0.0000
   292 H162     -4.4513   -6.4396    2.1867   H         1 RES1   0.0000
   293 H163     -5.5183   -6.8855    0.8596   H         1 RES1   0.0000
   294 H164     -6.4161   -4.8701    1.7084   H         1 RES1   0.0000
   295 H165     -5.6222   -4.4508    0.2131   H         1 RES1   0.0000
   296 H166     -3.5519   -3.9340    1.8933   H         1 RES1   0.0000
   297 H167     -4.8563   -3.7924    3.0593   H         1 RES1   0.0000
   298 H168     -5.0467   -1.6024    2.3090   H         1 RES1   0.0000
   299 H169     -5.8046   -2.2978    0.8950   H         1 RES1   0.0000
   300 H170     -3.8069   -3.5987   -0.4829   H         1 RES1   0.0000
   301 H171     -2.7229   -2.3214   -1.0576   H         1 RES1   0.0000
   302 H172     -5.7747   -2.1950   -1.2195   H         1 RES1   0.0000
   303 H173     -4.6834   -2.5860   -2.5355   H         1 RES1   0.0000
   304 H174     -4.9302   -0.3331   -2.9301   H         1 RES1   0.0000
   305 H175     -3.5036   -0.3175   -1.8817   H         1 RES1   0.0000
   306 H176     -5.5106   -0.0243   -0.0264   H         1 RES1   0.0000
   307 H177     -6.2402    0.7580   -1.4013   H         1 RES1   0.0000
   308 H178     -3.4617    1.3417   -0.3114   H         1 RES1   0.0000
   309 H179     -4.9069    2.3047    0.0688   H         1 RES1   0.0000
   310 H180     -3.6482    1.9537   -2.6761   H         1 RES1   0.0000
   311 H181     -3.3250    3.2893   -1.5936   H         1 RES1   0.0000
   312 H182     -6.0678    2.7155   -2.8032   H         1 RES1   0.0000
   313 H183     -4.9072    3.9124   -3.3639   H         1 RES1   0.0000
   314 H184     -6.3420    3.8972   -0.6614   H         1 RES1   0.0000
   315 H185     -6.5428    5.0431   -1.9782   H         1 RES1   0.0000
   316 H186     -5.0297    5.0073   -1.0740   H         1 RES1   0.0000
   317 H187     -3.9532    0.6652    1.9135   H         1 RES1   0.0000
   318 H188     -2.1341   -1.2020    3.4691   H         1 RES1   0.0000
   319 H189     -3.8840   -1.0081    3.6654   H         1 RES1   0.0000
   320 H190     -2.8091    0.2887    4.1558   H         1 RES1   0.0000
   321 H191     -3.2380    2.5571    1.6868   H         1 RES1   0.0000
   322 H192     -0.6496    3.0833    3.2188   H         1 RES1   0.0000
   323 H193     -2.1419    2.4917    3.9816   H         1 RES1   0.0000
   324 H194     -2.1089    4.0671    3.2100   H         1 RES1   0.0000
   325 H195     -1.5511    5.4544   -1.4602   H         1 RES1   0.0000
   326 H196     -0.9339    3.8107   -1.7492   H         1 RES1   0.0000
   327 H197      1.0945    4.3103   -0.4634   H         1 RES1   0.0000
   328 H198      0.4483    5.8790    0.0251   H         1 RES1   0.0000
   329 H199      0.4061    6.6555   -2.2839   H         1 RES1   0.0000
   330 H200      0.9762    5.0973   -2.8779   H         1 RES1   0.0000
   331 H201      2.5983    6.7851   -0.9389   H         1 RES1   0.0000
   332 H202      2.6694    7.0120   -2.6776   H         1 RES1   0.0000
   333 H203      3.4021    4.7455   -3.0502   H         1 RES1   0.0000
   334 H204      3.3209    4.3599   -1.3340   H         1 RES1   0.0000
   335 H205      5.0033    6.7345   -2.0738   H         1 RES1   0.0000
   336 H206      5.6009    5.1769   -2.6027   H         1 RES1   0.0000
   337 H207      6.5977    5.6513   -0.4924   H         1 RES1   0.0000
   338 H208      5.4817    4.3088   -0.2927   H         1 RES1   0.0000
   339 H209      4.9190    7.2149    0.4739   H         1 RES1   0.0000
   340 H210      5.3344    5.9261    1.5938   H         1 RES1   0.0000
   341 H211      3.8007    5.8704    0.7251   H         1 RES1   0.0000
   342 H212     -3.3537    4.5708    1.3298   H         1 RES1   0.0000
   343 H213     -3.1417    5.6028   -0.0761   H         1 RES1   0.0000
   344 H214     -1.5369    6.9678    1.0133   H         1 RES1   0.0000
   345 H215     -1.0675    5.6790    2.1185   H         1 RES1   0.0000
   346 H216     -2.2276    7.1419    3.4983   H         1 RES1   0.0000
   347 H217     -3.4456    5.9196    3.1420   H         1 RES1   0.0000
   348 H218     -3.2427    8.6489    1.7981   H         1 RES1   0.0000
   349 H219     -4.2531    8.2453    3.1701   H         1 RES1   0.0000
   350 H220     -5.3738    6.4738    1.6404   H         1 RES1   0.0000
   351 H221     -4.5822    7.3217    0.3059   H         1 RES1   0.0000
   352 H222     -5.6232    9.4613    1.0907   H         1 RES1   0.0000
   353 H223     -6.4325    8.5671    2.3742   H         1 RES1   0.0000
   354 H224     -8.0347    8.9162    0.6718   H         1 RES1   0.0000
   355 H225     -7.6158    7.2073    0.5964   H         1 RES1   0.0000
   356 H226     -6.5433    9.4035   -1.2420   H         1 RES1   0.0000
   357 H227     -7.7794    8.2227   -1.6703   H         1 RES1   0.0000
   358 H228     -6.1245    7.6900   -1.3723   H         1 RES1   0.0000
@<TRIPOS>BOND
     1     1    20    1
     2     1    23    1
     3     1    27    1
     4     1   139    1
     5     1   142    1
     6     1   146    1
     7     1   258    1
     8     1   261    1
     9     1   265    1
    10     2     3    1
    11     2    45    1
    12     2    46    1
    13     2    47    1
    14     3     4    1
    15     3    48    1
    16     3    49    1
    17     4     5    1
    18     4    50    1
    19     4    51    1
    20     5     6    1
    21     5    52    1
    22     5    53    1
    23     6     7    1
    24     6    54    1
    25     6    55    1
    26     7     8    1
    27     7    56    1
    28     7    57    1
    29     8     9    1
    30     8    58    1
    31     8    59    1
    32     9    10    1
    33     9    60    1
    34     9    61    1
    35    10    11    1
    36    10    19    1
    37    11    12    1
    38    11    62    1
    39    11    63    1
    40    12    13    1
    41    12    64    1
    42    12    65    1
    43    13    14    1
    44    13    66    1
    45    13    67    1
    46    14    15    1
    47    14    68    1
    48    14    69    1
    49    15    16    1
    50    15    70    1
    51    15    71    1
    52    16    17    1
    53    16    72    1
    54    16    73    1
    55    17    18    1
    56    17    74    1
    57    17    75    1
    58    18    76    1
    59    18    77    1
    60    18    78    1
    61    19    20    2
    62    19    21    1
    63    21    22    1
    64    21    23    1
    65    21    79    1
    66    22    80    1
    67    22    81    1
    68    22    82    1
    69    23    24    1
    70    24    25    1
    71    24    26    1
    72    24    83    1
    73    25    84    1
    74    25    85    1
    75    25    86    1
    76    26    27    2
    77    26    28    1
    78    28    29    1
    79    28    37    1
    80    29    30    1
    81    29    87    1
    82    29    88    1
    83    30    31    1
    84    30    89    1
    85    30    90    1
    86    31    32    1
    87    31    91    1
    88    31    92    1
    89    32    33    1
    90    32    93    1
    91    32    94    1
    92    33    34    1
    93    33    95    1
    94    33    96    1
    95    34    35    1
    96    34    97    1
    97    34    98    1
    98    35    36    1
    99    35    99    1
   100    35   100    1
   101    36   101    1
   102    36   102    1
   103    36   103    1
   104    37    38    1
   105    37   104    1
   106    37   105    1
   107    38    39    1
   108    38   106    1
   109    38   107    1
   110    39    40    1
   111    39   108    1
   112    39   109    1
   113    40    41    1
   114    40   110    1
   115    40   111    1
   116    41    42    1
   117    41   112    1
   118    41   113    1
   119    42    43    1
   120    42   114    1
   121    42   115    1
   122    43    44    1
   123    43   116    1
   124    43   117    1
   125    44   118    1
   126    44   119    1
   127    44   120    1
   128   121   122    1
   129   121   164    1
   130   121   165    1
   131   121   166    1
   132   122   123    1
   133   122   167    1
   134   122   168    1
   135   123   124    1
   136   123   169    1
   137   123   170    1
   138   124   125    1
   139   124   171    1
   140   124   172    1
   141   125   126    1
   142   125   173    1
   143   125   174    1
   144   126   127    1
   145   126   175    1
   146   126   176    1
   147   127   128    1
   148   127   177    1
   149   127   178    1
   150   128   129    1
   151   128   179    1
   152   128   180    1
   153   129   130    1
   154   129   138    1
   155   130   131    1
   156   130   181    1
   157   130   182    1
   158   131   132    1
   159   131   183    1
   160   131   184    1
   161   132   133    1
   162   132   185    1
   163   132   186    1
   164   133   134    1
   165   133   187    1
   166   133   188    1
   167   134   135    1
   168   134   189    1
   169   134   190    1
   170   135   136    1
   171   135   191    1
   172   135   192    1
   173   136   137    1
   174   136   193    1
   175   136   194    1
   176   137   195    1
   177   137   196    1
   178   137   197    1
   179   138   139    2
   180   138   140    1
   181   140   141    1
   182   140   142    1
   183   140   198    1
   184   141   199    1
   185   141   200    1
   186   141   201    1
   187   142   143    1
   188   143   144    1
   189   143   145    1
   190   143   202    1
   191   144   203    1
   192   144   204    1
   193   144   205    1
   194   145   146    2
   195   145   147    1
   196   147   148    1
   197   147   156    1
   198   148   149    1
   199   148   206    1
   200   148   207    1
   201   149   150    1
   202   149   208    1
   203   149   209    1
   204   150   151    1
   205   150   210    1
   206   150   211    1
   207   151   152    1
   208   151   212    1
   209   151   213    1
   210   152   153    1
   211   152   214    1
   212   152   215    1
   213   153   154    1
   214   153   216    1
   215   153   217    1
   216   154   155    1
   217   154   218    1
   218   154   219    1
   219   155   220    1
   220   155   221    1
   221   155   222    1
   222   156   157    1
   223   156   223    1
   224   156   224    1
   225   157   158    1
   226   157   225    1
   227   157   226    1
   228   158   159    1
   229   158   227    1
   230   158   228    1
   231   159   160    1
   232   159   229    1
   233   159   230    1
   234   160   161    1
   235   160   231    1
   236   160   232    1
   237   161   162    1
   238   161   233    1
   239   161   234    1
   240   162   163    1
   241   162   235    1
   242   162   236    1
   243   163   237    1
   244   163   238    1
   245   163   239    1
   246   240   241    1
   247   240   283    1
   248   240   284    1
   249   240   285    1
   250   241   242    1
   251   241   286    1
   252   241   287    1
   253   242   243    1
   254   242   288    1
   255   242   289    1
   256   243   244    1
   257   243   290    1
   258   243   291    1
   259   244   245    1
   260   244   292    1
   261   244   293    1
   262   245   246    1
   263   245   294    1
   264   245   295    1
   265   246   247    1
   266   246   296    1
   267   246   297    1
   268   247   248    1
   269   247   298    1
   270   247   299    1
   271   248   249    1
   272   248   257    1
   273   249   250    1
   274   249   300    1
   275   249   301    1
   276   250   251    1
   277   250   302    1
   278   250   303    1
   279   251   252    1
   280   251   304    1
   281   251   305    1
   282   252   253    1
   283   252   306    1
   284   252   307    1
   285   253   254    1
   286   253   308    1
   287   253   309    1
   288   254   255    1
   289   254   310    1
   290   254   311    1
   291   255   256    1
   292   255   312    1
   293   255   313    1
   294   256   314    1
   295   256   315    1
   296   256   316    1
   297   257   258    2
   298   257   259    1
   299   259   260    1
   300   259   261    1
   301   259   317    1
   302   260   318    1
   303   260   319    1
   304   260   320    1
   305   261   262    1
   306   262   263    1
   307   262   264    1
   308   262   321    1
   309   263   322    1
   310   263   323    1
   311   263   324    1
   312   264   265    2
   313   264   266    1
   314   266   267    1
   315   266   275    1
   316   267   268    1
   317   267   325    1
   318   267   326    1
   319   268   269    1
   320   268   327    1
   321   268   328    1
   322   269   270    1
   323   269   329    1
   324   269   330    1
   325   270   271    1
   326   270   331    1
   327   270   332    1
   328   271   272    1
   329   271   333    1
   330   271   334    1
   331   272   273    1
   332   272   335    1
   333   272   336    1
   334   273   274    1
   335   273   337    1
   336   273   338    1
   337   274   339    1
   338   274   340    1
   339   274   341    1
   340   275   276    1
   341   275   342    1
   342   275   343    1
   343   276   277    1
   344   276   344    1
   345   276   345    1
   346   277   278    1
   347   277   346    1
   348   277   347    1
   349   278   279    1
   350   278   348    1
   351   278   349    1
   352   279   280    1
   353   279   350    1
   354   279   351    1
   355   280   281    1
   356   280   352    1
   357   280   353    1
   358   281   282    1
   359   281   354    1
   360   281   355    1
   361   282   356    1
   362   282   357    1
   363   282   358    1
@<TRIPOS>SUBSTRUCTURE
     1 RES1      358 GROUP             0 ****  ****    0  
