@<TRIPOS>MOLECULE
tri_tri_mer_capped_0_nunpairedes_0_charge_3 Charge: 3 Unpaired_Electrons: 6 XTB_Unpaired_Electrons: 0 XTB_Charge: 3
    82    94     1     0     0
SMALL
NoCharges
****
Generated from Architector

@<TRIPOS>ATOM
     1 Eu1       0.3406   -0.7731   -0.0823   Eu        1 RES1   0.0000
     2 C1        4.0913   -1.5477    3.3170   C.3       1 RES1   0.0000
     3 C2        3.4623   -1.3746    1.9205   C.3       1 RES1   0.0000
     4 C3        3.6836    0.0704    1.4472   C.3       1 RES1   0.0000
     5 C4        4.0971   -2.3515    0.9129   C.3       1 RES1   0.0000
     6 C5        3.6804   -3.8014    1.1438   C.3       1 RES1   0.0000
     7 C6        2.1688   -4.0259    1.0070   C.3       1 RES1   0.0000
     8 C7        1.7267   -3.8639   -0.4765   C.3       1 RES1   0.0000
     9 C8        1.7492   -5.4266    1.4717   C.3       1 RES1   0.0000
    10 C9        1.4240   -2.9595    1.7567   C.ar      1 RES1   0.0000
    11 N1        0.1310   -3.1272    1.9324   N.ar      1 RES1   0.0000
    12 C10      -0.6295   -2.0560    2.1855   C.ar      1 RES1   0.0000
    13 C11      -2.0183   -2.2290    1.6492   C.ar      1 RES1   0.0000
    14 C12      -3.2773   -2.5205    2.1351   C.ar      1 RES1   0.0000
    15 C13      -4.2631   -2.8341    1.1948   C.ar      1 RES1   0.0000
    16 C14      -3.9588   -2.9312   -0.1579   C.ar      1 RES1   0.0000
    17 C15      -2.6746   -2.5734   -0.5592   C.ar      1 RES1   0.0000
    18 C16      -2.0645   -2.6918   -1.9040   C.ar      1 RES1   0.0000
    19 C17      -2.4288   -3.6145   -2.8808   C.ar      1 RES1   0.0000
    20 C18      -1.5827   -3.7878   -3.9664   C.ar      1 RES1   0.0000
    21 C19      -0.4791   -2.9546   -4.1479   C.ar      1 RES1   0.0000
    22 C20      -0.2372   -2.0027   -3.1756   C.ar      1 RES1   0.0000
    23 C21       0.6165   -0.7752   -3.1211   C.ar      1 RES1   0.0000
    24 N2        1.3824   -0.6945   -2.0265   N.ar      1 RES1   0.0000
    25 N3        1.7698    0.5227   -1.6049   N.ar      1 RES1   0.0000
    26 C22       1.3304    1.6165   -2.2115   C.ar      1 RES1   0.0000
    27 C23       0.3062    1.4668   -3.2034   C.ar      1 RES1   0.0000
    28 N4        0.0898    0.2763   -3.7245   N.ar      1 RES1   0.0000
    29 C24      -0.7814    2.4744   -3.3647   C.3       1 RES1   0.0000
    30 C25      -2.0665    1.7358   -2.9047   C.3       1 RES1   0.0000
    31 C26      -0.9530    2.8888   -4.8366   C.3       1 RES1   0.0000
    32 C27      -0.5352    3.6584   -2.4162   C.3       1 RES1   0.0000
    33 C28       0.9310    4.0633   -2.3660   C.3       1 RES1   0.0000
    34 C29       1.8197    2.9551   -1.7662   C.3       1 RES1   0.0000
    35 C30       3.2447    3.1120   -2.3408   C.3       1 RES1   0.0000
    36 C31       1.9044    3.0251   -0.2257   C.3       1 RES1   0.0000
    37 N5       -0.9630   -1.9325   -2.0409   N.ar      1 RES1   0.0000
    38 N6       -1.7626   -2.1521    0.3311   N.ar      1 RES1   0.0000
    39 N7       -0.1536   -0.8220    2.1977   N.ar      1 RES1   0.0000
    40 N8        1.1648   -0.6369    2.1358   N.ar      1 RES1   0.0000
    41 C32       1.9964   -1.6643    2.0030   C.ar      1 RES1   0.0000
    42 H1        5.1497   -1.3111    3.2495   H         1 RES1   0.0000
    43 H2        3.9968   -2.5648    3.6823   H         1 RES1   0.0000
    44 H3        3.6443   -0.8724    4.0412   H         1 RES1   0.0000
    45 H4        4.7441    0.2156    1.2457   H         1 RES1   0.0000
    46 H5        3.3920    0.7890    2.2126   H         1 RES1   0.0000
    47 H6        3.1211    0.2698    0.5144   H         1 RES1   0.0000
    48 H7        5.1810   -2.2737    1.0060   H         1 RES1   0.0000
    49 H8        3.8294   -2.0254   -0.1013   H         1 RES1   0.0000
    50 H9        3.9954   -4.1134    2.1395   H         1 RES1   0.0000
    51 H10       4.1976   -4.4314    0.4220   H         1 RES1   0.0000
    52 H11       2.1739   -4.6873   -1.0336   H         1 RES1   0.0000
    53 H12       2.0883   -2.9247   -0.9368   H         1 RES1   0.0000
    54 H13       0.6356   -3.9535   -0.5774   H         1 RES1   0.0000
    55 H14       2.3509   -6.1805    0.9702   H         1 RES1   0.0000
    56 H15       0.7013   -5.6068    1.2446   H         1 RES1   0.0000
    57 H16       1.8943   -5.5370    2.5420   H         1 RES1   0.0000
    58 H17      -3.5144   -2.5156    3.1863   H         1 RES1   0.0000
    59 H18      -5.2627   -3.0734    1.5227   H         1 RES1   0.0000
    60 H19      -4.6997   -3.2575   -0.8780   H         1 RES1   0.0000
    61 H20      -3.3202   -4.2161   -2.7795   H         1 RES1   0.0000
    62 H21      -1.8150   -4.5616   -4.6808   H         1 RES1   0.0000
    63 H22       0.1619   -3.0693   -5.0072   H         1 RES1   0.0000
    64 H23      -2.4063    1.0419   -3.6685   H         1 RES1   0.0000
    65 H24      -2.8595    2.4594   -2.7273   H         1 RES1   0.0000
    66 H25      -1.8880    1.1807   -1.9692   H         1 RES1   0.0000
    67 H26      -0.0703    3.3867   -5.2278   H         1 RES1   0.0000
    68 H27      -1.8005    3.5628   -4.9341   H         1 RES1   0.0000
    69 H28      -1.1516    2.0123   -5.4465   H         1 RES1   0.0000
    70 H29      -0.8644    3.3903   -1.4055   H         1 RES1   0.0000
    71 H30      -1.1386    4.5071   -2.7366   H         1 RES1   0.0000
    72 H31       1.0484    4.9649   -1.7646   H         1 RES1   0.0000
    73 H32       1.2555    4.3045   -3.3788   H         1 RES1   0.0000
    74 H33       3.2423    3.0741   -3.4271   H         1 RES1   0.0000
    75 H34       3.9211    2.3461   -1.9704   H         1 RES1   0.0000
    76 H35       3.6157    4.0845   -2.0323   H         1 RES1   0.0000
    77 H36       1.7876    4.0545    0.1026   H         1 RES1   0.0000
    78 H37       2.8844    2.6972    0.1107   H         1 RES1   0.0000
    79 H38       1.1270    2.4279    0.2799   H         1 RES1   0.0000
    80 O1       -1.1910    1.0959    0.5155   O.3       1 RES1   0.0000
    81 H39      -1.6657    0.9707    1.3575   H         1 RES1   0.0000
    82 H40      -1.1291    2.0646    0.4312   H         1 RES1   0.0000
@<TRIPOS>BOND
     1     1    11    1
     2     1    24    1
     3     1    25    1
     4     1    28    1
     5     1    37    1
     6     1    38    1
     7     1    39    1
     8     1    40    1
     9     1    80    1
    10     2     3    1
    11     2    42    1
    12     2    43    1
    13     2    44    1
    14     3     4    1
    15     3     5    1
    16     3    41    1
    17     4    45    1
    18     4    46    1
    19     4    47    1
    20     5     6    1
    21     5    48    1
    22     5    49    1
    23     6     7    1
    24     6    50    1
    25     6    51    1
    26     7     8    1
    27     7     9    1
    28     7    10    1
    29     8    52    1
    30     8    53    1
    31     8    54    1
    32     9    55    1
    33     9    56    1
    34     9    57    1
    35    10    11    1
    36    10    41    2
    37    11    12    2
    38    12    13    1
    39    12    39    1
    40    13    14    1
    41    13    38    2
    42    14    15    2
    43    14    58    1
    44    15    16    1
    45    15    59    1
    46    16    17    2
    47    16    60    1
    48    17    18    1
    49    17    38    1
    50    18    19    1
    51    18    37    2
    52    19    20    2
    53    19    61    1
    54    20    21    1
    55    20    62    1
    56    21    22    2
    57    21    63    1
    58    22    23    1
    59    22    37    1
    60    23    24    1
    61    23    28    2
    62    24    25    2
    63    25    26    1
    64    26    27    2
    65    26    34    1
    66    27    28    1
    67    27    29    1
    68    29    30    1
    69    29    31    1
    70    29    32    1
    71    30    64    1
    72    30    65    1
    73    30    66    1
    74    31    67    1
    75    31    68    1
    76    31    69    1
    77    32    33    1
    78    32    70    1
    79    32    71    1
    80    33    34    1
    81    33    72    1
    82    33    73    1
    83    34    35    1
    84    34    36    1
    85    35    74    1
    86    35    75    1
    87    35    76    1
    88    36    77    1
    89    36    78    1
    90    36    79    1
    91    39    40    2
    92    40    41    1
    93    80    81    1
    94    80    82    1
@<TRIPOS>SUBSTRUCTURE
     1 RES1       82 GROUP             0 ****  ****    0  
