@<TRIPOS>MOLECULE
am_c3_9H2O_c0_0_nunpairedes_0_charge_3 Charge: 3 Unpaired_Electrons: 6 XTB_Unpaired_Electrons: 0 XTB_Charge: 3
   226   234     1     0     0
SMALL
NoCharges
****
Generated from Architector

@<TRIPOS>ATOM
     1 Eu1      -0.4222   -0.1070    0.2716   Eu        1 RES1   0.0000
     2 C1       -4.3596    1.3531   -2.0221   C.3       1 RES1   0.0000
     3 C2       -4.6096    2.8483   -2.2047   C.3       1 RES1   0.0000
     4 C3       -3.6181    3.4511   -3.1984   C.3       1 RES1   0.0000
     5 C4       -3.8314    4.9372   -3.5007   C.3       1 RES1   0.0000
     6 C5       -3.8386    5.8774   -2.2934   C.3       1 RES1   0.0000
     7 C6       -2.6190    5.7369   -1.3856   C.3       1 RES1   0.0000
     8 C7       -1.3385    6.3609   -1.9299   C.3       1 RES1   0.0000
     9 C8       -0.0909    5.8247   -1.2070   C.3       1 RES1   0.0000
    10 N1        0.0563    4.3838   -1.3952   N.am      1 RES1   0.0000
    11 C9        0.5632    3.9266   -2.7051   C.3       1 RES1   0.0000
    12 C10       1.9850    4.4417   -3.0128   C.3       1 RES1   0.0000
    13 C11       2.9005    3.6117   -3.9378   C.3       1 RES1   0.0000
    14 C12       2.4637    3.4458   -5.3962   C.3       1 RES1   0.0000
    15 C13       3.6044    2.9047   -6.2977   C.3       1 RES1   0.0000
    16 C14       3.3035    1.5867   -7.0427   C.3       1 RES1   0.0000
    17 C15       3.4963    1.6582   -8.5599   C.3       1 RES1   0.0000
    18 C16       3.4385    0.2844   -9.2127   C.3       1 RES1   0.0000
    19 C17      -0.5939    3.5026   -0.6188   C.2       1 RES1   0.0000
    20 O1       -0.8640    2.3477   -0.9674   O.2       1 RES1   0.0000
    21 C18      -0.9268    3.8228    0.8622   C.3       1 RES1   0.0000
    22 O2       -1.3739    2.6122    1.4778   O.3       1 RES1   0.0000
    23 C19      -2.7846    2.4722    1.5783   C.3       1 RES1   0.0000
    24 C20      -3.1766    1.0048    1.4720   C.2       1 RES1   0.0000
    25 O3       -2.3738    0.1538    1.0242   O.2       1 RES1   0.0000
    26 N2       -4.3960    0.6317    1.7857   N.am      1 RES1   0.0000
    27 C21      -5.4555    1.3932    2.4256   C.3       1 RES1   0.0000
    28 C22      -6.3998    0.3078    2.9413   C.3       1 RES1   0.0000
    29 C23      -6.2960   -0.7534    1.8483   C.3       1 RES1   0.0000
    30 C24      -4.8019   -0.7562    1.5499   C.3       1 RES1   0.0000
    31 H1       -5.0813    0.9206   -1.3290   H         1 RES1   0.0000
    32 H2       -3.3477    1.1705   -1.6424   H         1 RES1   0.0000
    33 H3       -4.4652    0.8425   -2.9776   H         1 RES1   0.0000
    34 H4       -4.5302    3.3494   -1.2374   H         1 RES1   0.0000
    35 H5       -5.6295    2.9969   -2.5618   H         1 RES1   0.0000
    36 H6       -3.7267    2.9155   -4.1433   H         1 RES1   0.0000
    37 H7       -2.6015    3.2668   -2.8415   H         1 RES1   0.0000
    38 H8       -4.7966    5.0370   -3.9969   H         1 RES1   0.0000
    39 H9       -3.0642    5.2491   -4.2132   H         1 RES1   0.0000
    40 H10      -4.7305    5.6790   -1.6982   H         1 RES1   0.0000
    41 H11      -3.9290    6.9033   -2.6503   H         1 RES1   0.0000
    42 H12      -2.4504    4.6728   -1.2171   H         1 RES1   0.0000
    43 H13      -2.8401    6.1949   -0.4208   H         1 RES1   0.0000
    44 H14      -1.3669    7.4413   -1.7937   H         1 RES1   0.0000
    45 H15      -1.2454    6.1763   -2.9999   H         1 RES1   0.0000
    46 H16      -0.1515    6.0480   -0.1400   H         1 RES1   0.0000
    47 H17       0.7956    6.3221   -1.6009   H         1 RES1   0.0000
    48 H18      -0.1224    4.2475   -3.4938   H         1 RES1   0.0000
    49 H19       0.5463    2.8362   -2.6718   H         1 RES1   0.0000
    50 H20       2.5209    4.5302   -2.0684   H         1 RES1   0.0000
    51 H21       1.9183    5.4400   -3.4433   H         1 RES1   0.0000
    52 H22       3.0865    2.6202   -3.5159   H         1 RES1   0.0000
    53 H23       3.8535    4.1482   -3.9529   H         1 RES1   0.0000
    54 H24       2.1552    4.4212   -5.7728   H         1 RES1   0.0000
    55 H25       1.6079    2.7823   -5.4486   H         1 RES1   0.0000
    56 H26       4.5058    2.7569   -5.6964   H         1 RES1   0.0000
    57 H27       3.8568    3.6695   -7.0291   H         1 RES1   0.0000
    58 H28       2.2581    1.3117   -6.8819   H         1 RES1   0.0000
    59 H29       3.9385    0.7882   -6.6463   H         1 RES1   0.0000
    60 H30       4.4511    2.1124   -8.8014   H         1 RES1   0.0000
    61 H31       2.7043    2.2768   -8.9797   H         1 RES1   0.0000
    62 H32       4.3628   -0.2591   -9.0437   H         1 RES1   0.0000
    63 H33       3.2992    0.3893  -10.2802   H         1 RES1   0.0000
    64 H34       2.6098   -0.3083   -8.8377   H         1 RES1   0.0000
    65 H35      -1.6728    4.6130    0.9586   H         1 RES1   0.0000
    66 H36      -0.0253    4.1282    1.4026   H         1 RES1   0.0000
    67 H37      -3.2873    2.9783    0.7484   H         1 RES1   0.0000
    68 H38      -3.1296    2.9152    2.5211   H         1 RES1   0.0000
    69 H39      -5.9557    2.0267    1.6900   H         1 RES1   0.0000
    70 H40      -5.0613    2.0201    3.2224   H         1 RES1   0.0000
    71 H41      -7.4082    0.6806    3.0844   H         1 RES1   0.0000
    72 H42      -6.0348   -0.0920    3.8875   H         1 RES1   0.0000
    73 H43      -6.8548   -0.4386    0.9667   H         1 RES1   0.0000
    74 H44      -6.6507   -1.7323    2.1612   H         1 RES1   0.0000
    75 H45      -4.5616   -1.0513    0.5235   H         1 RES1   0.0000
    76 H46      -4.2507   -1.4011    2.2435   H         1 RES1   0.0000
    77 C25       0.5375   -6.1490   -3.4462   C.3       1 RES1   0.0000
    78 C26       0.6062   -5.9690   -1.9372   C.3       1 RES1   0.0000
    79 C27       1.9647   -5.4620   -1.4497   C.3       1 RES1   0.0000
    80 C28       2.2743   -4.0032   -1.8161   C.3       1 RES1   0.0000
    81 C29       3.1683   -3.8659   -3.0541   C.3       1 RES1   0.0000
    82 C30       3.4342   -2.4089   -3.4452   C.3       1 RES1   0.0000
    83 C31       2.1971   -1.8444   -4.1299   C.3       1 RES1   0.0000
    84 C32       2.1397   -0.3151   -4.2459   C.3       1 RES1   0.0000
    85 N3        0.8934    0.1311   -3.6447   N.am      1 RES1   0.0000
    86 C33      -0.3498   -0.1950   -4.3728   C.3       1 RES1   0.0000
    87 C34      -0.4608    0.5020   -5.7242   C.3       1 RES1   0.0000
    88 C35      -1.0654    1.9015   -5.6097   C.3       1 RES1   0.0000
    89 C36      -0.8022    2.7214   -6.8793   C.3       1 RES1   0.0000
    90 C37      -2.0392    2.9825   -7.7472   C.3       1 RES1   0.0000
    91 C38      -1.6706    2.9210   -9.2329   C.3       1 RES1   0.0000
    92 C39      -1.6744    1.4838   -9.7523   C.3       1 RES1   0.0000
    93 C40      -0.9788    1.3205  -11.0990   C.3       1 RES1   0.0000
    94 C41       0.7636    0.3038   -2.3327   C.2       1 RES1   0.0000
    95 O4       -0.3430    0.1464   -1.7927   O.2       1 RES1   0.0000
    96 C42       1.9410    0.7724   -1.4302   C.3       1 RES1   0.0000
    97 O5        1.3264    1.2407   -0.2160   O.3       1 RES1   0.0000
    98 C43       2.0657    1.8670    0.8358   C.3       1 RES1   0.0000
    99 C44       1.4041    1.4223    2.1615   C.2       1 RES1   0.0000
   100 O6        0.5807    0.4837    2.1358   O.2       1 RES1   0.0000
   101 N4        1.7051    1.9976    3.3090   N.am      1 RES1   0.0000
   102 C45       2.5210    3.1698    3.5726   C.3       1 RES1   0.0000
   103 C46       2.0358    3.6594    4.9357   C.3       1 RES1   0.0000
   104 C47       1.7399    2.3464    5.6553   C.3       1 RES1   0.0000
   105 C48       1.1058    1.5001    4.5534   C.3       1 RES1   0.0000
   106 H47      -0.3991   -6.6160   -3.7355   H         1 RES1   0.0000
   107 H48       1.3477   -6.7894   -3.7795   H         1 RES1   0.0000
   108 H49       0.6142   -5.1995   -3.9668   H         1 RES1   0.0000
   109 H50       0.4217   -6.9335   -1.4634   H         1 RES1   0.0000
   110 H51      -0.1827   -5.2852   -1.6066   H         1 RES1   0.0000
   111 H52       2.7503   -6.1027   -1.8521   H         1 RES1   0.0000
   112 H53       1.9995   -5.5650   -0.3609   H         1 RES1   0.0000
   113 H54       2.7976   -3.5349   -0.9779   H         1 RES1   0.0000
   114 H55       1.3356   -3.4520   -1.9394   H         1 RES1   0.0000
   115 H56       2.7079   -4.3647   -3.9060   H         1 RES1   0.0000
   116 H57       4.1156   -4.3680   -2.8545   H         1 RES1   0.0000
   117 H58       4.2952   -2.3536   -4.1119   H         1 RES1   0.0000
   118 H59       3.6656   -1.8170   -2.5556   H         1 RES1   0.0000
   119 H60       1.3359   -2.1420   -3.5304   H         1 RES1   0.0000
   120 H61       2.1003   -2.2923   -5.1165   H         1 RES1   0.0000
   121 H62       2.1661   -0.0050   -5.2865   H         1 RES1   0.0000
   122 H63       2.9813    0.1535   -3.7369   H         1 RES1   0.0000
   123 H64      -1.1759    0.1267   -3.7352   H         1 RES1   0.0000
   124 H65      -0.4090   -1.2798   -4.5042   H         1 RES1   0.0000
   125 H66      -1.0787   -0.1039   -6.3910   H         1 RES1   0.0000
   126 H67       0.5311    0.5686   -6.1773   H         1 RES1   0.0000
   127 H68      -0.6429    2.3944   -4.7354   H         1 RES1   0.0000
   128 H69      -2.1403    1.8241   -5.4436   H         1 RES1   0.0000
   129 H70      -0.0780    2.1824   -7.4922   H         1 RES1   0.0000
   130 H71      -0.3488    3.6809   -6.6165   H         1 RES1   0.0000
   131 H72      -2.4622    3.9569   -7.4977   H         1 RES1   0.0000
   132 H73      -2.8164    2.2412   -7.5422   H         1 RES1   0.0000
   133 H74      -0.6865    3.3687   -9.3626   H         1 RES1   0.0000
   134 H75      -2.3756    3.5119   -9.8155   H         1 RES1   0.0000
   135 H76      -2.7094    1.1564   -9.8458   H         1 RES1   0.0000
   136 H77      -1.1886    0.8274   -9.0255   H         1 RES1   0.0000
   137 H78      -1.3279    2.0631  -11.8122   H         1 RES1   0.0000
   138 H79      -1.1852    0.3328  -11.5045   H         1 RES1   0.0000
   139 H80       0.1005    1.4208  -10.9991   H         1 RES1   0.0000
   140 H81       2.5118    1.5683   -1.9152   H         1 RES1   0.0000
   141 H82       2.5907   -0.0868   -1.2279   H         1 RES1   0.0000
   142 H83       3.1192    1.5732    0.8380   H         1 RES1   0.0000
   143 H84       2.0117    2.9595    0.7203   H         1 RES1   0.0000
   144 H85       2.4108    3.9175    2.7901   H         1 RES1   0.0000
   145 H86       3.5712    2.8783    3.6464   H         1 RES1   0.0000
   146 H87       1.1252    4.2500    4.8371   H         1 RES1   0.0000
   147 H88       2.7896    4.2609    5.4358   H         1 RES1   0.0000
   148 H89       1.0722    2.4540    6.5082   H         1 RES1   0.0000
   149 H90       2.6720    1.8978    6.0020   H         1 RES1   0.0000
   150 H91       0.0201    1.6343    4.5121   H         1 RES1   0.0000
   151 H92       1.3093    0.4330    4.6692   H         1 RES1   0.0000
   152 C49       4.4288    4.9180    0.0398   C.3       1 RES1   0.0000
   153 C50       5.7218    4.2499   -0.4100   C.3       1 RES1   0.0000
   154 C51       5.8042    2.7677   -0.0399   C.3       1 RES1   0.0000
   155 C52       5.8941    2.5421    1.4703   C.3       1 RES1   0.0000
   156 C53       6.3775    1.1459    1.8851   C.3       1 RES1   0.0000
   157 C54       5.2982    0.0845    2.1433   C.3       1 RES1   0.0000
   158 C55       4.7591   -0.5812    0.8777   C.3       1 RES1   0.0000
   159 C56       4.3673   -2.0536    1.0107   C.3       1 RES1   0.0000
   160 N5        3.2210   -2.3769    1.8709   N.am      1 RES1   0.0000
   161 C57       3.4861   -3.1134    3.1057   C.3       1 RES1   0.0000
   162 C58       3.0404   -2.3948    4.3970   C.3       1 RES1   0.0000
   163 C59       4.2033   -1.8336    5.2200   C.3       1 RES1   0.0000
   164 C60       3.7299   -1.4286    6.6166   C.3       1 RES1   0.0000
   165 C61       4.8453   -0.9548    7.5584   C.3       1 RES1   0.0000
   166 C62       5.0867    0.5553    7.5831   C.3       1 RES1   0.0000
   167 C63       5.6862    1.1243    6.2984   C.3       1 RES1   0.0000
   168 C64       6.1399    2.5681    6.4873   C.3       1 RES1   0.0000
   169 C65       1.9752   -2.1792    1.4366   C.2       1 RES1   0.0000
   170 O7        1.6845   -1.4129    0.4973   O.2       1 RES1   0.0000
   171 C66       0.8516   -2.9997    2.0828   C.3       1 RES1   0.0000
   172 O8       -0.4144   -2.5752    1.5911   O.3       1 RES1   0.0000
   173 C67      -1.2588   -3.5686    1.0144   C.3       1 RES1   0.0000
   174 C68      -1.6472   -3.0944   -0.3891   C.2       1 RES1   0.0000
   175 O9       -1.0888   -2.0677   -0.8244   O.2       1 RES1   0.0000
   176 N6       -2.5475   -3.7557   -1.0881   N.am      1 RES1   0.0000
   177 C69      -3.3174   -4.9289   -0.6911   C.3       1 RES1   0.0000
   178 C70      -4.0658   -5.3320   -1.9636   C.3       1 RES1   0.0000
   179 C71      -4.2853   -3.9944   -2.6687   C.3       1 RES1   0.0000
   180 C72      -2.9737   -3.2648   -2.3988   C.3       1 RES1   0.0000
   181 H93       4.3798    5.9343   -0.3406   H         1 RES1   0.0000
   182 H94       4.3637    4.9657    1.1235   H         1 RES1   0.0000
   183 H95       3.5661    4.3659   -0.3342   H         1 RES1   0.0000
   184 H96       6.5654    4.7761    0.0362   H         1 RES1   0.0000
   185 H97       5.8167    4.3445   -1.4929   H         1 RES1   0.0000
   186 H98       6.7045    2.3609   -0.5017   H         1 RES1   0.0000
   187 H99       4.9459    2.2367   -0.4647   H         1 RES1   0.0000
   188 H100      4.9317    2.7531    1.9417   H         1 RES1   0.0000
   189 H101      6.6057    3.2718    1.8616   H         1 RES1   0.0000
   190 H102      6.9456    1.2548    2.8089   H         1 RES1   0.0000
   191 H103      7.0731    0.7751    1.1312   H         1 RES1   0.0000
   192 H104      4.4767    0.5201    2.7184   H         1 RES1   0.0000
   193 H105      5.7599   -0.6872    2.7583   H         1 RES1   0.0000
   194 H106      5.5339   -0.5410    0.1116   H         1 RES1   0.0000
   195 H107      3.8934   -0.0557    0.4871   H         1 RES1   0.0000
   196 H108      5.2186   -2.6326    1.3689   H         1 RES1   0.0000
   197 H109      4.1195   -2.4085    0.0050   H         1 RES1   0.0000
   198 H110      4.5610   -3.2780    3.1641   H         1 RES1   0.0000
   199 H111      3.0139   -4.0975    3.0366   H         1 RES1   0.0000
   200 H112      2.5052   -3.1104    5.0230   H         1 RES1   0.0000
   201 H113      2.3476   -1.5848    4.1599   H         1 RES1   0.0000
   202 H114      4.6482   -0.9875    4.7029   H         1 RES1   0.0000
   203 H115      4.9697   -2.6013    5.3278   H         1 RES1   0.0000
   204 H116      3.2619   -2.3060    7.0649   H         1 RES1   0.0000
   205 H117      2.9593   -0.6568    6.5465   H         1 RES1   0.0000
   206 H118      5.7762   -1.4667    7.3101   H         1 RES1   0.0000
   207 H119      4.5806   -1.2539    8.5743   H         1 RES1   0.0000
   208 H120      5.7727    0.7692    8.4044   H         1 RES1   0.0000
   209 H121      4.1475    1.0655    7.8169   H         1 RES1   0.0000
   210 H122      4.9512    1.0800    5.4891   H         1 RES1   0.0000
   211 H123      6.5421    0.5153    6.0015   H         1 RES1   0.0000
   212 H124      5.3071    3.1965    6.7980   H         1 RES1   0.0000
   213 H125      6.5562    2.9715    5.5660   H         1 RES1   0.0000
   214 H126      6.9071    2.6251    7.2551   H         1 RES1   0.0000
   215 H127      0.8563   -2.9007    3.1702   H         1 RES1   0.0000
   216 H128      1.0356   -4.0524    1.8336   H         1 RES1   0.0000
   217 H129     -2.1592   -3.6765    1.6346   H         1 RES1   0.0000
   218 H130     -0.7605   -4.5426    0.9593   H         1 RES1   0.0000
   219 H131     -4.0308   -4.6543    0.0920   H         1 RES1   0.0000
   220 H132     -2.6781   -5.7305   -0.3213   H         1 RES1   0.0000
   221 H133     -4.9925   -5.8546   -1.7437   H         1 RES1   0.0000
   222 H134     -3.4475   -5.9839   -2.5791   H         1 RES1   0.0000
   223 H135     -5.1286   -3.4579   -2.2300   H         1 RES1   0.0000
   224 H136     -4.4643   -4.0977   -3.7366   H         1 RES1   0.0000
   225 H137     -3.0686   -2.1760   -2.3736   H         1 RES1   0.0000
   226 H138     -2.2200   -3.5305   -3.1473   H         1 RES1   0.0000
@<TRIPOS>BOND
     1     1    20    1
     2     1    22    1
     3     1    25    1
     4     1    95    1
     5     1    97    1
     6     1   100    1
     7     1   170    1
     8     1   172    1
     9     1   175    1
    10     2     3    1
    11     2    31    1
    12     2    32    1
    13     2    33    1
    14     3     4    1
    15     3    34    1
    16     3    35    1
    17     4     5    1
    18     4    36    1
    19     4    37    1
    20     5     6    1
    21     5    38    1
    22     5    39    1
    23     6     7    1
    24     6    40    1
    25     6    41    1
    26     7     8    1
    27     7    42    1
    28     7    43    1
    29     8     9    1
    30     8    44    1
    31     8    45    1
    32     9    10    1
    33     9    46    1
    34     9    47    1
    35    10    11    1
    36    10    19    1
    37    11    12    1
    38    11    48    1
    39    11    49    1
    40    12    13    1
    41    12    50    1
    42    12    51    1
    43    13    14    1
    44    13    52    1
    45    13    53    1
    46    14    15    1
    47    14    54    1
    48    14    55    1
    49    15    16    1
    50    15    56    1
    51    15    57    1
    52    16    17    1
    53    16    58    1
    54    16    59    1
    55    17    18    1
    56    17    60    1
    57    17    61    1
    58    18    62    1
    59    18    63    1
    60    18    64    1
    61    19    20    2
    62    19    21    1
    63    21    22    1
    64    21    65    1
    65    21    66    1
    66    22    23    1
    67    23    24    1
    68    23    67    1
    69    23    68    1
    70    24    25    2
    71    24    26    1
    72    26    27    1
    73    26    30    1
    74    27    28    1
    75    27    69    1
    76    27    70    1
    77    28    29    1
    78    28    71    1
    79    28    72    1
    80    29    30    1
    81    29    73    1
    82    29    74    1
    83    30    75    1
    84    30    76    1
    85    77    78    1
    86    77   106    1
    87    77   107    1
    88    77   108    1
    89    78    79    1
    90    78   109    1
    91    78   110    1
    92    79    80    1
    93    79   111    1
    94    79   112    1
    95    80    81    1
    96    80   113    1
    97    80   114    1
    98    81    82    1
    99    81   115    1
   100    81   116    1
   101    82    83    1
   102    82   117    1
   103    82   118    1
   104    83    84    1
   105    83   119    1
   106    83   120    1
   107    84    85    1
   108    84   121    1
   109    84   122    1
   110    85    86    1
   111    85    94    1
   112    86    87    1
   113    86   123    1
   114    86   124    1
   115    87    88    1
   116    87   125    1
   117    87   126    1
   118    88    89    1
   119    88   127    1
   120    88   128    1
   121    89    90    1
   122    89   129    1
   123    89   130    1
   124    90    91    1
   125    90   131    1
   126    90   132    1
   127    91    92    1
   128    91   133    1
   129    91   134    1
   130    92    93    1
   131    92   135    1
   132    92   136    1
   133    93   137    1
   134    93   138    1
   135    93   139    1
   136    94    95    2
   137    94    96    1
   138    96    97    1
   139    96   140    1
   140    96   141    1
   141    97    98    1
   142    98    99    1
   143    98   142    1
   144    98   143    1
   145    99   100    2
   146    99   101    1
   147   101   102    1
   148   101   105    1
   149   102   103    1
   150   102   144    1
   151   102   145    1
   152   103   104    1
   153   103   146    1
   154   103   147    1
   155   104   105    1
   156   104   148    1
   157   104   149    1
   158   105   150    1
   159   105   151    1
   160   152   153    1
   161   152   181    1
   162   152   182    1
   163   152   183    1
   164   153   154    1
   165   153   184    1
   166   153   185    1
   167   154   155    1
   168   154   186    1
   169   154   187    1
   170   155   156    1
   171   155   188    1
   172   155   189    1
   173   156   157    1
   174   156   190    1
   175   156   191    1
   176   157   158    1
   177   157   192    1
   178   157   193    1
   179   158   159    1
   180   158   194    1
   181   158   195    1
   182   159   160    1
   183   159   196    1
   184   159   197    1
   185   160   161    1
   186   160   169    1
   187   161   162    1
   188   161   198    1
   189   161   199    1
   190   162   163    1
   191   162   200    1
   192   162   201    1
   193   163   164    1
   194   163   202    1
   195   163   203    1
   196   164   165    1
   197   164   204    1
   198   164   205    1
   199   165   166    1
   200   165   206    1
   201   165   207    1
   202   166   167    1
   203   166   208    1
   204   166   209    1
   205   167   168    1
   206   167   210    1
   207   167   211    1
   208   168   212    1
   209   168   213    1
   210   168   214    1
   211   169   170    2
   212   169   171    1
   213   171   172    1
   214   171   215    1
   215   171   216    1
   216   172   173    1
   217   173   174    1
   218   173   217    1
   219   173   218    1
   220   174   175    2
   221   174   176    1
   222   176   177    1
   223   176   180    1
   224   177   178    1
   225   177   219    1
   226   177   220    1
   227   178   179    1
   228   178   221    1
   229   178   222    1
   230   179   180    1
   231   179   223    1
   232   179   224    1
   233   180   225    1
   234   180   226    1
@<TRIPOS>SUBSTRUCTURE
     1 RES1      226 GROUP             0 ****  ****    0  
