@<TRIPOS>MOLECULE
tri_tri_mer_capped_0_nunpairedes_0_charge_3 Charge: 3 Unpaired_Electrons: 6 XTB_Unpaired_Electrons: 0 XTB_Charge: 3
    88    93     1     0     0
SMALL
NoCharges
****
Generated from Architector

@<TRIPOS>ATOM
     1 Eu1       0.0723   -0.0551    0.0033   Eu        1 RES1   0.0000
     2 C1       -0.5980   -2.5013    4.2884   C.3       1 RES1   0.0000
     3 N1       -0.1867   -1.1087    4.3051   N.am      1 RES1   0.0000
     4 C2       -0.1979   -0.4342    5.5861   C.3       1 RES1   0.0000
     5 C3        0.1224   -0.5058    3.1678   C.2       1 RES1   0.0000
     6 O1       -0.0102   -1.0538    2.0555   O.2       1 RES1   0.0000
     7 C4        0.6161    0.9446    3.2239   C.3       1 RES1   0.0000
     8 O2        1.1204    1.3616    1.9589   O.3       1 RES1   0.0000
     9 C5        2.5436    1.4664    1.8622   C.3       1 RES1   0.0000
    10 C6        3.1196    0.2675    1.0911   C.2       1 RES1   0.0000
    11 O3        2.3098   -0.5000    0.5403   O.2       1 RES1   0.0000
    12 N2        4.4303    0.1256    1.0055   N.am      1 RES1   0.0000
    13 C7        5.0025   -0.9663    0.2427   C.3       1 RES1   0.0000
    14 C8        5.4218    0.9755    1.6233   C.3       1 RES1   0.0000
    15 H1        0.0786   -3.0931    4.9072   H         1 RES1   0.0000
    16 H2       -1.6069   -2.5970    4.6916   H         1 RES1   0.0000
    17 H3       -0.5692   -2.8709    3.2626   H         1 RES1   0.0000
    18 H4       -0.5613   -1.1272    6.3382   H         1 RES1   0.0000
    19 H5        0.7942   -0.1019    5.8895   H         1 RES1   0.0000
    20 H6       -0.8719    0.4214    5.5603   H         1 RES1   0.0000
    21 H7       -0.2303    1.6064    3.4488   H         1 RES1   0.0000
    22 H8        1.3721    1.0844    4.0008   H         1 RES1   0.0000
    23 H9        2.7403    2.3779    1.2834   H         1 RES1   0.0000
    24 H10       2.9835    1.5701    2.8581   H         1 RES1   0.0000
    25 H11       4.2086   -1.5359   -0.2331   H         1 RES1   0.0000
    26 H12       5.6723   -0.5616   -0.5157   H         1 RES1   0.0000
    27 H13       5.5791   -1.6162    0.9010   H         1 RES1   0.0000
    28 H14       4.9841    1.8531    2.0835   H         1 RES1   0.0000
    29 H15       5.9722    0.4069    2.3754   H         1 RES1   0.0000
    30 H16       6.1312    1.2999    0.8609   H         1 RES1   0.0000
    31 C9        1.2163    3.0138   -4.5424   C.3       1 RES1   0.0000
    32 N3        1.5775    2.6581   -3.1858   N.am      1 RES1   0.0000
    33 C10       2.4321    3.5418   -2.4061   C.3       1 RES1   0.0000
    34 C11       1.1058    1.5815   -2.5745   C.2       1 RES1   0.0000
    35 O4        1.3769    1.3260   -1.3847   O.2       1 RES1   0.0000
    36 C12       0.2213    0.6034   -3.3564   C.3       1 RES1   0.0000
    37 O5       -0.0384   -0.4794   -2.4744   O.3       1 RES1   0.0000
    38 C13      -0.0265   -1.7970   -3.0107   C.3       1 RES1   0.0000
    39 C14       0.2685   -2.7097   -1.8077   C.2       1 RES1   0.0000
    40 O6        0.4141   -2.1739   -0.6932   O.2       1 RES1   0.0000
    41 N4        0.3906   -4.0175   -1.9851   N.am      1 RES1   0.0000
    42 C15       0.0824   -4.6847   -3.2330   C.3       1 RES1   0.0000
    43 C16       0.7999   -4.8422   -0.8582   C.3       1 RES1   0.0000
    44 H17       1.7043    3.9433   -4.8197   H         1 RES1   0.0000
    45 H18       0.1396    3.1633   -4.6285   H         1 RES1   0.0000
    46 H19       1.5273    2.2488   -5.2544   H         1 RES1   0.0000
    47 H20       2.7398    4.3953   -3.0029   H         1 RES1   0.0000
    48 H21       3.3207    3.0023   -2.0703   H         1 RES1   0.0000
    49 H22       1.8916    3.8990   -1.5263   H         1 RES1   0.0000
    50 H23       0.7317    0.2779   -4.2698   H         1 RES1   0.0000
    51 H24      -0.7250    1.0948   -3.6253   H         1 RES1   0.0000
    52 H25       0.7596   -1.9162   -3.7684   H         1 RES1   0.0000
    53 H26      -0.9983   -2.0358   -3.4656   H         1 RES1   0.0000
    54 H27      -0.9676   -4.5433   -3.4929   H         1 RES1   0.0000
    55 H28       0.2636   -5.7512   -3.1237   H         1 RES1   0.0000
    56 H29       0.6997   -4.3144   -4.0507   H         1 RES1   0.0000
    57 H30       0.9852   -4.1889   -0.0056   H         1 RES1   0.0000
    58 H31       1.7159   -5.3833   -1.1049   H         1 RES1   0.0000
    59 H32       0.0201   -5.5608   -0.6012   H         1 RES1   0.0000
    60 C17      -1.0579    4.8513   -0.1750   C.3       1 RES1   0.0000
    61 N5       -1.9371    4.0125    0.6215   N.am      1 RES1   0.0000
    62 C18      -2.8815    4.7792    1.4086   C.3       1 RES1   0.0000
    63 C19      -1.8074    2.6961    0.6039   C.2       1 RES1   0.0000
    64 O7       -0.9759    2.0962   -0.1126   O.2       1 RES1   0.0000
    65 C20      -2.7306    1.8527    1.4875   C.3       1 RES1   0.0000
    66 O8       -2.1824    0.5400    1.5964   O.3       1 RES1   0.0000
    67 C21      -3.1410   -0.5172    1.5786   C.3       1 RES1   0.0000
    68 C22      -3.0584   -1.2537    0.2333   C.2       1 RES1   0.0000
    69 O9       -2.1179   -0.9558   -0.5307   O.2       1 RES1   0.0000
    70 N6       -3.9761   -2.1651   -0.0474   N.am      1 RES1   0.0000
    71 C23      -3.9496   -2.8976   -1.3002   C.3       1 RES1   0.0000
    72 C24      -5.0879   -2.5353    0.8028   C.3       1 RES1   0.0000
    73 H33      -1.6399    5.4595   -0.8715   H         1 RES1   0.0000
    74 H34      -0.5059    5.5297    0.4804   H         1 RES1   0.0000
    75 H35      -0.3622    4.2219   -0.7274   H         1 RES1   0.0000
    76 H36      -3.5025    5.3859    0.7479   H         1 RES1   0.0000
    77 H37      -3.5302    4.1581    2.0131   H         1 RES1   0.0000
    78 H38      -2.3363    5.4629    2.0618   H         1 RES1   0.0000
    79 H39      -2.8065    2.2831    2.4940   H         1 RES1   0.0000
    80 H40      -3.7223    1.8309    1.0180   H         1 RES1   0.0000
    81 H41      -2.8616   -1.2195    2.3733   H         1 RES1   0.0000
    82 H42      -4.1457   -0.1276    1.7648   H         1 RES1   0.0000
    83 H43      -3.0739   -2.6014   -1.8732   H         1 RES1   0.0000
    84 H44      -3.9167   -3.9692   -1.0948   H         1 RES1   0.0000
    85 H45      -4.8585   -2.6931   -1.8708   H         1 RES1   0.0000
    86 H46      -5.0093   -2.1232    1.8017   H         1 RES1   0.0000
    87 H47      -6.0284   -2.2133    0.3521   H         1 RES1   0.0000
    88 H48      -5.1280   -3.6213    0.8850   H         1 RES1   0.0000
@<TRIPOS>BOND
     1     1     6    1
     2     1     8    1
     3     1    11    1
     4     1    35    1
     5     1    37    1
     6     1    40    1
     7     1    64    1
     8     1    66    1
     9     1    69    1
    10     2     3    1
    11     2    15    1
    12     2    16    1
    13     2    17    1
    14     3     4    1
    15     3     5    1
    16     4    18    1
    17     4    19    1
    18     4    20    1
    19     5     6    2
    20     5     7    1
    21     7     8    1
    22     7    21    1
    23     7    22    1
    24     8     9    1
    25     9    10    1
    26     9    23    1
    27     9    24    1
    28    10    11    2
    29    10    12    1
    30    12    13    1
    31    12    14    1
    32    13    25    1
    33    13    26    1
    34    13    27    1
    35    14    28    1
    36    14    29    1
    37    14    30    1
    38    31    32    1
    39    31    44    1
    40    31    45    1
    41    31    46    1
    42    32    33    1
    43    32    34    1
    44    33    47    1
    45    33    48    1
    46    33    49    1
    47    34    35    2
    48    34    36    1
    49    36    37    1
    50    36    50    1
    51    36    51    1
    52    37    38    1
    53    38    39    1
    54    38    52    1
    55    38    53    1
    56    39    40    2
    57    39    41    1
    58    41    42    1
    59    41    43    1
    60    42    54    1
    61    42    55    1
    62    42    56    1
    63    43    57    1
    64    43    58    1
    65    43    59    1
    66    60    61    1
    67    60    73    1
    68    60    74    1
    69    60    75    1
    70    61    62    1
    71    61    63    1
    72    62    76    1
    73    62    77    1
    74    62    78    1
    75    63    64    2
    76    63    65    1
    77    65    66    1
    78    65    79    1
    79    65    80    1
    80    66    67    1
    81    67    68    1
    82    67    81    1
    83    67    82    1
    84    68    69    2
    85    68    70    1
    86    70    71    1
    87    70    72    1
    88    71    83    1
    89    71    84    1
    90    71    85    1
    91    72    86    1
    92    72    87    1
    93    72    88    1
@<TRIPOS>SUBSTRUCTURE
     1 RES1       88 GROUP             0 ****  ****    0  
