@<TRIPOS>MOLECULE
am_c3_9H2O_c0_0_nunpairedes_0_charge_3 Charge: 3 Unpaired_Electrons: 6 XTB_Unpaired_Electrons: 0 XTB_Charge: 3
   132   139     1     0     0
SMALL
NoCharges
****
Generated from Architector

@<TRIPOS>ATOM
     1 Eu1      -0.0611    0.0623    0.0889   Eu        1 RES1   0.0000
     2 C1       -2.3642    5.3342    0.8996   C.3       1 RES1   0.0000
     3 C2       -1.4758    5.8007   -0.2507   C.3       1 RES1   0.0000
     4 C3       -2.1166    5.4206   -1.5865   C.3       1 RES1   0.0000
     5 C4       -1.4016    5.9723   -2.8217   C.3       1 RES1   0.0000
     6 C5        0.0143    5.4405   -3.0566   C.3       1 RES1   0.0000
     7 C6        0.1063    4.0804   -3.7590   C.3       1 RES1   0.0000
     8 N1       -0.5466    2.9202   -3.1461   N.am      1 RES1   0.0000
     9 C7       -1.5164    2.1837   -3.9627   C.3       1 RES1   0.0000
    10 C8       -2.9886    2.4755   -3.6565   C.3       1 RES1   0.0000
    11 C9       -3.8900    2.0979   -4.8379   C.3       1 RES1   0.0000
    12 C10      -3.9315    0.6136   -5.2352   C.3       1 RES1   0.0000
    13 C11      -5.1993   -0.1123   -4.7825   C.3       1 RES1   0.0000
    14 C12      -5.2248   -0.3653   -3.2817   C.3       1 RES1   0.0000
    15 C13      -0.2374    2.3943   -1.9772   C.2       1 RES1   0.0000
    16 O1       -0.8709    1.4147   -1.5064   O.2       1 RES1   0.0000
    17 C14       0.9701    2.9144   -1.1846   C.3       1 RES1   0.0000
    18 O2        1.1492    1.9857   -0.1195   O.3       1 RES1   0.0000
    19 C15       2.4375    1.8649    0.4763   C.3       1 RES1   0.0000
    20 C16       2.2556    0.6445    1.3987   C.2       1 RES1   0.0000
    21 O3        1.1215    0.5173    1.9033   O.2       1 RES1   0.0000
    22 N2        3.2427   -0.2128    1.6635   N.am      1 RES1   0.0000
    23 C17       4.2549   -0.5379    0.6760   C.3       1 RES1   0.0000
    24 C18       3.5157   -1.3815   -0.4029   C.3       1 RES1   0.0000
    25 O4        2.2272   -1.7733    0.0820   O.3       1 RES1   0.0000
    26 C19       2.4242   -2.4575    1.3251   C.3       1 RES1   0.0000
    27 C20       2.8472   -1.4119    2.3938   C.3       1 RES1   0.0000
    28 H1       -1.8201    5.3132    1.8413   H         1 RES1   0.0000
    29 H2       -2.7778    4.3453    0.6830   H         1 RES1   0.0000
    30 H3       -3.2037    6.0129    1.0182   H         1 RES1   0.0000
    31 H4       -0.4826    5.3486   -0.1555   H         1 RES1   0.0000
    32 H5       -1.3426    6.8821   -0.1986   H         1 RES1   0.0000
    33 H6       -3.1324    5.8217   -1.5918   H         1 RES1   0.0000
    34 H7       -2.1900    4.3301   -1.6390   H         1 RES1   0.0000
    35 H8       -1.3410    7.0567   -2.7179   H         1 RES1   0.0000
    36 H9       -2.0103    5.7736   -3.7073   H         1 RES1   0.0000
    37 H10       0.5786    5.4589   -2.1259   H         1 RES1   0.0000
    38 H11       0.5187    6.1331   -3.7344   H         1 RES1   0.0000
    39 H12       1.1647    3.8524   -3.9137   H         1 RES1   0.0000
    40 H13      -0.3486    4.2023   -4.7404   H         1 RES1   0.0000
    41 H14      -1.3151    1.1201   -3.7989   H         1 RES1   0.0000
    42 H15      -1.3124    2.4192   -5.0079   H         1 RES1   0.0000
    43 H16      -3.1108    3.5446   -3.4862   H         1 RES1   0.0000
    44 H17      -3.2822    1.9536   -2.7431   H         1 RES1   0.0000
    45 H18      -3.5610    2.6851   -5.6962   H         1 RES1   0.0000
    46 H19      -4.9035    2.4235   -4.6053   H         1 RES1   0.0000
    47 H20      -3.0573    0.0867   -4.8441   H         1 RES1   0.0000
    48 H21      -3.8885    0.5478   -6.3223   H         1 RES1   0.0000
    49 H22      -5.2636   -1.0698   -5.3011   H         1 RES1   0.0000
    50 H23      -6.0730    0.4718   -5.0681   H         1 RES1   0.0000
    51 H24      -4.3527   -0.9550   -2.9956   H         1 RES1   0.0000
    52 H25      -6.1156   -0.9213   -3.0011   H         1 RES1   0.0000
    53 H26      -5.2225    0.5747   -2.7343   H         1 RES1   0.0000
    54 H27       0.7712    3.9182   -0.7872   H         1 RES1   0.0000
    55 H28       1.8572    2.9483   -1.8277   H         1 RES1   0.0000
    56 H29       2.6755    2.7416    1.0981   H         1 RES1   0.0000
    57 H30       3.2060    1.7480   -0.2950   H         1 RES1   0.0000
    58 H31       5.0381   -1.1160    1.1664   H         1 RES1   0.0000
    59 H32       4.7215    0.3501    0.2531   H         1 RES1   0.0000
    60 H33       4.0977   -2.2768   -0.6536   H         1 RES1   0.0000
    61 H34       3.3425   -0.7954   -1.3054   H         1 RES1   0.0000
    62 H35       3.1965   -3.2246    1.1858   H         1 RES1   0.0000
    63 H36       1.4840   -2.9395    1.5948   H         1 RES1   0.0000
    64 H37       3.6796   -1.7594    3.0031   H         1 RES1   0.0000
    65 H38       2.0106   -1.1639    3.0485   H         1 RES1   0.0000
    66 C21       4.9319    4.8912   -1.1848   C.3       1 RES1   0.0000
    67 C22       5.0792    3.4749   -1.7272   C.3       1 RES1   0.0000
    68 C23       4.1762    3.2432   -2.9407   C.3       1 RES1   0.0000
    69 C24       3.8798    1.7626   -3.1864   C.3       1 RES1   0.0000
    70 C25       2.7158    1.5324   -4.1545   C.3       1 RES1   0.0000
    71 C26       2.7049    0.1180   -4.7331   C.3       1 RES1   0.0000
    72 N3        1.6859   -0.8342   -4.2695   N.am      1 RES1   0.0000
    73 C27       1.3954   -1.8210   -5.3193   C.3       1 RES1   0.0000
    74 C28       2.6234   -2.5601   -5.8736   C.3       1 RES1   0.0000
    75 C29       3.3022   -3.5232   -4.8958   C.3       1 RES1   0.0000
    76 C30       4.1399   -2.8334   -3.8182   C.3       1 RES1   0.0000
    77 C31       5.0025   -3.8114   -3.0191   C.3       1 RES1   0.0000
    78 C32       4.1865   -4.8158   -2.2152   C.3       1 RES1   0.0000
    79 C33       1.1192   -0.8623   -3.0783   C.2       1 RES1   0.0000
    80 O5        1.3424   -0.0690   -2.1337   O.2       1 RES1   0.0000
    81 C34       0.1052   -1.9933   -2.8044   C.3       1 RES1   0.0000
    82 O6       -0.4807   -1.7269   -1.5330   O.3       1 RES1   0.0000
    83 C35      -1.0286   -2.8855   -0.9054   C.3       1 RES1   0.0000
    84 C36      -1.4679   -2.3420    0.4526   C.2       1 RES1   0.0000
    85 O7       -0.5714   -1.8824    1.1811   O.2       1 RES1   0.0000
    86 N4       -2.7604   -2.3361    0.7957   N.am      1 RES1   0.0000
    87 C37      -3.7497   -1.9484   -0.1917   C.3       1 RES1   0.0000
    88 C38      -3.5847   -0.4030   -0.3570   C.3       1 RES1   0.0000
    89 O8       -2.5994    0.0873    0.5499   O.3       1 RES1   0.0000
    90 C39      -2.9990   -0.1930    1.8975   C.3       1 RES1   0.0000
    91 C40      -3.0659   -1.7323    2.0879   C.3       1 RES1   0.0000
    92 H39       5.5896    5.0489   -0.3342   H         1 RES1   0.0000
    93 H40       3.9059    5.0780   -0.8661   H         1 RES1   0.0000
    94 H41       5.1891    5.6202   -1.9474   H         1 RES1   0.0000
    95 H42       4.8307    2.7648   -0.9306   H         1 RES1   0.0000
    96 H43       6.1192    3.2950   -1.9962   H         1 RES1   0.0000
    97 H44       4.6540    3.6669   -3.8224   H         1 RES1   0.0000
    98 H45       3.2489    3.8033   -2.7979   H         1 RES1   0.0000
    99 H46       3.6445    1.2529   -2.2468   H         1 RES1   0.0000
   100 H47       4.7830    1.3007   -3.5890   H         1 RES1   0.0000
   101 H48       2.8200    2.2326   -4.9835   H         1 RES1   0.0000
   102 H49       1.7588    1.7194   -3.6706   H         1 RES1   0.0000
   103 H50       3.6794   -0.3436   -4.5601   H         1 RES1   0.0000
   104 H51       2.5495    0.1909   -5.8113   H         1 RES1   0.0000
   105 H52       0.9167   -1.2771   -6.1419   H         1 RES1   0.0000
   106 H53       0.7000   -2.5780   -4.9701   H         1 RES1   0.0000
   107 H54       3.3611   -1.8623   -6.2658   H         1 RES1   0.0000
   108 H55       2.2463   -3.1429   -6.7168   H         1 RES1   0.0000
   109 H56       3.9656   -4.1638   -5.4797   H         1 RES1   0.0000
   110 H57       2.5493   -4.1660   -4.4359   H         1 RES1   0.0000
   111 H58       3.4843   -2.2887   -3.1306   H         1 RES1   0.0000
   112 H59       4.8118   -2.1195   -4.3008   H         1 RES1   0.0000
   113 H60       5.6453   -3.2353   -2.3481   H         1 RES1   0.0000
   114 H61       5.6562   -4.3498   -3.7045   H         1 RES1   0.0000
   115 H62       3.4300   -4.3138   -1.6094   H         1 RES1   0.0000
   116 H63       4.8392   -5.3836   -1.5587   H         1 RES1   0.0000
   117 H64       3.6867   -5.5201   -2.8732   H         1 RES1   0.0000
   118 H65       0.6476   -2.9478   -2.7802   H         1 RES1   0.0000
   119 H66      -0.6848   -2.0264   -3.5670   H         1 RES1   0.0000
   120 H67      -0.2406   -3.6349   -0.7302   H         1 RES1   0.0000
   121 H68      -1.8243   -3.3316   -1.5136   H         1 RES1   0.0000
   122 H69      -4.7395   -2.2148    0.1770   H         1 RES1   0.0000
   123 H70      -3.6049   -2.4618   -1.1389   H         1 RES1   0.0000
   124 H71      -4.5413    0.1049   -0.1838   H         1 RES1   0.0000
   125 H72      -3.2103   -0.1448   -1.3513   H         1 RES1   0.0000
   126 H73      -3.9686    0.2770    2.1032   H         1 RES1   0.0000
   127 H74      -2.2361    0.2472    2.5455   H         1 RES1   0.0000
   128 H75      -4.0599   -2.0604    2.3914   H         1 RES1   0.0000
   129 H76      -2.3407   -2.0814    2.8241   H         1 RES1   0.0000
   130 O9       -1.0253    2.1250    1.4945   O.3       1 RES1   0.0000
   131 H77      -1.4935    2.9160    1.1820   H         1 RES1   0.0000
   132 H78      -0.7250    2.3406    2.3873   H         1 RES1   0.0000
@<TRIPOS>BOND
     1     1    16    1
     2     1    18    1
     3     1    21    1
     4     1    25    1
     5     1    80    1
     6     1    82    1
     7     1    85    1
     8     1    89    1
     9     1   130    1
    10     2     3    1
    11     2    28    1
    12     2    29    1
    13     2    30    1
    14     3     4    1
    15     3    31    1
    16     3    32    1
    17     4     5    1
    18     4    33    1
    19     4    34    1
    20     5     6    1
    21     5    35    1
    22     5    36    1
    23     6     7    1
    24     6    37    1
    25     6    38    1
    26     7     8    1
    27     7    39    1
    28     7    40    1
    29     8     9    1
    30     8    15    1
    31     9    10    1
    32     9    41    1
    33     9    42    1
    34    10    11    1
    35    10    43    1
    36    10    44    1
    37    11    12    1
    38    11    45    1
    39    11    46    1
    40    12    13    1
    41    12    47    1
    42    12    48    1
    43    13    14    1
    44    13    49    1
    45    13    50    1
    46    14    51    1
    47    14    52    1
    48    14    53    1
    49    15    16    2
    50    15    17    1
    51    17    18    1
    52    17    54    1
    53    17    55    1
    54    18    19    1
    55    19    20    1
    56    19    56    1
    57    19    57    1
    58    20    21    2
    59    20    22    1
    60    22    23    1
    61    22    27    1
    62    23    24    1
    63    23    58    1
    64    23    59    1
    65    24    25    1
    66    24    60    1
    67    24    61    1
    68    25    26    1
    69    26    27    1
    70    26    62    1
    71    26    63    1
    72    27    64    1
    73    27    65    1
    74    66    67    1
    75    66    92    1
    76    66    93    1
    77    66    94    1
    78    67    68    1
    79    67    95    1
    80    67    96    1
    81    68    69    1
    82    68    97    1
    83    68    98    1
    84    69    70    1
    85    69    99    1
    86    69   100    1
    87    70    71    1
    88    70   101    1
    89    70   102    1
    90    71    72    1
    91    71   103    1
    92    71   104    1
    93    72    73    1
    94    72    79    1
    95    73    74    1
    96    73   105    1
    97    73   106    1
    98    74    75    1
    99    74   107    1
   100    74   108    1
   101    75    76    1
   102    75   109    1
   103    75   110    1
   104    76    77    1
   105    76   111    1
   106    76   112    1
   107    77    78    1
   108    77   113    1
   109    77   114    1
   110    78   115    1
   111    78   116    1
   112    78   117    1
   113    79    80    2
   114    79    81    1
   115    81    82    1
   116    81   118    1
   117    81   119    1
   118    82    83    1
   119    83    84    1
   120    83   120    1
   121    83   121    1
   122    84    85    2
   123    84    86    1
   124    86    87    1
   125    86    91    1
   126    87    88    1
   127    87   122    1
   128    87   123    1
   129    88    89    1
   130    88   124    1
   131    88   125    1
   132    89    90    1
   133    90    91    1
   134    90   126    1
   135    90   127    1
   136    91   128    1
   137    91   129    1
   138   130   131    1
   139   130   132    1
@<TRIPOS>SUBSTRUCTURE
     1 RES1      132 GROUP             0 ****  ****    0  
