@<TRIPOS>MOLECULE
cn9_YICLED_0_nunpairedes_0_charge_3 Charge: 3 Unpaired_Electrons: 6 XTB_Unpaired_Electrons: 0 XTB_Charge: 3
   349   354     1     0     0
SMALL
NoCharges
****
Generated from Architector

@<TRIPOS>ATOM
     1 Eu1      -0.0058    0.3111    0.4807   Eu        1 RES1   0.0000
     2 C1       -5.0172   -4.5061   -4.3745   C.3       1 RES1   0.0000
     3 C2       -5.5903   -4.7282   -2.9800   C.3       1 RES1   0.0000
     4 C3       -5.8385   -3.4021   -2.2613   C.3       1 RES1   0.0000
     5 C4       -6.3618   -3.5984   -0.8372   C.3       1 RES1   0.0000
     6 C5       -6.7909   -2.3003   -0.1537   C.3       1 RES1   0.0000
     7 C6       -5.6579   -1.2940    0.0589   C.3       1 RES1   0.0000
     8 C7       -4.9278   -1.3858    1.4049   C.3       1 RES1   0.0000
     9 C8       -3.8959   -2.5146    1.4921   C.3       1 RES1   0.0000
    10 N1       -2.8875   -2.2497    2.5239   N.am      1 RES1   0.0000
    11 C9       -3.2973   -2.3813    3.9247   C.3       1 RES1   0.0000
    12 C10      -3.1240   -1.0684    4.7177   C.3       1 RES1   0.0000
    13 C11      -4.3105   -0.7193    5.6215   C.3       1 RES1   0.0000
    14 C12      -4.4388   -1.6569    6.8252   C.3       1 RES1   0.0000
    15 C13      -5.3526   -1.0910    7.9164   C.3       1 RES1   0.0000
    16 C14      -5.4883   -2.0363    9.1160   C.3       1 RES1   0.0000
    17 C15      -6.3750   -3.2539    8.8492   C.3       1 RES1   0.0000
    18 C16      -7.8656   -2.9364    8.9199   C.3       1 RES1   0.0000
    19 C17      -1.7012   -1.7933    2.1545   C.2       1 RES1   0.0000
    20 O1       -1.4111   -1.4989    0.9672   O.2       1 RES1   0.0000
    21 C18      -0.5648   -1.6840    3.1612   C.3       1 RES1   0.0000
    22 O2       -0.0126   -0.3885    3.0061   O.3       1 RES1   0.0000
    23 C19       1.2229   -0.1837    3.7091   C.3       1 RES1   0.0000
    24 C20       0.9647    0.3340    5.1273   C.3       1 RES1   0.0000
    25 C21       1.9265    0.9507    2.9397   C.2       1 RES1   0.0000
    26 O3        1.2654    1.5420    2.0651   O.2       1 RES1   0.0000
    27 N2        3.1158    1.3893    3.3588   N.am      1 RES1   0.0000
    28 C22       4.1985    0.5108    3.7792   C.3       1 RES1   0.0000
    29 C23       4.9703   -0.0390    2.5632   C.3       1 RES1   0.0000
    30 C24       6.2965   -0.6817    2.9798   C.3       1 RES1   0.0000
    31 C25       7.0411   -1.3821    1.8334   C.3       1 RES1   0.0000
    32 C26       6.5523   -2.8119    1.6003   C.3       1 RES1   0.0000
    33 C27       7.5061   -3.6785    0.7760   C.3       1 RES1   0.0000
    34 C28       7.6207   -3.3023   -0.6971   C.3       1 RES1   0.0000
    35 C29       6.3300   -3.5182   -1.4800   C.3       1 RES1   0.0000
    36 C30       3.3896    2.8258    3.2847   C.3       1 RES1   0.0000
    37 C31       4.3068    3.3358    2.1805   C.3       1 RES1   0.0000
    38 C32       3.7465    3.0682    0.7858   C.3       1 RES1   0.0000
    39 C33       4.2475    4.0731   -0.2480   C.3       1 RES1   0.0000
    40 C34       3.4909    5.3951   -0.1927   C.3       1 RES1   0.0000
    41 C35       3.9482    6.3557   -1.2861   C.3       1 RES1   0.0000
    42 C36       3.2204    7.6987   -1.2267   C.3       1 RES1   0.0000
    43 C37       1.7494    7.6029   -1.6210   C.3       1 RES1   0.0000
    44 H1       -4.7673   -5.4563   -4.8396   H         1 RES1   0.0000
    45 H2       -5.7389   -3.9985   -5.0101   H         1 RES1   0.0000
    46 H3       -4.1153   -3.8962   -4.3186   H         1 RES1   0.0000
    47 H4       -6.5250   -5.2815   -3.0556   H         1 RES1   0.0000
    48 H5       -4.8983   -5.3320   -2.3886   H         1 RES1   0.0000
    49 H6       -4.8899   -2.8512   -2.2442   H         1 RES1   0.0000
    50 H7       -6.5546   -2.8087   -2.8363   H         1 RES1   0.0000
    51 H8       -7.2321   -4.2528   -0.8788   H         1 RES1   0.0000
    52 H9       -5.6024   -4.1046   -0.2405   H         1 RES1   0.0000
    53 H10      -7.5680   -1.8327   -0.7603   H         1 RES1   0.0000
    54 H11      -7.2399   -2.5304    0.8112   H         1 RES1   0.0000
    55 H12      -6.0687   -0.2836   -0.0259   H         1 RES1   0.0000
    56 H13      -4.9245   -1.4165   -0.7343   H         1 RES1   0.0000
    57 H14      -4.3770   -0.4542    1.5705   H         1 RES1   0.0000
    58 H15      -5.6693   -1.4961    2.1981   H         1 RES1   0.0000
    59 H16      -4.3688   -3.4693    1.7329   H         1 RES1   0.0000
    60 H17      -3.3691   -2.6161    0.5378   H         1 RES1   0.0000
    61 H18      -4.3500   -2.6611    3.9194   H         1 RES1   0.0000
    62 H19      -2.7477   -3.2140    4.3838   H         1 RES1   0.0000
    63 H20      -2.2429   -1.1036    5.3615   H         1 RES1   0.0000
    64 H21      -2.9718   -0.2556    4.0055   H         1 RES1   0.0000
    65 H22      -4.1515    0.3018    5.9809   H         1 RES1   0.0000
    66 H23      -5.2373   -0.7239    5.0454   H         1 RES1   0.0000
    67 H24      -4.8165   -2.6221    6.4924   H         1 RES1   0.0000
    68 H25      -3.4491   -1.8158    7.2551   H         1 RES1   0.0000
    69 H26      -4.9384   -0.1407    8.2667   H         1 RES1   0.0000
    70 H27      -6.3428   -0.8910    7.5037   H         1 RES1   0.0000
    71 H28      -4.4906   -2.3714    9.4102   H         1 RES1   0.0000
    72 H29      -5.8994   -1.4778    9.9603   H         1 RES1   0.0000
    73 H30      -6.1416   -3.6673    7.8666   H         1 RES1   0.0000
    74 H31      -6.1527   -4.0225    9.5916   H         1 RES1   0.0000
    75 H32      -8.1345   -2.1349    8.2329   H         1 RES1   0.0000
    76 H33      -8.4460   -3.8207    8.6617   H         1 RES1   0.0000
    77 H34      -8.1487   -2.6323    9.9260   H         1 RES1   0.0000
    78 H35      -0.8521   -1.8763    4.1936   H         1 RES1   0.0000
    79 H36       0.1791   -2.4319    2.8401   H         1 RES1   0.0000
    80 H37       1.7835   -1.1194    3.7243   H         1 RES1   0.0000
    81 H38       0.2175    1.1216    5.0793   H         1 RES1   0.0000
    82 H39       0.6016   -0.4501    5.7886   H         1 RES1   0.0000
    83 H40       1.8716    0.7506    5.5558   H         1 RES1   0.0000
    84 H41       4.8825    1.0792    4.4114   H         1 RES1   0.0000
    85 H42       3.8144   -0.3222    4.3649   H         1 RES1   0.0000
    86 H43       4.3418   -0.7577    2.0322   H         1 RES1   0.0000
    87 H44       5.1957    0.7692    1.8726   H         1 RES1   0.0000
    88 H45       6.9340    0.1056    3.3850   H         1 RES1   0.0000
    89 H46       6.1282   -1.4068    3.7763   H         1 RES1   0.0000
    90 H47       6.9451   -0.7950    0.9193   H         1 RES1   0.0000
    91 H48       8.1021   -1.4212    2.0864   H         1 RES1   0.0000
    92 H49       6.4760   -3.2893    2.5785   H         1 RES1   0.0000
    93 H50       5.5545   -2.8026    1.1526   H         1 RES1   0.0000
    94 H51       8.4964   -3.6135    1.2285   H         1 RES1   0.0000
    95 H52       7.1825   -4.7201    0.8488   H         1 RES1   0.0000
    96 H53       7.9295   -2.2607   -0.7753   H         1 RES1   0.0000
    97 H54       8.4038   -3.9154   -1.1447   H         1 RES1   0.0000
    98 H55       5.5375   -2.8590   -1.1222   H         1 RES1   0.0000
    99 H56       6.4919   -3.3121   -2.5358   H         1 RES1   0.0000
   100 H57       5.9982   -4.5515   -1.3839   H         1 RES1   0.0000
   101 H58       2.4159    3.3090    3.1802   H         1 RES1   0.0000
   102 H59       3.8125    3.1131    4.2547   H         1 RES1   0.0000
   103 H60       4.4002    4.4104    2.3340   H         1 RES1   0.0000
   104 H61       5.3060    2.9176    2.2822   H         1 RES1   0.0000
   105 H62       4.0234    2.0573    0.4737   H         1 RES1   0.0000
   106 H63       2.6542    3.1068    0.8155   H         1 RES1   0.0000
   107 H64       5.3106    4.2568   -0.0934   H         1 RES1   0.0000
   108 H65       4.1237    3.6407   -1.2422   H         1 RES1   0.0000
   109 H66       2.4203    5.2033   -0.2929   H         1 RES1   0.0000
   110 H67       3.6523    5.8724    0.7736   H         1 RES1   0.0000
   111 H68       5.0189    6.5342   -1.1725   H         1 RES1   0.0000
   112 H69       3.7929    5.9045   -2.2699   H         1 RES1   0.0000
   113 H70       3.2955    8.0990   -0.2133   H         1 RES1   0.0000
   114 H71       3.7196    8.3996   -1.8993   H         1 RES1   0.0000
   115 H72       1.1937    6.9652   -0.9339   H         1 RES1   0.0000
   116 H73       1.2999    8.5927   -1.5988   H         1 RES1   0.0000
   117 H74       1.6499    7.2035   -2.6299   H         1 RES1   0.0000
   118 C38      -1.7967   -6.8118   -1.7473   C.3       1 RES1   0.0000
   119 C39      -1.6385   -6.7067   -3.2628   C.3       1 RES1   0.0000
   120 C40      -0.8257   -5.4656   -3.6423   C.3       1 RES1   0.0000
   121 C41      -1.1166   -4.9489   -5.0540   C.3       1 RES1   0.0000
   122 C42      -0.3084   -3.6985   -5.4570   C.3       1 RES1   0.0000
   123 C43      -0.0985   -2.7565   -4.2711   C.3       1 RES1   0.0000
   124 C44       0.3941   -1.3374   -4.5590   C.3       1 RES1   0.0000
   125 C45      -0.7087   -0.3591   -4.9578   C.3       1 RES1   0.0000
   126 N3       -1.8369   -0.2730   -4.0194   N.am      1 RES1   0.0000
   127 C46      -3.1450   -0.5470   -4.6128   C.3       1 RES1   0.0000
   128 C47      -3.8159    0.6822   -5.2510   C.3       1 RES1   0.0000
   129 C48      -3.4181    1.0114   -6.6980   C.3       1 RES1   0.0000
   130 C49      -4.1283    0.1925   -7.7814   C.3       1 RES1   0.0000
   131 C50      -3.5865   -1.2224   -7.9837   C.3       1 RES1   0.0000
   132 C51      -4.0304   -1.8409   -9.3119   C.3       1 RES1   0.0000
   133 C52      -5.5432   -2.0008   -9.4673   C.3       1 RES1   0.0000
   134 C53      -6.1785   -2.8554   -8.3751   C.3       1 RES1   0.0000
   135 C54      -1.6787    0.0566   -2.7361   C.2       1 RES1   0.0000
   136 O4       -0.5805    0.2070   -2.1652   O.2       1 RES1   0.0000
   137 C55      -2.9360    0.2998   -1.8865   C.3       1 RES1   0.0000
   138 O5       -2.5189    0.7474   -0.5963   O.3       1 RES1   0.0000
   139 C56      -3.4331    1.6734    0.0056   C.3       1 RES1   0.0000
   140 C57      -3.4301    3.0229   -0.7362   C.3       1 RES1   0.0000
   141 C58      -2.8626    2.0152    1.3886   C.2       1 RES1   0.0000
   142 O6       -1.6559    1.7607    1.5814   O.2       1 RES1   0.0000
   143 N4       -3.6103    2.7243    2.2383   N.am      1 RES1   0.0000
   144 C59      -5.0709    2.7230    2.2643   C.3       1 RES1   0.0000
   145 C60      -5.6628    1.6829    3.2307   C.3       1 RES1   0.0000
   146 C61      -7.1926    1.7752    3.2485   C.3       1 RES1   0.0000
   147 C62      -7.8789    0.7633    4.1801   C.3       1 RES1   0.0000
   148 C63      -8.1449   -0.5910    3.5221   C.3       1 RES1   0.0000
   149 C64      -8.9047   -1.5661    4.4362   C.3       1 RES1   0.0000
   150 C65      -8.0222   -2.6603    5.0397   C.3       1 RES1   0.0000
   151 C66      -7.6953   -3.7619    4.0402   C.3       1 RES1   0.0000
   152 C67      -2.9682    3.7573    3.0598   C.3       1 RES1   0.0000
   153 C68      -3.0431    3.6000    4.5781   C.3       1 RES1   0.0000
   154 C69      -1.8896    2.7722    5.1546   C.3       1 RES1   0.0000
   155 C70      -0.7347    3.6435    5.6652   C.3       1 RES1   0.0000
   156 C71      -0.1281    4.5613    4.6059   C.3       1 RES1   0.0000
   157 C72       1.1198    5.2771    5.1256   C.3       1 RES1   0.0000
   158 C73       1.5158    6.5054    4.2980   C.3       1 RES1   0.0000
   159 C74       1.4376    6.3058    2.7874   C.3       1 RES1   0.0000
   160 H75      -2.3362   -7.7161   -1.4808   H         1 RES1   0.0000
   161 H76      -0.8289   -6.8401   -1.2493   H         1 RES1   0.0000
   162 H77      -2.3508   -5.9553   -1.3618   H         1 RES1   0.0000
   163 H78      -1.1608   -7.6079   -3.6469   H         1 RES1   0.0000
   164 H79      -2.6306   -6.6446   -3.7111   H         1 RES1   0.0000
   165 H80      -1.0911   -4.6896   -2.9231   H         1 RES1   0.0000
   166 H81       0.2402   -5.6791   -3.5323   H         1 RES1   0.0000
   167 H82      -0.9227   -5.7409   -5.7773   H         1 RES1   0.0000
   168 H83      -2.1807   -4.7153   -5.1144   H         1 RES1   0.0000
   169 H84       0.6680   -3.9996   -5.8392   H         1 RES1   0.0000
   170 H85      -0.8354   -3.1935   -6.2669   H         1 RES1   0.0000
   171 H86      -1.0342   -2.6787   -3.7156   H         1 RES1   0.0000
   172 H87       0.6462   -3.2306   -3.6351   H         1 RES1   0.0000
   173 H88       0.8657   -0.9508   -3.6551   H         1 RES1   0.0000
   174 H89       1.1374   -1.3445   -5.3572   H         1 RES1   0.0000
   175 H90      -0.2693    0.6345   -5.0702   H         1 RES1   0.0000
   176 H91      -1.1126   -0.6572   -5.9245   H         1 RES1   0.0000
   177 H92      -3.0072   -1.3162   -5.3721   H         1 RES1   0.0000
   178 H93      -3.8087   -0.9655   -3.8555   H         1 RES1   0.0000
   179 H94      -4.8962    0.5287   -5.2272   H         1 RES1   0.0000
   180 H95      -3.5988    1.5521   -4.6264   H         1 RES1   0.0000
   181 H96      -3.6757    2.0588   -6.8662   H         1 RES1   0.0000
   182 H97      -2.3399    0.9314   -6.8297   H         1 RES1   0.0000
   183 H98      -5.1937    0.1510   -7.5574   H         1 RES1   0.0000
   184 H99      -4.0197    0.7289   -8.7258   H         1 RES1   0.0000
   185 H100     -2.4920   -1.1901   -7.9839   H         1 RES1   0.0000
   186 H101     -3.9138   -1.8734   -7.1710   H         1 RES1   0.0000
   187 H102     -3.6594   -1.2236  -10.1322   H         1 RES1   0.0000
   188 H103     -3.5639   -2.8242   -9.4045   H         1 RES1   0.0000
   189 H104     -6.0233   -1.0211   -9.4853   H         1 RES1   0.0000
   190 H105     -5.7311   -2.4696  -10.4348   H         1 RES1   0.0000
   191 H106     -6.1489   -2.3525   -7.4097   H         1 RES1   0.0000
   192 H107     -7.2204   -3.0527   -8.6147   H         1 RES1   0.0000
   193 H108     -5.6611   -3.8085   -8.2865   H         1 RES1   0.0000
   194 H109     -3.5629    1.0443   -2.3777   H         1 RES1   0.0000
   195 H110     -3.5087   -0.6305   -1.7818   H         1 RES1   0.0000
   196 H111     -4.4282    1.2205    0.0341   H         1 RES1   0.0000
   197 H112     -3.9496    2.9768   -1.6926   H         1 RES1   0.0000
   198 H113     -3.9060    3.7966   -0.1371   H         1 RES1   0.0000
   199 H114     -2.3935    3.3180   -0.9092   H         1 RES1   0.0000
   200 H115     -5.3989    3.7166    2.5753   H         1 RES1   0.0000
   201 H116     -5.4804    2.5417    1.2706   H         1 RES1   0.0000
   202 H117     -5.3502    0.6866    2.9302   H         1 RES1   0.0000
   203 H118     -5.2955    1.8499    4.2413   H         1 RES1   0.0000
   204 H119     -7.4685    2.7820    3.5701   H         1 RES1   0.0000
   205 H120     -7.5758    1.6303    2.2357   H         1 RES1   0.0000
   206 H121     -7.2974    0.6323    5.0936   H         1 RES1   0.0000
   207 H122     -8.8374    1.1885    4.4795   H         1 RES1   0.0000
   208 H123     -8.7251   -0.4184    2.6139   H         1 RES1   0.0000
   209 H124     -7.1956   -1.0427    3.2284   H         1 RES1   0.0000
   210 H125     -9.3740   -1.0037    5.2453   H         1 RES1   0.0000
   211 H126     -9.7037   -2.0463    3.8707   H         1 RES1   0.0000
   212 H127     -7.0997   -2.2214    5.4245   H         1 RES1   0.0000
   213 H128     -8.5489   -3.1076    5.8805   H         1 RES1   0.0000
   214 H129     -7.2314   -3.3648    3.1377   H         1 RES1   0.0000
   215 H130     -7.0207   -4.4902    4.4815   H         1 RES1   0.0000
   216 H131     -8.6025   -4.2819    3.7446   H         1 RES1   0.0000
   217 H132     -1.9262    3.8075    2.7454   H         1 RES1   0.0000
   218 H133     -3.4601    4.6986    2.7838   H         1 RES1   0.0000
   219 H134     -3.0174    4.5946    5.0206   H         1 RES1   0.0000
   220 H135     -4.0021    3.1704    4.8611   H         1 RES1   0.0000
   221 H136     -2.2546    2.1730    5.9926   H         1 RES1   0.0000
   222 H137     -1.5396    2.0848    4.3763   H         1 RES1   0.0000
   223 H138     -1.0943    4.2522    6.4948   H         1 RES1   0.0000
   224 H139      0.0445    2.9966    6.0714   H         1 RES1   0.0000
   225 H140      0.1265    3.9707    3.7194   H         1 RES1   0.0000
   226 H141     -0.8644    5.3120    4.3154   H         1 RES1   0.0000
   227 H142      0.9387    5.6090    6.1485   H         1 RES1   0.0000
   228 H143      1.9516    4.5708    5.1592   H         1 RES1   0.0000
   229 H144      0.8716    7.3436    4.5672   H         1 RES1   0.0000
   230 H145      2.5377    6.7828    4.5626   H         1 RES1   0.0000
   231 H146      0.4043    6.2304    2.4541   H         1 RES1   0.0000
   232 H147      1.8858    7.1567    2.2797   H         1 RES1   0.0000
   233 H148      1.9652    5.4050    2.4821   H         1 RES1   0.0000
   234 C75       8.2878    0.0880   -2.5873   C.3       1 RES1   0.0000
   235 C76       8.5584    0.9987   -1.3955   C.3       1 RES1   0.0000
   236 C77       8.4879    2.4913   -1.7254   C.3       1 RES1   0.0000
   237 C78       7.0817    2.9705   -2.1049   C.3       1 RES1   0.0000
   238 C79       6.7885    2.9352   -3.6086   C.3       1 RES1   0.0000
   239 C80       5.2874    2.9236   -3.9173   C.3       1 RES1   0.0000
   240 C81       4.6921    1.5271   -3.7068   C.3       1 RES1   0.0000
   241 C82       3.1777    1.4462   -3.9453   C.3       1 RES1   0.0000
   242 N5        2.3733    1.8426   -2.7988   N.am      1 RES1   0.0000
   243 C83       1.7799    3.1800   -2.8116   C.3       1 RES1   0.0000
   244 C84       0.4015    3.2336   -3.4850   C.3       1 RES1   0.0000
   245 C85       0.4520    3.4143   -5.0049   C.3       1 RES1   0.0000
   246 C86      -0.9285    3.4550   -5.6760   C.3       1 RES1   0.0000
   247 C87      -1.5219    4.8499   -5.8778   C.3       1 RES1   0.0000
   248 C88      -2.0667    5.5312   -4.6232   C.3       1 RES1   0.0000
   249 C89      -3.2423    4.8030   -3.9705   C.3       1 RES1   0.0000
   250 C90      -4.4735    4.7371   -4.8653   C.3       1 RES1   0.0000
   251 C91       2.1259    1.0810   -1.7438   C.2       1 RES1   0.0000
   252 O7        1.4328    1.4846   -0.7833   O.2       1 RES1   0.0000
   253 C92       2.6573   -0.3538   -1.6137   C.3       1 RES1   0.0000
   254 O8        1.5598   -1.1008   -1.0865   O.3       1 RES1   0.0000
   255 C93       1.8274   -2.4781   -0.8176   C.3       1 RES1   0.0000
   256 C94       0.5064   -3.2366   -0.9665   C.3       1 RES1   0.0000
   257 C95       2.1647   -2.6144    0.6734   C.2       1 RES1   0.0000
   258 O9        1.7710   -1.6587    1.3762   O.2       1 RES1   0.0000
   259 N6        2.6635   -3.7429    1.1700   N.am      1 RES1   0.0000
   260 C96       3.2123   -4.8277    0.3631   C.3       1 RES1   0.0000
   261 C97       2.3781   -6.1252    0.3680   C.3       1 RES1   0.0000
   262 C98       2.7954   -7.1763    1.4198   C.3       1 RES1   0.0000
   263 C99       1.8155   -7.3389    2.6004   C.3       1 RES1   0.0000
   264 C100      1.0106   -8.6419    2.5611   C.3       1 RES1   0.0000
   265 C101      0.1699   -8.8304    1.2875   C.3       1 RES1   0.0000
   266 C102      0.7198   -9.9303    0.3761   C.3       1 RES1   0.0000
   267 C103      0.0500   -9.9305   -0.9929   C.3       1 RES1   0.0000
   268 C104      2.6073   -4.0280    2.6087   C.3       1 RES1   0.0000
   269 C105      3.5223   -3.1735    3.4868   C.3       1 RES1   0.0000
   270 C106      3.2160   -3.3362    4.9841   C.3       1 RES1   0.0000
   271 C107      3.9651   -4.5015    5.6451   C.3       1 RES1   0.0000
   272 C108      5.3623   -4.1172    6.1672   C.3       1 RES1   0.0000
   273 C109      6.5155   -4.6887    5.3444   C.3       1 RES1   0.0000
   274 C110      7.8833   -4.4724    5.9959   C.3       1 RES1   0.0000
   275 C111      8.2854   -3.0060    6.1164   C.3       1 RES1   0.0000
   276 H149      8.4757   -0.9504   -2.3257   H         1 RES1   0.0000
   277 H150      8.9437    0.3473   -3.4137   H         1 RES1   0.0000
   278 H151      7.2547    0.1685   -2.9159   H         1 RES1   0.0000
   279 H152      9.5535    0.7758   -1.0066   H         1 RES1   0.0000
   280 H153      7.8404    0.7769   -0.5977   H         1 RES1   0.0000
   281 H154      9.1864    2.7195   -2.5302   H         1 RES1   0.0000
   282 H155      8.8202    3.0403   -0.8423   H         1 RES1   0.0000
   283 H156      6.9521    3.9963   -1.7569   H         1 RES1   0.0000
   284 H157      6.3557    2.3573   -1.5652   H         1 RES1   0.0000
   285 H158      7.2416    2.0544   -4.0572   H         1 RES1   0.0000
   286 H159      7.2474    3.8041   -4.0790   H         1 RES1   0.0000
   287 H160      5.1329    3.2276   -4.9544   H         1 RES1   0.0000
   288 H161      4.7882    3.6540   -3.2788   H         1 RES1   0.0000
   289 H162      4.9197    1.1814   -2.6966   H         1 RES1   0.0000
   290 H163      5.1777    0.8452   -4.4081   H         1 RES1   0.0000
   291 H164      2.9042    0.4340   -4.2512   H         1 RES1   0.0000
   292 H165      2.9230    2.1150   -4.7654   H         1 RES1   0.0000
   293 H166      2.4739    3.8534   -3.3112   H         1 RES1   0.0000
   294 H167      1.6793    3.4925   -1.7722   H         1 RES1   0.0000
   295 H168     -0.1362    4.0765   -3.0538   H         1 RES1   0.0000
   296 H169     -0.1394    2.3225   -3.2212   H         1 RES1   0.0000
   297 H170      1.0103    2.5852   -5.4444   H         1 RES1   0.0000
   298 H171      0.9897    4.3357   -5.2365   H         1 RES1   0.0000
   299 H172     -1.6240    2.8342   -5.1123   H         1 RES1   0.0000
   300 H173     -0.8330    3.0133   -6.6677   H         1 RES1   0.0000
   301 H174     -2.3291    4.7740   -6.6065   H         1 RES1   0.0000
   302 H175     -0.7599    5.4952   -6.3180   H         1 RES1   0.0000
   303 H176     -2.3981    6.5332   -4.9007   H         1 RES1   0.0000
   304 H177     -1.2652    5.6540   -3.8915   H         1 RES1   0.0000
   305 H178     -3.4997    5.3332   -3.0514   H         1 RES1   0.0000
   306 H179     -2.9394    3.7902   -3.6907   H         1 RES1   0.0000
   307 H180     -4.7291    5.7312   -5.2200   H         1 RES1   0.0000
   308 H181     -5.3283    4.3405   -4.3214   H         1 RES1   0.0000
   309 H182     -4.3038    4.1013   -5.7295   H         1 RES1   0.0000
   310 H183      3.5023   -0.3441   -0.9017   H         1 RES1   0.0000
   311 H184      2.9889   -0.7940   -2.5625   H         1 RES1   0.0000
   312 H185      2.5790   -2.8457   -1.5192   H         1 RES1   0.0000
   313 H186     -0.1182   -3.1063   -0.0822   H         1 RES1   0.0000
   314 H187      0.6870   -4.2939   -1.1305   H         1 RES1   0.0000
   315 H188     -0.0373   -2.8266   -1.8138   H         1 RES1   0.0000
   316 H189      4.2143   -5.0449    0.7446   H         1 RES1   0.0000
   317 H190      3.3335   -4.4818   -0.6592   H         1 RES1   0.0000
   318 H191      2.4793   -6.5728   -0.6229   H         1 RES1   0.0000
   319 H192      1.3231   -5.8786    0.4995   H         1 RES1   0.0000
   320 H193      3.7919   -6.9275    1.7980   H         1 RES1   0.0000
   321 H194      2.8893   -8.1439    0.9296   H         1 RES1   0.0000
   322 H195      1.1139   -6.5025    2.6268   H         1 RES1   0.0000
   323 H196      2.3689   -7.3246    3.5424   H         1 RES1   0.0000
   324 H197      0.3588   -8.6502    3.4362   H         1 RES1   0.0000
   325 H198      1.7007   -9.4789    2.6662   H         1 RES1   0.0000
   326 H199      0.1235   -7.8920    0.7319   H         1 RES1   0.0000
   327 H200     -0.8555   -9.0935    1.5486   H         1 RES1   0.0000
   328 H201      0.5554  -10.8992    0.8538   H         1 RES1   0.0000
   329 H202      1.7989   -9.8014    0.2485   H         1 RES1   0.0000
   330 H203     -1.0276  -10.0436   -0.8912   H         1 RES1   0.0000
   331 H204      0.4238  -10.7528   -1.5956   H         1 RES1   0.0000
   332 H205      0.2568   -9.0003   -1.5198   H         1 RES1   0.0000
   333 H206      2.8723   -5.0727    2.7292   H         1 RES1   0.0000
   334 H207      1.5667   -3.9167    2.9373   H         1 RES1   0.0000
   335 H208      3.4059   -2.1336    3.1919   H         1 RES1   0.0000
   336 H209      4.5575   -3.4551    3.3098   H         1 RES1   0.0000
   337 H210      2.1403   -3.4682    5.1251   H         1 RES1   0.0000
   338 H211      3.4956   -2.4151    5.5041   H         1 RES1   0.0000
   339 H212      4.0477   -5.3314    4.9407   H         1 RES1   0.0000
   340 H213      3.3651   -4.8637    6.4794   H         1 RES1   0.0000
   341 H214      5.4769   -4.4770    7.1886   H         1 RES1   0.0000
   342 H215      5.4528   -3.0316    6.2024   H         1 RES1   0.0000
   343 H216      6.5253   -4.2387    4.3483   H         1 RES1   0.0000
   344 H217      6.3656   -5.7635    5.2204   H         1 RES1   0.0000
   345 H218      8.6350   -4.9925    5.3979   H         1 RES1   0.0000
   346 H219      7.8779   -4.9259    6.9881   H         1 RES1   0.0000
   347 H220      8.2960   -2.5213    5.1403   H         1 RES1   0.0000
   348 H221      9.2830   -2.9322    6.5430   H         1 RES1   0.0000
   349 H222      7.6055   -2.4639    6.7700   H         1 RES1   0.0000
@<TRIPOS>BOND
     1     1    20    1
     2     1    22    1
     3     1    26    1
     4     1   136    1
     5     1   138    1
     6     1   142    1
     7     1   252    1
     8     1   254    1
     9     1   258    1
    10     2     3    1
    11     2    44    1
    12     2    45    1
    13     2    46    1
    14     3     4    1
    15     3    47    1
    16     3    48    1
    17     4     5    1
    18     4    49    1
    19     4    50    1
    20     5     6    1
    21     5    51    1
    22     5    52    1
    23     6     7    1
    24     6    53    1
    25     6    54    1
    26     7     8    1
    27     7    55    1
    28     7    56    1
    29     8     9    1
    30     8    57    1
    31     8    58    1
    32     9    10    1
    33     9    59    1
    34     9    60    1
    35    10    11    1
    36    10    19    1
    37    11    12    1
    38    11    61    1
    39    11    62    1
    40    12    13    1
    41    12    63    1
    42    12    64    1
    43    13    14    1
    44    13    65    1
    45    13    66    1
    46    14    15    1
    47    14    67    1
    48    14    68    1
    49    15    16    1
    50    15    69    1
    51    15    70    1
    52    16    17    1
    53    16    71    1
    54    16    72    1
    55    17    18    1
    56    17    73    1
    57    17    74    1
    58    18    75    1
    59    18    76    1
    60    18    77    1
    61    19    20    2
    62    19    21    1
    63    21    22    1
    64    21    78    1
    65    21    79    1
    66    22    23    1
    67    23    24    1
    68    23    25    1
    69    23    80    1
    70    24    81    1
    71    24    82    1
    72    24    83    1
    73    25    26    2
    74    25    27    1
    75    27    28    1
    76    27    36    1
    77    28    29    1
    78    28    84    1
    79    28    85    1
    80    29    30    1
    81    29    86    1
    82    29    87    1
    83    30    31    1
    84    30    88    1
    85    30    89    1
    86    31    32    1
    87    31    90    1
    88    31    91    1
    89    32    33    1
    90    32    92    1
    91    32    93    1
    92    33    34    1
    93    33    94    1
    94    33    95    1
    95    34    35    1
    96    34    96    1
    97    34    97    1
    98    35    98    1
    99    35    99    1
   100    35   100    1
   101    36    37    1
   102    36   101    1
   103    36   102    1
   104    37    38    1
   105    37   103    1
   106    37   104    1
   107    38    39    1
   108    38   105    1
   109    38   106    1
   110    39    40    1
   111    39   107    1
   112    39   108    1
   113    40    41    1
   114    40   109    1
   115    40   110    1
   116    41    42    1
   117    41   111    1
   118    41   112    1
   119    42    43    1
   120    42   113    1
   121    42   114    1
   122    43   115    1
   123    43   116    1
   124    43   117    1
   125   118   119    1
   126   118   160    1
   127   118   161    1
   128   118   162    1
   129   119   120    1
   130   119   163    1
   131   119   164    1
   132   120   121    1
   133   120   165    1
   134   120   166    1
   135   121   122    1
   136   121   167    1
   137   121   168    1
   138   122   123    1
   139   122   169    1
   140   122   170    1
   141   123   124    1
   142   123   171    1
   143   123   172    1
   144   124   125    1
   145   124   173    1
   146   124   174    1
   147   125   126    1
   148   125   175    1
   149   125   176    1
   150   126   127    1
   151   126   135    1
   152   127   128    1
   153   127   177    1
   154   127   178    1
   155   128   129    1
   156   128   179    1
   157   128   180    1
   158   129   130    1
   159   129   181    1
   160   129   182    1
   161   130   131    1
   162   130   183    1
   163   130   184    1
   164   131   132    1
   165   131   185    1
   166   131   186    1
   167   132   133    1
   168   132   187    1
   169   132   188    1
   170   133   134    1
   171   133   189    1
   172   133   190    1
   173   134   191    1
   174   134   192    1
   175   134   193    1
   176   135   136    2
   177   135   137    1
   178   137   138    1
   179   137   194    1
   180   137   195    1
   181   138   139    1
   182   139   140    1
   183   139   141    1
   184   139   196    1
   185   140   197    1
   186   140   198    1
   187   140   199    1
   188   141   142    2
   189   141   143    1
   190   143   144    1
   191   143   152    1
   192   144   145    1
   193   144   200    1
   194   144   201    1
   195   145   146    1
   196   145   202    1
   197   145   203    1
   198   146   147    1
   199   146   204    1
   200   146   205    1
   201   147   148    1
   202   147   206    1
   203   147   207    1
   204   148   149    1
   205   148   208    1
   206   148   209    1
   207   149   150    1
   208   149   210    1
   209   149   211    1
   210   150   151    1
   211   150   212    1
   212   150   213    1
   213   151   214    1
   214   151   215    1
   215   151   216    1
   216   152   153    1
   217   152   217    1
   218   152   218    1
   219   153   154    1
   220   153   219    1
   221   153   220    1
   222   154   155    1
   223   154   221    1
   224   154   222    1
   225   155   156    1
   226   155   223    1
   227   155   224    1
   228   156   157    1
   229   156   225    1
   230   156   226    1
   231   157   158    1
   232   157   227    1
   233   157   228    1
   234   158   159    1
   235   158   229    1
   236   158   230    1
   237   159   231    1
   238   159   232    1
   239   159   233    1
   240   234   235    1
   241   234   276    1
   242   234   277    1
   243   234   278    1
   244   235   236    1
   245   235   279    1
   246   235   280    1
   247   236   237    1
   248   236   281    1
   249   236   282    1
   250   237   238    1
   251   237   283    1
   252   237   284    1
   253   238   239    1
   254   238   285    1
   255   238   286    1
   256   239   240    1
   257   239   287    1
   258   239   288    1
   259   240   241    1
   260   240   289    1
   261   240   290    1
   262   241   242    1
   263   241   291    1
   264   241   292    1
   265   242   243    1
   266   242   251    1
   267   243   244    1
   268   243   293    1
   269   243   294    1
   270   244   245    1
   271   244   295    1
   272   244   296    1
   273   245   246    1
   274   245   297    1
   275   245   298    1
   276   246   247    1
   277   246   299    1
   278   246   300    1
   279   247   248    1
   280   247   301    1
   281   247   302    1
   282   248   249    1
   283   248   303    1
   284   248   304    1
   285   249   250    1
   286   249   305    1
   287   249   306    1
   288   250   307    1
   289   250   308    1
   290   250   309    1
   291   251   252    2
   292   251   253    1
   293   253   254    1
   294   253   310    1
   295   253   311    1
   296   254   255    1
   297   255   256    1
   298   255   257    1
   299   255   312    1
   300   256   313    1
   301   256   314    1
   302   256   315    1
   303   257   258    2
   304   257   259    1
   305   259   260    1
   306   259   268    1
   307   260   261    1
   308   260   316    1
   309   260   317    1
   310   261   262    1
   311   261   318    1
   312   261   319    1
   313   262   263    1
   314   262   320    1
   315   262   321    1
   316   263   264    1
   317   263   322    1
   318   263   323    1
   319   264   265    1
   320   264   324    1
   321   264   325    1
   322   265   266    1
   323   265   326    1
   324   265   327    1
   325   266   267    1
   326   266   328    1
   327   266   329    1
   328   267   330    1
   329   267   331    1
   330   267   332    1
   331   268   269    1
   332   268   333    1
   333   268   334    1
   334   269   270    1
   335   269   335    1
   336   269   336    1
   337   270   271    1
   338   270   337    1
   339   270   338    1
   340   271   272    1
   341   271   339    1
   342   271   340    1
   343   272   273    1
   344   272   341    1
   345   272   342    1
   346   273   274    1
   347   273   343    1
   348   273   344    1
   349   274   275    1
   350   274   345    1
   351   274   346    1
   352   275   347    1
   353   275   348    1
   354   275   349    1
@<TRIPOS>SUBSTRUCTURE
     1 RES1      349 GROUP             0 ****  ****    0  
