@<TRIPOS>MOLECULE
am_c3_9H2O_c0_0_nunpairedes_0_charge_1 Charge: 1 Unpaired_Electrons: 6 XTB_Unpaired_Electrons: 0 XTB_Charge: 1
    99   104     1     0     0
SMALL
NoCharges
****
Generated from Architector

@<TRIPOS>ATOM
     1 Eu1       0.2649    0.1761   -0.1766   Eu        1 RES1   0.0000
     2 C1        7.1115    3.9554   -3.6861   C.3       1 RES1   0.0000
     3 C2        6.7900    2.6003   -3.0632   C.3       1 RES1   0.0000
     4 C3        5.4253    2.5684   -2.3710   C.3       1 RES1   0.0000
     5 C4        4.2488    2.6151   -3.3471   C.3       1 RES1   0.0000
     6 C5        2.9170    2.8695   -2.6358   C.3       1 RES1   0.0000
     7 C6        2.7005    4.3464   -2.2939   C.3       1 RES1   0.0000
     8 C7        1.7207    4.5278   -1.1310   C.3       1 RES1   0.0000
     9 C8        2.4424    4.3150    0.2036   C.3       1 RES1   0.0000
    10 N1        1.5215    4.0899    1.3104   N.am      1 RES1   0.0000
    11 C9        1.3345    5.1661    2.2607   C.3       1 RES1   0.0000
    12 C10       2.6030    5.4235    3.0930   C.3       1 RES1   0.0000
    13 C11       3.3305    4.1452    3.5289   C.3       1 RES1   0.0000
    14 C12       4.0735    4.3285    4.8555   C.3       1 RES1   0.0000
    15 C13       3.1566    4.4729    6.0708   C.3       1 RES1   0.0000
    16 C14       2.2981    3.2380    6.3370   C.3       1 RES1   0.0000
    17 C15       1.4006    3.4106    7.5616   C.3       1 RES1   0.0000
    18 C16       0.5253    2.1839    7.7903   C.3       1 RES1   0.0000
    19 C17       1.0285    2.8706    1.4080   C.2       1 RES1   0.0000
    20 O1        1.3790    1.9579    0.6344   O.2       1 RES1   0.0000
    21 C18      -0.0288    2.5074    2.4583   C.3       1 RES1   0.0000
    22 O2       -0.3411    1.1110    2.3605   O.3       1 RES1   0.0000
    23 C19       0.6258    0.2294    2.8923   C.3       1 RES1   0.0000
    24 P1        0.6684   -2.1640    1.7541   P.3       1 RES1   0.0000
    25 O3        1.1832   -0.5720    1.8607   O.2       1 RES1   0.0000
    26 O4        0.7309   -2.1945    0.1024   O.3       1 RES1   0.0000
    27 C20       0.1299   -3.4408   -0.3559   C.3       1 RES1   0.0000
    28 C21       0.5945   -3.8865   -1.7373   C.3       1 RES1   0.0000
    29 C22       0.3915   -2.8559   -2.8481   C.3       1 RES1   0.0000
    30 C23      -0.9960   -2.2254   -2.8334   C.3       1 RES1   0.0000
    31 O5       -0.9049   -1.7819    1.8964   O.3       1 RES1   0.0000
    32 C24      -1.8821   -2.7169    2.3960   C.3       1 RES1   0.0000
    33 C25      -3.1880   -2.4654    1.6556   C.3       1 RES1   0.0000
    34 C26      -3.8973   -1.2098    2.1671   C.3       1 RES1   0.0000
    35 C27      -5.2757   -1.0632    1.5416   C.3       1 RES1   0.0000
    36 H1        8.1345    3.9680   -4.0554   H         1 RES1   0.0000
    37 H2        7.0075    4.7486   -2.9477   H         1 RES1   0.0000
    38 H3        6.4501    4.1735   -4.5208   H         1 RES1   0.0000
    39 H4        7.5597    2.3658   -2.3232   H         1 RES1   0.0000
    40 H5        6.8254    1.8262   -3.8321   H         1 RES1   0.0000
    41 H6        5.3702    3.4126   -1.6779   H         1 RES1   0.0000
    42 H7        5.3498    1.6512   -1.7805   H         1 RES1   0.0000
    43 H8        4.1939    1.6630   -3.8775   H         1 RES1   0.0000
    44 H9        4.4057    3.4001   -4.0867   H         1 RES1   0.0000
    45 H10       2.8905    2.2729   -1.7169   H         1 RES1   0.0000
    46 H11       2.0972    2.5398   -3.2775   H         1 RES1   0.0000
    47 H12       2.3225    4.8640   -3.1768   H         1 RES1   0.0000
    48 H13       3.6524    4.8095   -2.0304   H         1 RES1   0.0000
    49 H14       0.9042    3.8061   -1.2314   H         1 RES1   0.0000
    50 H15       1.2871    5.5275   -1.1605   H         1 RES1   0.0000
    51 H16       3.0590    5.1772    0.4375   H         1 RES1   0.0000
    52 H17       3.0836    3.4346    0.1164   H         1 RES1   0.0000
    53 H18       0.5040    4.9225    2.9186   H         1 RES1   0.0000
    54 H19       1.0788    6.0747    1.7124   H         1 RES1   0.0000
    55 H20       2.3023    5.9889    3.9743   H         1 RES1   0.0000
    56 H21       3.2980    6.0513    2.5352   H         1 RES1   0.0000
    57 H22       4.0526    3.8573    2.7609   H         1 RES1   0.0000
    58 H23       2.6218    3.3195    3.6216   H         1 RES1   0.0000
    59 H24       4.6992    5.2184    4.7807   H         1 RES1   0.0000
    60 H25       4.7343    3.4734    5.0093   H         1 RES1   0.0000
    61 H26       2.5042    5.3402    5.9530   H         1 RES1   0.0000
    62 H27       3.7799    4.6597    6.9460   H         1 RES1   0.0000
    63 H28       2.9459    2.3696    6.4820   H         1 RES1   0.0000
    64 H29       1.6566    3.0340    5.4734   H         1 RES1   0.0000
    65 H30       0.7667    4.2902    7.4226   H         1 RES1   0.0000
    66 H31       2.0203    3.5868    8.4426   H         1 RES1   0.0000
    67 H32      -0.1073    1.9964    6.9239   H         1 RES1   0.0000
    68 H33      -0.1159    2.3299    8.6546   H         1 RES1   0.0000
    69 H34       1.1414    1.3049    7.9640   H         1 RES1   0.0000
    70 H35      -0.9632    3.0358    2.2416   H         1 RES1   0.0000
    71 H36       0.2849    2.7502    3.4779   H         1 RES1   0.0000
    72 H37       0.1289   -0.4042    3.6408   H         1 RES1   0.0000
    73 H38       1.4513    0.7834    3.3541   H         1 RES1   0.0000
    74 H39      -0.9544   -3.2993   -0.3500   H         1 RES1   0.0000
    75 H40       0.3784   -4.2308    0.3652   H         1 RES1   0.0000
    76 H41       0.0137   -4.7829   -1.9716   H         1 RES1   0.0000
    77 H42       1.6475   -4.1647   -1.6866   H         1 RES1   0.0000
    78 H43       0.5472   -3.3649   -3.7987   H         1 RES1   0.0000
    79 H44       1.1606   -2.0889   -2.7758   H         1 RES1   0.0000
    80 H45      -1.7627   -2.9971   -2.8601   H         1 RES1   0.0000
    81 H46      -1.1273   -1.5878   -3.7033   H         1 RES1   0.0000
    82 H47      -1.1420   -1.6134   -1.9361   H         1 RES1   0.0000
    83 H48      -2.0112   -2.5508    3.4704   H         1 RES1   0.0000
    84 H49      -1.5315   -3.7443    2.2519   H         1 RES1   0.0000
    85 H50      -3.8322   -3.3374    1.7857   H         1 RES1   0.0000
    86 H51      -2.9714   -2.3483    0.5898   H         1 RES1   0.0000
    87 H52      -3.2880   -0.3306    1.9386   H         1 RES1   0.0000
    88 H53      -3.9897   -1.2779    3.2557   H         1 RES1   0.0000
    89 H54      -5.2054   -0.9089    0.4690   H         1 RES1   0.0000
    90 H55      -5.7925   -0.2170    1.9795   H         1 RES1   0.0000
    91 H56      -5.8596   -1.9589    1.7283   H         1 RES1   0.0000
    92 N2       -2.0168    0.9971   -0.6725   N.3       1 RES1   0.0000
    93 O6       -3.0535    1.3325   -1.1390   O.2       1 RES1   0.0000
    94 O7       -1.1168    1.8066   -0.4028   O.co2     1 RES1   0.0000
    95 O8       -1.7824   -0.2000   -0.3935   O.co2     1 RES1   0.0000
    96 N3        1.7812    0.0625   -2.1078   N.3       1 RES1   0.0000
    97 O9        2.4399   -0.1102   -3.0772   O.2       1 RES1   0.0000
    98 O10       0.5856    0.4205   -2.1940   O.co2     1 RES1   0.0000
    99 O11       2.2255   -0.1252   -0.9669   O.co2     1 RES1   0.0000
@<TRIPOS>BOND
     1     1    20    1
     2     1    22    1
     3     1    25    1
     4     1    26    1
     5     1    31    1
     6     1    94    1
     7     1    95    1
     8     1    98    1
     9     1    99    1
    10     2     3    1
    11     2    36    1
    12     2    37    1
    13     2    38    1
    14     3     4    1
    15     3    39    1
    16     3    40    1
    17     4     5    1
    18     4    41    1
    19     4    42    1
    20     5     6    1
    21     5    43    1
    22     5    44    1
    23     6     7    1
    24     6    45    1
    25     6    46    1
    26     7     8    1
    27     7    47    1
    28     7    48    1
    29     8     9    1
    30     8    49    1
    31     8    50    1
    32     9    10    1
    33     9    51    1
    34     9    52    1
    35    10    11    1
    36    10    19    1
    37    11    12    1
    38    11    53    1
    39    11    54    1
    40    12    13    1
    41    12    55    1
    42    12    56    1
    43    13    14    1
    44    13    57    1
    45    13    58    1
    46    14    15    1
    47    14    59    1
    48    14    60    1
    49    15    16    1
    50    15    61    1
    51    15    62    1
    52    16    17    1
    53    16    63    1
    54    16    64    1
    55    17    18    1
    56    17    65    1
    57    17    66    1
    58    18    67    1
    59    18    68    1
    60    18    69    1
    61    19    20    2
    62    19    21    1
    63    21    22    1
    64    21    70    1
    65    21    71    1
    66    22    23    1
    67    23    24    1
    68    23    72    1
    69    23    73    1
    70    24    25    2
    71    24    26    1
    72    24    31    1
    73    26    27    1
    74    27    28    1
    75    27    74    1
    76    27    75    1
    77    28    29    1
    78    28    76    1
    79    28    77    1
    80    29    30    1
    81    29    78    1
    82    29    79    1
    83    30    80    1
    84    30    81    1
    85    30    82    1
    86    31    32    1
    87    32    33    1
    88    32    83    1
    89    32    84    1
    90    33    34    1
    91    33    85    1
    92    33    86    1
    93    34    35    1
    94    34    87    1
    95    34    88    1
    96    35    89    1
    97    35    90    1
    98    35    91    1
    99    92    93    2
   100    92    94    1
   101    92    95    1
   102    96    97    2
   103    96    98    1
   104    96    99    1
@<TRIPOS>SUBSTRUCTURE
     1 RES1       99 GROUP             0 ****  ****    0  
