@<TRIPOS>MOLECULE
tricapped_trigonal_prismatic_0_nunpairedes_0_charge_3 Charge: 3 Unpaired_Electrons: 6 XTB_Unpaired_Electrons: 0 XTB_Charge: 3
   340   345     1     0     0
SMALL
NoCharges
****
Generated from Architector

@<TRIPOS>ATOM
     1 Eu1      -0.0008   -0.0607   -0.0028   Eu        1 RES1   0.0000
     2 C1       -2.0439   -2.2141   -7.5923   C.3       1 RES1   0.0000
     3 C2       -1.0325   -1.0791   -7.5017   C.3       1 RES1   0.0000
     4 C3       -0.0615   -1.1847   -6.3259   C.3       1 RES1   0.0000
     5 C4        0.9410   -2.3254   -6.4582   C.3       1 RES1   0.0000
     6 C5        1.6820   -2.6169   -5.1555   C.3       1 RES1   0.0000
     7 C6        2.5285   -1.4675   -4.5978   C.3       1 RES1   0.0000
     8 C7        3.1835   -1.9312   -3.2933   C.3       1 RES1   0.0000
     9 C8        4.2941   -1.0672   -2.6889   C.3       1 RES1   0.0000
    10 N1        4.0177    0.3504   -2.4417   N.am      1 RES1   0.0000
    11 C9        5.2678    1.1272   -2.5049   C.3       1 RES1   0.0000
    12 C10       6.0497    1.3310   -3.8286   C.3       1 RES1   0.0000
    13 C11       6.7429    0.1985   -4.6180   C.3       1 RES1   0.0000
    14 C12       5.9598   -0.5552   -5.7170   C.3       1 RES1   0.0000
    15 C13       5.0562    0.3383   -6.5649   C.3       1 RES1   0.0000
    16 C14       4.3977   -0.3491   -7.7639   C.3       1 RES1   0.0000
    17 C15       3.3403    0.5734   -8.3731   C.3       1 RES1   0.0000
    18 C16       2.6015   -0.0364   -9.5543   C.3       1 RES1   0.0000
    19 C17       2.9507    0.6388   -1.6914   C.2       1 RES1   0.0000
    20 O1        2.1706   -0.2467   -1.2891   O.2       1 RES1   0.0000
    21 C18       2.5530    2.0695   -1.2981   C.3       1 RES1   0.0000
    22 O2        1.7544    1.9473   -0.1122   O.3       1 RES1   0.0000
    23 C19       2.0619    2.8052    0.9787   C.3       1 RES1   0.0000
    24 C20       1.4026    2.1762    2.2156   C.2       1 RES1   0.0000
    25 O3        0.8108    1.0859    2.0450   O.2       1 RES1   0.0000
    26 N2        1.4116    2.8295    3.3744   N.am      1 RES1   0.0000
    27 C21       2.2332    4.0117    3.6377   C.3       1 RES1   0.0000
    28 C22       1.4838    5.1593    4.3200   C.3       1 RES1   0.0000
    29 C23       2.3061    6.4532    4.3451   C.3       1 RES1   0.0000
    30 C24       3.1677    6.6090    5.5976   C.3       1 RES1   0.0000
    31 C25       4.4623    5.7959    5.6206   C.3       1 RES1   0.0000
    32 C26       5.4361    6.1638    4.5027   C.3       1 RES1   0.0000
    33 C27       6.8157    5.5495    4.7173   C.3       1 RES1   0.0000
    34 C28       7.7790    5.9168    3.5989   C.3       1 RES1   0.0000
    35 C29       0.4759    2.4440    4.4392   C.3       1 RES1   0.0000
    36 C30       0.9866    2.3872    5.8868   C.3       1 RES1   0.0000
    37 C31       1.2315    0.9863    6.4641   C.3       1 RES1   0.0000
    38 C32       2.6816    0.5136    6.3749   C.3       1 RES1   0.0000
    39 C33       3.1663    0.2714    4.9523   C.3       1 RES1   0.0000
    40 C34       4.5951   -0.2605    4.9217   C.3       1 RES1   0.0000
    41 C35       5.0527   -0.6217    3.5127   C.3       1 RES1   0.0000
    42 C36       5.0797    0.5734    2.5708   C.3       1 RES1   0.0000
    43 H1       -2.7534   -2.0079   -8.3879   H         1 RES1   0.0000
    44 H2       -2.6041   -2.3286   -6.6655   H         1 RES1   0.0000
    45 H3       -1.5653   -3.1609   -7.8198   H         1 RES1   0.0000
    46 H4       -1.5785   -0.1372   -7.4169   H         1 RES1   0.0000
    47 H5       -0.4602   -1.0370   -8.4275   H         1 RES1   0.0000
    48 H6       -0.6213   -1.3060   -5.3921   H         1 RES1   0.0000
    49 H7        0.4993   -0.2533   -6.2590   H         1 RES1   0.0000
    50 H8        1.6582   -2.0889   -7.2420   H         1 RES1   0.0000
    51 H9        0.4245   -3.2389   -6.7519   H         1 RES1   0.0000
    52 H10       2.3336   -3.4815   -5.3156   H         1 RES1   0.0000
    53 H11       0.9378   -2.9038   -4.4053   H         1 RES1   0.0000
    54 H12       1.9136   -0.5859   -4.4023   H         1 RES1   0.0000
    55 H13       3.2741   -1.2017   -5.3405   H         1 RES1   0.0000
    56 H14       3.6519   -2.9037   -3.4811   H         1 RES1   0.0000
    57 H15       2.3914   -2.0558   -2.5563   H         1 RES1   0.0000
    58 H16       5.1504   -1.0891   -3.3518   H         1 RES1   0.0000
    59 H17       4.5990   -1.5100   -1.7305   H         1 RES1   0.0000
    60 H18       5.9400    0.6345   -1.7938   H         1 RES1   0.0000
    61 H19       5.0683    2.1238   -2.1112   H         1 RES1   0.0000
    62 H20       6.8581    1.9866   -3.4916   H         1 RES1   0.0000
    63 H21       5.4682    1.9102   -4.5337   H         1 RES1   0.0000
    64 H22       7.2024   -0.5203   -3.9346   H         1 RES1   0.0000
    65 H23       7.5670    0.6991   -5.1330   H         1 RES1   0.0000
    66 H24       5.3642   -1.3707   -5.3036   H         1 RES1   0.0000
    67 H25       6.6976   -1.0270   -6.3663   H         1 RES1   0.0000
    68 H26       5.6296    1.1928   -6.9278   H         1 RES1   0.0000
    69 H27       4.2556    0.7073   -5.9280   H         1 RES1   0.0000
    70 H28       3.9326   -1.2871   -7.4511   H         1 RES1   0.0000
    71 H29       5.1475   -0.5977   -8.5132   H         1 RES1   0.0000
    72 H30       3.8240    1.4959   -8.6974   H         1 RES1   0.0000
    73 H31       2.6150    0.8394   -7.5986   H         1 RES1   0.0000
    74 H32       3.2904   -0.2779  -10.3573   H         1 RES1   0.0000
    75 H33       1.8677    0.6683   -9.9373   H         1 RES1   0.0000
    76 H34       2.0805   -0.9458   -9.2650   H         1 RES1   0.0000
    77 H35       1.9105    2.4798   -2.0914   H         1 RES1   0.0000
    78 H36       3.4126    2.7151   -1.1339   H         1 RES1   0.0000
    79 H37       1.5931    3.7881    0.8203   H         1 RES1   0.0000
    80 H38       3.1447    2.9201    1.0952   H         1 RES1   0.0000
    81 H39       2.6331    4.3806    2.6959   H         1 RES1   0.0000
    82 H40       3.0843    3.6960    4.2480   H         1 RES1   0.0000
    83 H41       1.2150    4.8961    5.3395   H         1 RES1   0.0000
    84 H42       0.5612    5.3452    3.7779   H         1 RES1   0.0000
    85 H43       1.6051    7.2889    4.3143   H         1 RES1   0.0000
    86 H44       2.9317    6.5189    3.4545   H         1 RES1   0.0000
    87 H45       2.5623    6.3497    6.4704   H         1 RES1   0.0000
    88 H46       3.4345    7.6617    5.6918   H         1 RES1   0.0000
    89 H47       4.2457    4.7256    5.5890   H         1 RES1   0.0000
    90 H48       4.9477    5.9893    6.5780   H         1 RES1   0.0000
    91 H49       5.5335    7.2492    4.4621   H         1 RES1   0.0000
    92 H50       5.0502    5.8329    3.5353   H         1 RES1   0.0000
    93 H51       6.7297    4.4627    4.7832   H         1 RES1   0.0000
    94 H52       7.2178    5.9024    5.6657   H         1 RES1   0.0000
    95 H53       7.4185    5.5531    2.6386   H         1 RES1   0.0000
    96 H54       8.7578    5.4848    3.7832   H         1 RES1   0.0000
    97 H55       7.8920    6.9948    3.5324   H         1 RES1   0.0000
    98 H56       0.0702    1.4712    4.1733   H         1 RES1   0.0000
    99 H57      -0.3345    3.1825    4.3947   H         1 RES1   0.0000
   100 H58       0.2176    2.8655    6.4989   H         1 RES1   0.0000
   101 H59       1.9018    2.9640    5.9895   H         1 RES1   0.0000
   102 H60       0.5641    0.2630    5.9871   H         1 RES1   0.0000
   103 H61       0.9751    1.0258    7.5240   H         1 RES1   0.0000
   104 H62       2.7807   -0.4092    6.9475   H         1 RES1   0.0000
   105 H63       3.3222    1.2562    6.8551   H         1 RES1   0.0000
   106 H64       3.1182    1.2062    4.3966   H         1 RES1   0.0000
   107 H65       2.5083   -0.4453    4.4533   H         1 RES1   0.0000
   108 H66       4.6572   -1.1493    5.5515   H         1 RES1   0.0000
   109 H67       5.2719    0.4836    5.3446   H         1 RES1   0.0000
   110 H68       4.3886   -1.3866    3.1033   H         1 RES1   0.0000
   111 H69       6.0535   -1.0481    3.5794   H         1 RES1   0.0000
   112 H70       4.0783    0.9755    2.4308   H         1 RES1   0.0000
   113 H71       5.4664    0.2820    1.5989   H         1 RES1   0.0000
   114 H72       5.7195    1.3550    2.9718   H         1 RES1   0.0000
   115 C37      -5.4158   -1.0112    1.8700   C.3       1 RES1   0.0000
   116 C38      -6.3407   -1.9964    1.1637   C.3       1 RES1   0.0000
   117 C39      -5.6572   -2.7879    0.0464   C.3       1 RES1   0.0000
   118 C40      -4.3801   -3.5258    0.4537   C.3       1 RES1   0.0000
   119 C41      -4.6008   -4.5807    1.5430   C.3       1 RES1   0.0000
   120 C42      -3.2766   -5.1156    2.0998   C.3       1 RES1   0.0000
   121 C43      -2.6273   -4.1073    3.0456   C.3       1 RES1   0.0000
   122 C44      -1.0910   -4.0532    2.9980   C.3       1 RES1   0.0000
   123 N3       -0.6933   -2.6855    3.3223   N.am      1 RES1   0.0000
   124 C45       0.1965   -2.4770    4.4588   C.3       1 RES1   0.0000
   125 C46      -0.3860   -2.8007    5.8387   C.3       1 RES1   0.0000
   126 C47      -1.7208   -2.1032    6.0566   C.3       1 RES1   0.0000
   127 C48      -2.2472   -2.1260    7.4941   C.3       1 RES1   0.0000
   128 C49      -3.7766   -2.0578    7.5135   C.3       1 RES1   0.0000
   129 C50      -4.3470   -0.9204    6.6672   C.3       1 RES1   0.0000
   130 C51      -5.8695   -0.9719    6.5520   C.3       1 RES1   0.0000
   131 C52      -6.3683   -2.2301    5.8512   C.3       1 RES1   0.0000
   132 C53      -1.1284   -1.7524    2.4698   C.2       1 RES1   0.0000
   133 O4       -1.3438   -1.9606    1.2634   O.2       1 RES1   0.0000
   134 C54      -1.5699   -0.3804    2.9742   C.3       1 RES1   0.0000
   135 O5       -1.7202    0.4187    1.8053   O.3       1 RES1   0.0000
   136 C55      -2.2716    1.7065    2.0263   C.3       1 RES1   0.0000
   137 C56      -2.1661    2.4504    0.6849   C.2       1 RES1   0.0000
   138 O6       -1.7535    1.7913   -0.2901   O.2       1 RES1   0.0000
   139 N4       -2.5741    3.7120    0.6349   N.am      1 RES1   0.0000
   140 C57      -2.6458    4.5385    1.8315   C.3       1 RES1   0.0000
   141 C58      -1.2922    5.2057    2.1100   C.3       1 RES1   0.0000
   142 C59      -0.6864    5.9363    0.9103   C.3       1 RES1   0.0000
   143 C60       0.5176    6.8016    1.2788   C.3       1 RES1   0.0000
   144 C61       1.2364    7.3673    0.0463   C.3       1 RES1   0.0000
   145 C62       2.2984    6.4422   -0.5627   C.3       1 RES1   0.0000
   146 C63       3.5503    6.3110    0.3061   C.3       1 RES1   0.0000
   147 C64       4.6505    5.4909   -0.3539   C.3       1 RES1   0.0000
   148 C65      -2.9958    4.3807   -0.6005   C.3       1 RES1   0.0000
   149 C66      -2.0057    4.5430   -1.7569   C.3       1 RES1   0.0000
   150 C67      -2.0047    5.9589   -2.3732   C.3       1 RES1   0.0000
   151 C68      -2.8101    6.0316   -3.6734   C.3       1 RES1   0.0000
   152 C69      -2.8874    7.4243   -4.3127   C.3       1 RES1   0.0000
   153 C70      -1.6196    7.9381   -5.0062   C.3       1 RES1   0.0000
   154 C71      -0.5418    8.5003   -4.0822   C.3       1 RES1   0.0000
   155 C72       0.5362    9.2384   -4.8636   C.3       1 RES1   0.0000
   156 H73      -5.9914   -0.3687    2.5326   H         1 RES1   0.0000
   157 H74      -4.8906   -0.3864    1.1485   H         1 RES1   0.0000
   158 H75      -4.6800   -1.5385    2.4721   H         1 RES1   0.0000
   159 H76      -7.1730   -1.4488    0.7182   H         1 RES1   0.0000
   160 H77      -6.7688   -2.6772    1.8993   H         1 RES1   0.0000
   161 H78      -5.4067   -2.0976   -0.7664   H         1 RES1   0.0000
   162 H79      -6.3726   -3.5079   -0.3543   H         1 RES1   0.0000
   163 H80      -3.6267   -2.7971    0.7635   H         1 RES1   0.0000
   164 H81      -3.9819   -4.0284   -0.4331   H         1 RES1   0.0000
   165 H82      -5.1706   -5.4063    1.1157   H         1 RES1   0.0000
   166 H83      -5.1930   -4.1678    2.3605   H         1 RES1   0.0000
   167 H84      -2.6088   -5.3152    1.2636   H         1 RES1   0.0000
   168 H85      -3.4390   -6.0549    2.6283   H         1 RES1   0.0000
   169 H86      -2.9554   -4.2954    4.0673   H         1 RES1   0.0000
   170 H87      -2.9948   -3.1206    2.7623   H         1 RES1   0.0000
   171 H88      -0.7256   -4.3288    2.0054   H         1 RES1   0.0000
   172 H89      -0.6405   -4.7178    3.7311   H         1 RES1   0.0000
   173 H90       0.5352   -1.4384    4.4383   H         1 RES1   0.0000
   174 H91       1.0678   -3.1214    4.2821   H         1 RES1   0.0000
   175 H92       0.3476   -2.4694    6.5726   H         1 RES1   0.0000
   176 H93      -0.5055   -3.8768    5.9604   H         1 RES1   0.0000
   177 H94      -2.4512   -2.5861    5.4085   H         1 RES1   0.0000
   178 H95      -1.6254   -1.0620    5.7425   H         1 RES1   0.0000
   179 H96      -1.8284   -1.2843    8.0476   H         1 RES1   0.0000
   180 H97      -1.9367   -3.0389    8.0055   H         1 RES1   0.0000
   181 H98      -4.1182   -1.9374    8.5417   H         1 RES1   0.0000
   182 H99      -4.1622   -3.0098    7.1491   H         1 RES1   0.0000
   183 H100     -3.9328   -0.9632    5.6562   H         1 RES1   0.0000
   184 H101     -4.0440    0.0330    7.1059   H         1 RES1   0.0000
   185 H102     -6.2030   -0.0972    5.9890   H         1 RES1   0.0000
   186 H103     -6.3127   -0.9110    7.5449   H         1 RES1   0.0000
   187 H104     -5.8763   -2.3647    4.8891   H         1 RES1   0.0000
   188 H105     -7.4377   -2.1633    5.6771   H         1 RES1   0.0000
   189 H106     -6.1879   -3.1144    6.4546   H         1 RES1   0.0000
   190 H107     -0.8643    0.0558    3.6819   H         1 RES1   0.0000
   191 H108     -2.5436   -0.5145    3.4716   H         1 RES1   0.0000
   192 H109     -1.7386    2.2019    2.8414   H         1 RES1   0.0000
   193 H110     -3.3411    1.6159    2.2777   H         1 RES1   0.0000
   194 H111     -2.9615    3.9433    2.6891   H         1 RES1   0.0000
   195 H112     -3.4097    5.2974    1.6665   H         1 RES1   0.0000
   196 H113     -0.5866    4.4385    2.4373   H         1 RES1   0.0000
   197 H114     -1.4461    5.9124    2.9252   H         1 RES1   0.0000
   198 H115     -1.4353    6.5782    0.4516   H         1 RES1   0.0000
   199 H116     -0.3763    5.1986    0.1733   H         1 RES1   0.0000
   200 H117      1.2203    6.2201    1.8686   H         1 RES1   0.0000
   201 H118      0.1728    7.6242    1.9062   H         1 RES1   0.0000
   202 H119      1.7297    8.3000    0.3228   H         1 RES1   0.0000
   203 H120      0.4883    7.6117   -0.7116   H         1 RES1   0.0000
   204 H121      2.6036    6.8679   -1.5200   H         1 RES1   0.0000
   205 H122      1.8754    5.4527   -0.7720   H         1 RES1   0.0000
   206 H123      3.3003    5.8577    1.2677   H         1 RES1   0.0000
   207 H124      3.9405    7.3068    0.5134   H         1 RES1   0.0000
   208 H125      4.3210    4.4706   -0.5491   H         1 RES1   0.0000
   209 H126      5.5286    5.4454    0.2850   H         1 RES1   0.0000
   210 H127      4.9494    5.9352   -1.2984   H         1 RES1   0.0000
   211 H128     -3.3288    5.3676   -0.2967   H         1 RES1   0.0000
   212 H129     -3.8642    3.8341   -0.9584   H         1 RES1   0.0000
   213 H130     -2.2898    3.8355   -2.5269   H         1 RES1   0.0000
   214 H131     -1.0016    4.2729   -1.4333   H         1 RES1   0.0000
   215 H132     -0.9767    6.2625   -2.5612   H         1 RES1   0.0000
   216 H133     -2.4175    6.6844   -1.6721   H         1 RES1   0.0000
   217 H134     -3.8306    5.7047   -3.4519   H         1 RES1   0.0000
   218 H135     -2.3906    5.3297   -4.4003   H         1 RES1   0.0000
   219 H136     -3.2120    8.1539   -3.5663   H         1 RES1   0.0000
   220 H137     -3.6720    7.3691   -5.0717   H         1 RES1   0.0000
   221 H138     -1.9275    8.7479   -5.6691   H         1 RES1   0.0000
   222 H139     -1.1957    7.1536   -5.6390   H         1 RES1   0.0000
   223 H140     -0.0654    7.7011   -3.5173   H         1 RES1   0.0000
   224 H141     -1.0006    9.1839   -3.3672   H         1 RES1   0.0000
   225 H142      0.9832    8.5898   -5.6131   H         1 RES1   0.0000
   226 H143      1.3227    9.5834   -4.1976   H         1 RES1   0.0000
   227 H144      0.1209   10.1037   -5.3699   H         1 RES1   0.0000
   228 C73       8.3112    0.3721    1.1990   C.3       1 RES1   0.0000
   229 C74       8.0178   -0.5583    0.0284   C.3       1 RES1   0.0000
   230 C75       8.4625   -2.0030    0.2775   C.3       1 RES1   0.0000
   231 C76       7.5202   -2.8244    1.1666   C.3       1 RES1   0.0000
   232 C77       6.2354   -3.2502    0.4490   C.3       1 RES1   0.0000
   233 C78       5.2754   -3.9987    1.3795   C.3       1 RES1   0.0000
   234 C79       4.0228   -4.5824    0.6983   C.3       1 RES1   0.0000
   235 C80       3.3495   -3.5237   -0.1712   C.3       1 RES1   0.0000
   236 N5        2.0493   -3.8416   -0.7782   N.am      1 RES1   0.0000
   237 C81       2.0718   -4.8471   -1.8419   C.3       1 RES1   0.0000
   238 C82       1.2142   -6.1051   -1.6618   C.3       1 RES1   0.0000
   239 C83       1.6007   -6.9984   -0.4786   C.3       1 RES1   0.0000
   240 C84       0.8533   -6.6410    0.8102   C.3       1 RES1   0.0000
   241 C85      -0.4467   -7.4323    1.0002   C.3       1 RES1   0.0000
   242 C86      -1.4168   -7.3554   -0.1777   C.3       1 RES1   0.0000
   243 C87      -2.7496   -8.0544    0.0924   C.3       1 RES1   0.0000
   244 C88      -2.6066   -9.5465    0.3476   C.3       1 RES1   0.0000
   245 C89       1.0580   -2.9689   -0.6073   C.2       1 RES1   0.0000
   246 O7        1.0817   -2.0889    0.2788   O.2       1 RES1   0.0000
   247 C90      -0.1369   -2.9784   -1.5816   C.3       1 RES1   0.0000
   248 O8       -0.8315   -1.7426   -1.4036   O.3       1 RES1   0.0000
   249 C91      -1.7184   -1.2999   -2.4340   C.3       1 RES1   0.0000
   250 C92      -1.2381    0.0896   -2.9083   C.2       1 RES1   0.0000
   251 O9       -0.2613    0.5725   -2.2950   O.2       1 RES1   0.0000
   252 N6       -1.8923    0.7633   -3.8460   N.am      1 RES1   0.0000
   253 C93      -1.4321    2.1208   -4.1499   C.3       1 RES1   0.0000
   254 C94      -0.4584    2.1945   -5.3278   C.3       1 RES1   0.0000
   255 C95       0.0262    3.6235   -5.6346   C.3       1 RES1   0.0000
   256 C96       0.5239    4.3918   -4.4021   C.3       1 RES1   0.0000
   257 C97       1.4758    5.5596   -4.6887   C.3       1 RES1   0.0000
   258 C98       2.8878    5.2450   -5.1901   C.3       1 RES1   0.0000
   259 C99       3.6042    4.1768   -4.3654   C.3       1 RES1   0.0000
   260 C100      3.2159    2.7972   -4.8764   C.3       1 RES1   0.0000
   261 C101     -2.9952    0.2496   -4.6553   C.3       1 RES1   0.0000
   262 C102     -4.4115    0.2667   -4.0561   C.3       1 RES1   0.0000
   263 C103     -5.0684    1.6406   -3.8528   C.3       1 RES1   0.0000
   264 C104     -5.0768    2.1163   -2.3966   C.3       1 RES1   0.0000
   265 C105     -6.1116    1.3811   -1.5397   C.3       1 RES1   0.0000
   266 C106     -6.2379    1.8702   -0.0886   C.3       1 RES1   0.0000
   267 C107     -7.1268    3.0972    0.1582   C.3       1 RES1   0.0000
   268 C108     -6.4546    4.4508   -0.0245   C.3       1 RES1   0.0000
   269 H145      7.9363    1.3741    0.9971   H         1 RES1   0.0000
   270 H146      9.3813    0.4453    1.3669   H         1 RES1   0.0000
   271 H147      7.8522    0.0135    2.1146   H         1 RES1   0.0000
   272 H148      8.5439   -0.1750   -0.8476   H         1 RES1   0.0000
   273 H149      6.9472   -0.5375   -0.1981   H         1 RES1   0.0000
   274 H150      9.4506   -1.9735    0.7393   H         1 RES1   0.0000
   275 H151      8.5673   -2.5209   -0.6791   H         1 RES1   0.0000
   276 H152      7.2644   -2.2565    2.0617   H         1 RES1   0.0000
   277 H153      8.0446   -3.7234    1.4942   H         1 RES1   0.0000
   278 H154      6.5030   -3.8847   -0.3984   H         1 RES1   0.0000
   279 H155      5.7400   -2.3582    0.0603   H         1 RES1   0.0000
   280 H156      4.9710   -3.3208    2.1796   H         1 RES1   0.0000
   281 H157      5.8184   -4.8211    1.8455   H         1 RES1   0.0000
   282 H158      3.3391   -4.9472    1.4665   H         1 RES1   0.0000
   283 H159      4.3153   -5.4321    0.0797   H         1 RES1   0.0000
   284 H160      4.0192   -3.3300   -1.0123   H         1 RES1   0.0000
   285 H161      3.2290   -2.6064    0.4114   H         1 RES1   0.0000
   286 H162      3.1108   -5.1589   -1.9497   H         1 RES1   0.0000
   287 H163      1.7701   -4.3694   -2.7796   H         1 RES1   0.0000
   288 H164      1.3477   -6.6649   -2.5895   H         1 RES1   0.0000
   289 H165      0.1629   -5.8345   -1.5990   H         1 RES1   0.0000
   290 H166      2.6783   -6.9323   -0.3265   H         1 RES1   0.0000
   291 H167      1.3808   -8.0360   -0.7313   H         1 RES1   0.0000
   292 H168      0.6475   -5.5662    0.8132   H         1 RES1   0.0000
   293 H169      1.4930   -6.8530    1.6698   H         1 RES1   0.0000
   294 H170     -0.9477   -7.0619    1.8978   H         1 RES1   0.0000
   295 H171     -0.1897   -8.4765    1.1765   H         1 RES1   0.0000
   296 H172     -0.9607   -7.8119   -1.0564   H         1 RES1   0.0000
   297 H173     -1.6180   -6.3031   -0.4122   H         1 RES1   0.0000
   298 H174     -3.3964   -7.9037   -0.7740   H         1 RES1   0.0000
   299 H175     -3.2387   -7.5932    0.9493   H         1 RES1   0.0000
   300 H176     -2.0870  -10.0335   -0.4728   H         1 RES1   0.0000
   301 H177     -3.5881  -10.0009    0.4425   H         1 RES1   0.0000
   302 H178     -2.0601   -9.7351    1.2667   H         1 RES1   0.0000
   303 H179     -0.8036   -3.8256   -1.3794   H         1 RES1   0.0000
   304 H180      0.2313   -3.0660   -2.6106   H         1 RES1   0.0000
   305 H181     -2.7044   -1.1613   -1.9671   H         1 RES1   0.0000
   306 H182     -1.8057   -2.0297   -3.2431   H         1 RES1   0.0000
   307 H183     -0.9189    2.4879   -3.2601   H         1 RES1   0.0000
   308 H184     -2.3134    2.7287   -4.3591   H         1 RES1   0.0000
   309 H185     -0.9389    1.7937   -6.2219   H         1 RES1   0.0000
   310 H186      0.3971    1.5571   -5.0902   H         1 RES1   0.0000
   311 H187     -0.7853    4.1919   -6.0936   H         1 RES1   0.0000
   312 H188      0.8178    3.5549   -6.3827   H         1 RES1   0.0000
   313 H189      0.9871    3.7172   -3.6786   H         1 RES1   0.0000
   314 H190     -0.3490    4.8164   -3.9174   H         1 RES1   0.0000
   315 H191      1.5830    6.1194   -3.7533   H         1 RES1   0.0000
   316 H192      1.0042    6.2180   -5.4167   H         1 RES1   0.0000
   317 H193      3.4509    6.1780   -5.1450   H         1 RES1   0.0000
   318 H194      2.8790    4.9388   -6.2389   H         1 RES1   0.0000
   319 H195      3.3650    4.2930   -3.3022   H         1 RES1   0.0000
   320 H196      4.6842    4.2943   -4.4713   H         1 RES1   0.0000
   321 H197      2.1495    2.7055   -4.9790   H         1 RES1   0.0000
   322 H198      3.5481    2.0019   -4.2217   H         1 RES1   0.0000
   323 H199      3.6403    2.6520   -5.8649   H         1 RES1   0.0000
   324 H200     -2.7618   -0.7793   -4.9427   H         1 RES1   0.0000
   325 H201     -3.0132    0.8480   -5.5685   H         1 RES1   0.0000
   326 H202     -4.4435   -0.2900   -3.1203   H         1 RES1   0.0000
   327 H203     -5.0034   -0.2859   -4.7863   H         1 RES1   0.0000
   328 H204     -6.1056    1.5823   -4.1867   H         1 RES1   0.0000
   329 H205     -4.5799    2.3841   -4.4861   H         1 RES1   0.0000
   330 H206     -5.3169    3.1793   -2.3955   H         1 RES1   0.0000
   331 H207     -4.0786    1.9790   -1.9668   H         1 RES1   0.0000
   332 H208     -5.8425    0.3209   -1.5115   H         1 RES1   0.0000
   333 H209     -7.0911    1.4478   -2.0162   H         1 RES1   0.0000
   334 H210     -5.2379    2.0446    0.3266   H         1 RES1   0.0000
   335 H211     -6.6912    1.0512    0.4727   H         1 RES1   0.0000
   336 H212     -7.4770    3.0487    1.1920   H         1 RES1   0.0000
   337 H213     -8.0071    3.0397   -0.4814   H         1 RES1   0.0000
   338 H214     -5.5708    4.5223    0.6064   H         1 RES1   0.0000
   339 H215     -7.1368    5.2438    0.2688   H         1 RES1   0.0000
   340 H216     -6.1715    4.6325   -1.0565   H         1 RES1   0.0000
@<TRIPOS>BOND
     1     1    20    1
     2     1    22    1
     3     1    25    1
     4     1   133    1
     5     1   135    1
     6     1   138    1
     7     1   246    1
     8     1   248    1
     9     1   251    1
    10     2     3    1
    11     2    43    1
    12     2    44    1
    13     2    45    1
    14     3     4    1
    15     3    46    1
    16     3    47    1
    17     4     5    1
    18     4    48    1
    19     4    49    1
    20     5     6    1
    21     5    50    1
    22     5    51    1
    23     6     7    1
    24     6    52    1
    25     6    53    1
    26     7     8    1
    27     7    54    1
    28     7    55    1
    29     8     9    1
    30     8    56    1
    31     8    57    1
    32     9    10    1
    33     9    58    1
    34     9    59    1
    35    10    11    1
    36    10    19    1
    37    11    12    1
    38    11    60    1
    39    11    61    1
    40    12    13    1
    41    12    62    1
    42    12    63    1
    43    13    14    1
    44    13    64    1
    45    13    65    1
    46    14    15    1
    47    14    66    1
    48    14    67    1
    49    15    16    1
    50    15    68    1
    51    15    69    1
    52    16    17    1
    53    16    70    1
    54    16    71    1
    55    17    18    1
    56    17    72    1
    57    17    73    1
    58    18    74    1
    59    18    75    1
    60    18    76    1
    61    19    20    2
    62    19    21    1
    63    21    22    1
    64    21    77    1
    65    21    78    1
    66    22    23    1
    67    23    24    1
    68    23    79    1
    69    23    80    1
    70    24    25    2
    71    24    26    1
    72    26    27    1
    73    26    35    1
    74    27    28    1
    75    27    81    1
    76    27    82    1
    77    28    29    1
    78    28    83    1
    79    28    84    1
    80    29    30    1
    81    29    85    1
    82    29    86    1
    83    30    31    1
    84    30    87    1
    85    30    88    1
    86    31    32    1
    87    31    89    1
    88    31    90    1
    89    32    33    1
    90    32    91    1
    91    32    92    1
    92    33    34    1
    93    33    93    1
    94    33    94    1
    95    34    95    1
    96    34    96    1
    97    34    97    1
    98    35    36    1
    99    35    98    1
   100    35    99    1
   101    36    37    1
   102    36   100    1
   103    36   101    1
   104    37    38    1
   105    37   102    1
   106    37   103    1
   107    38    39    1
   108    38   104    1
   109    38   105    1
   110    39    40    1
   111    39   106    1
   112    39   107    1
   113    40    41    1
   114    40   108    1
   115    40   109    1
   116    41    42    1
   117    41   110    1
   118    41   111    1
   119    42   112    1
   120    42   113    1
   121    42   114    1
   122   115   116    1
   123   115   156    1
   124   115   157    1
   125   115   158    1
   126   116   117    1
   127   116   159    1
   128   116   160    1
   129   117   118    1
   130   117   161    1
   131   117   162    1
   132   118   119    1
   133   118   163    1
   134   118   164    1
   135   119   120    1
   136   119   165    1
   137   119   166    1
   138   120   121    1
   139   120   167    1
   140   120   168    1
   141   121   122    1
   142   121   169    1
   143   121   170    1
   144   122   123    1
   145   122   171    1
   146   122   172    1
   147   123   124    1
   148   123   132    1
   149   124   125    1
   150   124   173    1
   151   124   174    1
   152   125   126    1
   153   125   175    1
   154   125   176    1
   155   126   127    1
   156   126   177    1
   157   126   178    1
   158   127   128    1
   159   127   179    1
   160   127   180    1
   161   128   129    1
   162   128   181    1
   163   128   182    1
   164   129   130    1
   165   129   183    1
   166   129   184    1
   167   130   131    1
   168   130   185    1
   169   130   186    1
   170   131   187    1
   171   131   188    1
   172   131   189    1
   173   132   133    2
   174   132   134    1
   175   134   135    1
   176   134   190    1
   177   134   191    1
   178   135   136    1
   179   136   137    1
   180   136   192    1
   181   136   193    1
   182   137   138    2
   183   137   139    1
   184   139   140    1
   185   139   148    1
   186   140   141    1
   187   140   194    1
   188   140   195    1
   189   141   142    1
   190   141   196    1
   191   141   197    1
   192   142   143    1
   193   142   198    1
   194   142   199    1
   195   143   144    1
   196   143   200    1
   197   143   201    1
   198   144   145    1
   199   144   202    1
   200   144   203    1
   201   145   146    1
   202   145   204    1
   203   145   205    1
   204   146   147    1
   205   146   206    1
   206   146   207    1
   207   147   208    1
   208   147   209    1
   209   147   210    1
   210   148   149    1
   211   148   211    1
   212   148   212    1
   213   149   150    1
   214   149   213    1
   215   149   214    1
   216   150   151    1
   217   150   215    1
   218   150   216    1
   219   151   152    1
   220   151   217    1
   221   151   218    1
   222   152   153    1
   223   152   219    1
   224   152   220    1
   225   153   154    1
   226   153   221    1
   227   153   222    1
   228   154   155    1
   229   154   223    1
   230   154   224    1
   231   155   225    1
   232   155   226    1
   233   155   227    1
   234   228   229    1
   235   228   269    1
   236   228   270    1
   237   228   271    1
   238   229   230    1
   239   229   272    1
   240   229   273    1
   241   230   231    1
   242   230   274    1
   243   230   275    1
   244   231   232    1
   245   231   276    1
   246   231   277    1
   247   232   233    1
   248   232   278    1
   249   232   279    1
   250   233   234    1
   251   233   280    1
   252   233   281    1
   253   234   235    1
   254   234   282    1
   255   234   283    1
   256   235   236    1
   257   235   284    1
   258   235   285    1
   259   236   237    1
   260   236   245    1
   261   237   238    1
   262   237   286    1
   263   237   287    1
   264   238   239    1
   265   238   288    1
   266   238   289    1
   267   239   240    1
   268   239   290    1
   269   239   291    1
   270   240   241    1
   271   240   292    1
   272   240   293    1
   273   241   242    1
   274   241   294    1
   275   241   295    1
   276   242   243    1
   277   242   296    1
   278   242   297    1
   279   243   244    1
   280   243   298    1
   281   243   299    1
   282   244   300    1
   283   244   301    1
   284   244   302    1
   285   245   246    2
   286   245   247    1
   287   247   248    1
   288   247   303    1
   289   247   304    1
   290   248   249    1
   291   249   250    1
   292   249   305    1
   293   249   306    1
   294   250   251    2
   295   250   252    1
   296   252   253    1
   297   252   261    1
   298   253   254    1
   299   253   307    1
   300   253   308    1
   301   254   255    1
   302   254   309    1
   303   254   310    1
   304   255   256    1
   305   255   311    1
   306   255   312    1
   307   256   257    1
   308   256   313    1
   309   256   314    1
   310   257   258    1
   311   257   315    1
   312   257   316    1
   313   258   259    1
   314   258   317    1
   315   258   318    1
   316   259   260    1
   317   259   319    1
   318   259   320    1
   319   260   321    1
   320   260   322    1
   321   260   323    1
   322   261   262    1
   323   261   324    1
   324   261   325    1
   325   262   263    1
   326   262   326    1
   327   262   327    1
   328   263   264    1
   329   263   328    1
   330   263   329    1
   331   264   265    1
   332   264   330    1
   333   264   331    1
   334   265   266    1
   335   265   332    1
   336   265   333    1
   337   266   267    1
   338   266   334    1
   339   266   335    1
   340   267   268    1
   341   267   336    1
   342   267   337    1
   343   268   338    1
   344   268   339    1
   345   268   340    1
@<TRIPOS>SUBSTRUCTURE
     1 RES1      340 GROUP             0 ****  ****    0  
