@<TRIPOS>MOLECULE
cn9_YICLED_0_nunpairedes_0_charge_2 Charge: 2 Unpaired_Electrons: 6 XTB_Unpaired_Electrons: 0 XTB_Charge: 2
    50    56     1     0     0
SMALL
NoCharges
****
Generated from Architector

@<TRIPOS>ATOM
     1 Eu1       0.1515   -0.1785    0.0449   Eu        1 RES1   0.0000
     2 C1       -2.1660    2.6894    0.4583   C.3       1 RES1   0.0000
     3 C2       -2.8983    1.5614   -0.2728   C.3       1 RES1   0.0000
     4 O1       -2.4445    0.3171    0.2746   O.3       1 RES1   0.0000
     5 C3       -3.4110   -0.7308    0.1004   C.3       1 RES1   0.0000
     6 C4       -2.6412   -2.0496   -0.0184   C.3       1 RES1   0.0000
     7 O2       -1.4800   -1.8781   -0.8289   O.3       1 RES1   0.0000
     8 C5       -1.6057   -1.9498   -2.2559   C.3       1 RES1   0.0000
     9 C6       -1.5677   -0.5422   -2.8803   C.3       1 RES1   0.0000
    10 O3       -0.6188    0.3122   -2.2078   O.3       1 RES1   0.0000
    11 C7        0.5747    0.6159   -2.9524   C.3       1 RES1   0.0000
    12 C8        1.2695    1.7772   -2.2396   C.3       1 RES1   0.0000
    13 O4        1.5576    1.3697   -0.9004   O.3       1 RES1   0.0000
    14 C9        2.1178    2.4245   -0.1027   C.3       1 RES1   0.0000
    15 C10       2.3677    1.8609    1.3094   C.3       1 RES1   0.0000
    16 O5        1.3065    0.9990    1.7440   O.3       1 RES1   0.0000
    17 C11       0.4122    1.5761    2.6962   C.3       1 RES1   0.0000
    18 C12      -0.3761    2.7182    2.0560   C.3       1 RES1   0.0000
    19 O6       -0.8614    2.2209    0.8045   O.3       1 RES1   0.0000
    20 H1       -2.7118    2.9555    1.3683   H         1 RES1   0.0000
    21 H2       -2.1067    3.5828   -0.1766   H         1 RES1   0.0000
    22 H3       -2.6845    1.5898   -1.3503   H         1 RES1   0.0000
    23 H4       -3.9750    1.6806   -0.1277   H         1 RES1   0.0000
    24 H5       -4.0011   -0.5400   -0.8010   H         1 RES1   0.0000
    25 H6       -4.0812   -0.7737    0.9666   H         1 RES1   0.0000
    26 H7       -3.2826   -2.8492   -0.4032   H         1 RES1   0.0000
    27 H8       -2.2394   -2.3459    0.9632   H         1 RES1   0.0000
    28 H9       -2.5323   -2.4521   -2.5441   H         1 RES1   0.0000
    29 H10      -0.7449   -2.5427   -2.5987   H         1 RES1   0.0000
    30 H11      -2.5458   -0.0569   -2.7757   H         1 RES1   0.0000
    31 H12      -1.3317   -0.6194   -3.9425   H         1 RES1   0.0000
    32 H13       0.3234    0.9390   -3.9703   H         1 RES1   0.0000
    33 H14       1.2298   -0.2693   -2.9925   H         1 RES1   0.0000
    34 H15       0.6059    2.6556   -2.2231   H         1 RES1   0.0000
    35 H16       2.1991    2.0368   -2.7627   H         1 RES1   0.0000
    36 H17       1.4262    3.2796   -0.1028   H         1 RES1   0.0000
    37 H18       3.0763    2.7504   -0.5292   H         1 RES1   0.0000
    38 H19       2.5187    2.6757    2.0197   H         1 RES1   0.0000
    39 H20       3.2653    1.2339    1.2783   H         1 RES1   0.0000
    40 H21       0.9552    1.9129    3.5867   H         1 RES1   0.0000
    41 H22      -0.2759    0.7590    2.9711   H         1 RES1   0.0000
    42 H23       0.2479    3.6063    1.8846   H         1 RES1   0.0000
    43 H24      -1.1948    3.0074    2.7184   H         1 RES1   0.0000
    44 N1        0.7203   -2.5247    0.1550   N.3       1 RES1   0.0000
    45 O7        0.8390   -3.6966    0.1735   O.2       1 RES1   0.0000
    46 O8        0.9768   -1.8594   -0.8705   O.co2     1 RES1   0.0000
    47 O9        0.3201   -1.8865    1.1539   O.co2     1 RES1   0.0000
    48 O10       2.9111   -0.9098    0.4201   O.3       1 RES1   0.0000
    49 H25       3.4551   -1.2039   -0.3271   H         1 RES1   0.0000
    50 H26       3.2619   -1.3877    1.1867   H         1 RES1   0.0000
@<TRIPOS>BOND
     1     1     4    1
     2     1     7    1
     3     1    10    1
     4     1    13    1
     5     1    16    1
     6     1    19    1
     7     1    46    1
     8     1    47    1
     9     1    48    1
    10     2     3    1
    11     2    19    1
    12     2    20    1
    13     2    21    1
    14     3     4    1
    15     3    22    1
    16     3    23    1
    17     4     5    1
    18     5     6    1
    19     5    24    1
    20     5    25    1
    21     6     7    1
    22     6    26    1
    23     6    27    1
    24     7     8    1
    25     8     9    1
    26     8    28    1
    27     8    29    1
    28     9    10    1
    29     9    30    1
    30     9    31    1
    31    10    11    1
    32    11    12    1
    33    11    32    1
    34    11    33    1
    35    12    13    1
    36    12    34    1
    37    12    35    1
    38    13    14    1
    39    14    15    1
    40    14    36    1
    41    14    37    1
    42    15    16    1
    43    15    38    1
    44    15    39    1
    45    16    17    1
    46    17    18    1
    47    17    40    1
    48    17    41    1
    49    18    19    1
    50    18    42    1
    51    18    43    1
    52    44    45    2
    53    44    46    1
    54    44    47    1
    55    48    49    1
    56    48    50    1
@<TRIPOS>SUBSTRUCTURE
     1 RES1       50 GROUP             0 ****  ****    0  
