@<TRIPOS>MOLECULE
am_c3_9H2O_c0_0_nunpairedes_0_charge_3 Charge: 3 Unpaired_Electrons: 6 XTB_Unpaired_Electrons: 0 XTB_Charge: 3
   260   263     1     0     0
SMALL
NoCharges
****
Generated from Architector

@<TRIPOS>ATOM
     1 Eu1       0.2241   -0.3363   -0.1398   Eu        1 RES1   0.0000
     2 C1       -2.6753    2.0265    4.4844   C.3       1 RES1   0.0000
     3 C2       -3.3250    2.1556    3.1132   C.3       1 RES1   0.0000
     4 C3       -2.6740    3.2807    2.3052   C.3       1 RES1   0.0000
     5 C4       -3.0872    3.2296    0.8242   C.3       1 RES1   0.0000
     6 N1       -2.1270    3.8423   -0.0967   N.am      1 RES1   0.0000
     7 C5       -2.4066    5.2437   -0.4293   C.3       1 RES1   0.0000
     8 C6       -2.5519    6.2394    0.7410   C.3       1 RES1   0.0000
     9 C7       -1.2710    7.0164    1.0794   C.3       1 RES1   0.0000
    10 C8       -1.4076    7.7184    2.4271   C.3       1 RES1   0.0000
    11 C9       -1.3668    3.0315   -0.8537   C.2       1 RES1   0.0000
    12 O1       -1.3281    1.7965   -0.6794   O.2       1 RES1   0.0000
    13 C10      -0.5282    3.6153   -1.9721   C.3       1 RES1   0.0000
    14 C11       0.8680    4.0886   -1.5409   C.3       1 RES1   0.0000
    15 C12       1.8164    2.9440   -1.1778   C.2       1 RES1   0.0000
    16 O2        1.3771    1.9627   -0.5471   O.2       1 RES1   0.0000
    17 N2        3.1206    3.0581   -1.4814   N.am      1 RES1   0.0000
    18 C13       4.0605    2.1604   -0.8046   C.3       1 RES1   0.0000
    19 C14       4.9507    1.3145   -1.7141   C.3       1 RES1   0.0000
    20 C15       6.1665    0.7392   -0.9674   C.3       1 RES1   0.0000
    21 C16       5.9120    0.2057    0.4385   C.3       1 RES1   0.0000
    22 C17       3.7234    4.1854   -2.2062   C.3       1 RES1   0.0000
    23 C18       3.5126    4.1804   -3.7363   C.3       1 RES1   0.0000
    24 C19       4.4859    3.3154   -4.5478   C.3       1 RES1   0.0000
    25 C20       4.2795    3.4766   -6.0539   C.3       1 RES1   0.0000
    26 H1       -3.2161    1.3223    5.1119   H         1 RES1   0.0000
    27 H2       -2.6516    2.9910    4.9883   H         1 RES1   0.0000
    28 H3       -1.6495    1.6764    4.3818   H         1 RES1   0.0000
    29 H4       -4.3824    2.3757    3.2299   H         1 RES1   0.0000
    30 H5       -3.2467    1.2054    2.5855   H         1 RES1   0.0000
    31 H6       -1.5846    3.2338    2.3790   H         1 RES1   0.0000
    32 H7       -2.9469    4.2308    2.7747   H         1 RES1   0.0000
    33 H8       -4.0444    3.7405    0.6977   H         1 RES1   0.0000
    34 H9       -3.2156    2.1884    0.5055   H         1 RES1   0.0000
    35 H10      -3.3430    5.2422   -0.9999   H         1 RES1   0.0000
    36 H11      -1.6227    5.6351   -1.0700   H         1 RES1   0.0000
    37 H12      -2.9257    5.7554    1.6403   H         1 RES1   0.0000
    38 H13      -3.3120    6.9680    0.4452   H         1 RES1   0.0000
    39 H14      -1.0983    7.7674    0.3051   H         1 RES1   0.0000
    40 H15      -0.4052    6.3479    1.0968   H         1 RES1   0.0000
    41 H16      -2.3162    8.3139    2.4497   H         1 RES1   0.0000
    42 H17      -0.5681    8.3841    2.5990   H         1 RES1   0.0000
    43 H18      -1.4461    7.0006    3.2443   H         1 RES1   0.0000
    44 H19      -1.0602    4.4185   -2.4742   H         1 RES1   0.0000
    45 H20      -0.3971    2.8149   -2.6961   H         1 RES1   0.0000
    46 H21       0.7650    4.7012   -0.6412   H         1 RES1   0.0000
    47 H22       1.2679    4.7213   -2.3278   H         1 RES1   0.0000
    48 H23       3.4622    1.4944   -0.1799   H         1 RES1   0.0000
    49 H24       4.6943    2.7782   -0.1615   H         1 RES1   0.0000
    50 H25       5.3338    1.9324   -2.5244   H         1 RES1   0.0000
    51 H26       4.3542    0.5154   -2.1628   H         1 RES1   0.0000
    52 H27       6.9245    1.5186   -0.8935   H         1 RES1   0.0000
    53 H28       6.5912   -0.0549   -1.5824   H         1 RES1   0.0000
    54 H29       5.7052    1.0117    1.1340   H         1 RES1   0.0000
    55 H30       6.8058   -0.2998    0.7909   H         1 RES1   0.0000
    56 H31       5.0834   -0.4945    0.4769   H         1 RES1   0.0000
    57 H32       4.7972    4.1715   -2.0034   H         1 RES1   0.0000
    58 H33       3.3367    5.1246   -1.7960   H         1 RES1   0.0000
    59 H34       3.6277    5.2089   -4.0856   H         1 RES1   0.0000
    60 H35       2.4871    3.8762   -3.9606   H         1 RES1   0.0000
    61 H36       4.3653    2.2618   -4.2914   H         1 RES1   0.0000
    62 H37       5.5121    3.6057   -4.3160   H         1 RES1   0.0000
    63 H38       3.2647    3.2128   -6.3495   H         1 RES1   0.0000
    64 H39       4.9732    2.8413   -6.6019   H         1 RES1   0.0000
    65 H40       4.4700    4.5023   -6.3569   H         1 RES1   0.0000
    66 C21      -0.1317   -5.1468   -1.7493   C.3       1 RES1   0.0000
    67 C22      -1.1680   -5.2978   -0.6372   C.3       1 RES1   0.0000
    68 C23      -1.0877   -4.1261    0.3528   C.3       1 RES1   0.0000
    69 C24      -0.3730   -4.5228    1.6409   C.3       1 RES1   0.0000
    70 N3       -0.0073   -3.4563    2.5802   N.am      1 RES1   0.0000
    71 C25       0.8929   -3.8622    3.6581   C.3       1 RES1   0.0000
    72 C26       2.3659   -3.5895    3.2584   C.3       1 RES1   0.0000
    73 C27       3.2304   -2.7247    4.1851   C.3       1 RES1   0.0000
    74 C28       4.7080   -3.0139    3.9340   C.3       1 RES1   0.0000
    75 C29      -0.4122   -2.1979    2.4507   C.2       1 RES1   0.0000
    76 O3       -0.7960   -1.7204    1.3602   O.2       1 RES1   0.0000
    77 C30      -0.6145   -1.3642    3.7082   C.3       1 RES1   0.0000
    78 C31       0.5932   -0.6853    4.3590   C.3       1 RES1   0.0000
    79 C32       1.4313    0.1121    3.3745   C.2       1 RES1   0.0000
    80 O4        1.4335   -0.1374    2.1548   O.2       1 RES1   0.0000
    81 N4        2.1010    1.1556    3.8920   N.am      1 RES1   0.0000
    82 C33       2.5401    2.1859    2.9595   C.3       1 RES1   0.0000
    83 C34       1.4129    3.2119    2.7758   C.3       1 RES1   0.0000
    84 C35       1.8808    4.6629    2.8598   C.3       1 RES1   0.0000
    85 C36       2.8822    5.0505    1.7736   C.3       1 RES1   0.0000
    86 C37       2.6257    1.2726    5.2613   C.3       1 RES1   0.0000
    87 C38       1.7201    1.2651    6.5071   C.3       1 RES1   0.0000
    88 C39       0.5865    2.2907    6.5548   C.3       1 RES1   0.0000
    89 C40      -0.1574    2.1913    7.8861   C.3       1 RES1   0.0000
    90 H41      -0.1362   -6.0146   -2.4083   H         1 RES1   0.0000
    91 H42       0.8686   -5.0312   -1.3359   H         1 RES1   0.0000
    92 H43      -0.3571   -4.2598   -2.3403   H         1 RES1   0.0000
    93 H44      -1.0148   -6.2427   -0.1153   H         1 RES1   0.0000
    94 H45      -2.1576   -5.3322   -1.0973   H         1 RES1   0.0000
    95 H46      -0.5508   -3.3106   -0.1451   H         1 RES1   0.0000
    96 H47      -2.0893   -3.7875    0.6149   H         1 RES1   0.0000
    97 H48       0.5208   -5.0881    1.3924   H         1 RES1   0.0000
    98 H49      -1.0432   -5.1935    2.1953   H         1 RES1   0.0000
    99 H50       0.7447   -4.9280    3.8264   H         1 RES1   0.0000
   100 H51       0.6389   -3.3660    4.5951   H         1 RES1   0.0000
   101 H52       2.8788   -4.5459    3.1584   H         1 RES1   0.0000
   102 H53       2.3534   -3.1065    2.2779   H         1 RES1   0.0000
   103 H54       3.0032   -2.9161    5.2347   H         1 RES1   0.0000
   104 H55       3.0664   -1.6694    3.9707   H         1 RES1   0.0000
   105 H56       4.9625   -4.0300    4.2271   H         1 RES1   0.0000
   106 H57       5.3416   -2.3326    4.4970   H         1 RES1   0.0000
   107 H58       4.9295   -2.8857    2.8756   H         1 RES1   0.0000
   108 H59      -1.1178   -1.9844    4.4564   H         1 RES1   0.0000
   109 H60      -1.3034   -0.5709    3.4090   H         1 RES1   0.0000
   110 H61       1.2068   -1.4074    4.8898   H         1 RES1   0.0000
   111 H62       0.1956   -0.0006    5.1036   H         1 RES1   0.0000
   112 H63       2.7939    1.7078    2.0129   H         1 RES1   0.0000
   113 H64       3.4321    2.6676    3.3533   H         1 RES1   0.0000
   114 H65       0.6893    3.0535    3.5759   H         1 RES1   0.0000
   115 H66       0.9160    3.0364    1.8199   H         1 RES1   0.0000
   116 H67       2.3245    4.8394    3.8400   H         1 RES1   0.0000
   117 H68       1.0023    5.3075    2.7953   H         1 RES1   0.0000
   118 H69       3.8884    4.7311    2.0323   H         1 RES1   0.0000
   119 H70       2.9005    6.1298    1.6380   H         1 RES1   0.0000
   120 H71       2.6186    4.5878    0.8249   H         1 RES1   0.0000
   121 H72       3.1674    2.2207    5.2895   H         1 RES1   0.0000
   122 H73       3.3644    0.4705    5.4013   H         1 RES1   0.0000
   123 H74       2.3967    1.4881    7.3357   H         1 RES1   0.0000
   124 H75       1.3117    0.2719    6.6990   H         1 RES1   0.0000
   125 H76      -0.1187    2.1135    5.7407   H         1 RES1   0.0000
   126 H77       0.9776    3.3041    6.4366   H         1 RES1   0.0000
   127 H78      -0.4303    1.1592    8.1006   H         1 RES1   0.0000
   128 H79      -1.0650    2.7909    7.8720   H         1 RES1   0.0000
   129 H80       0.4678    2.5522    8.6976   H         1 RES1   0.0000
   130 C41       3.5691   -3.5935   -7.6246   C.3       1 RES1   0.0000
   131 C42       3.5001   -2.1163   -7.2538   C.3       1 RES1   0.0000
   132 C43       3.3412   -2.0008   -5.7351   C.3       1 RES1   0.0000
   133 C44       3.1792   -0.5623   -5.2043   C.3       1 RES1   0.0000
   134 N5        2.2387   -0.3520   -4.0953   N.am      1 RES1   0.0000
   135 C45       1.4694    0.8978   -4.0895   C.3       1 RES1   0.0000
   136 C46       0.7275    1.2931   -5.3746   C.3       1 RES1   0.0000
   137 C47      -0.7645    1.5990   -5.1442   C.3       1 RES1   0.0000
   138 C48      -1.2559    2.7313   -6.0398   C.3       1 RES1   0.0000
   139 C49       2.2707   -0.9859   -2.9194   C.2       1 RES1   0.0000
   140 O5        1.6875   -0.5266   -1.9101   O.2       1 RES1   0.0000
   141 C50       3.0342   -2.2749   -2.7549   C.3       1 RES1   0.0000
   142 C51       3.8295   -2.2571   -1.4336   C.3       1 RES1   0.0000
   143 C52       3.1809   -3.2346   -0.4815   C.2       1 RES1   0.0000
   144 O6        2.0632   -2.9249   -0.0281   O.2       1 RES1   0.0000
   145 N6        3.8085   -4.3991   -0.2449   N.am      1 RES1   0.0000
   146 C53       5.2401   -4.6368   -0.4744   C.3       1 RES1   0.0000
   147 C54       5.7289   -5.0765   -1.8718   C.3       1 RES1   0.0000
   148 C55       5.6958   -6.5743   -2.2267   C.3       1 RES1   0.0000
   149 C56       6.2933   -7.5416   -1.2026   C.3       1 RES1   0.0000
   150 C57       3.1541   -5.3904    0.5983   C.3       1 RES1   0.0000
   151 C58       2.9903   -6.7522   -0.0747   C.3       1 RES1   0.0000
   152 C59       2.7396   -7.8715    0.9357   C.3       1 RES1   0.0000
   153 C60       1.3925   -7.7669    1.6377   C.3       1 RES1   0.0000
   154 H81       3.7416   -3.7232   -8.6867   H         1 RES1   0.0000
   155 H82       2.6421   -4.0975   -7.3621   H         1 RES1   0.0000
   156 H83       4.3816   -4.0811   -7.0919   H         1 RES1   0.0000
   157 H84       2.6689   -1.6390   -7.7709   H         1 RES1   0.0000
   158 H85       4.4197   -1.6211   -7.5643   H         1 RES1   0.0000
   159 H86       4.2413   -2.4581   -5.3175   H         1 RES1   0.0000
   160 H87       2.4810   -2.6008   -5.4317   H         1 RES1   0.0000
   161 H88       2.8278    0.0658   -6.0232   H         1 RES1   0.0000
   162 H89       4.1589   -0.1741   -4.9013   H         1 RES1   0.0000
   163 H90       2.1473    1.7041   -3.7923   H         1 RES1   0.0000
   164 H91       0.7399    0.7693   -3.2829   H         1 RES1   0.0000
   165 H92       0.8047    0.5090   -6.1238   H         1 RES1   0.0000
   166 H93       1.1839    2.1873   -5.8025   H         1 RES1   0.0000
   167 H94      -0.9463    1.8717   -4.1041   H         1 RES1   0.0000
   168 H95      -1.3633    0.7060   -5.3284   H         1 RES1   0.0000
   169 H96      -0.7338    3.6587   -5.8111   H         1 RES1   0.0000
   170 H97      -2.3215    2.8902   -5.8957   H         1 RES1   0.0000
   171 H98      -1.0882    2.4942   -7.0865   H         1 RES1   0.0000
   172 H99       3.7238   -2.4700   -3.5599   H         1 RES1   0.0000
   173 H100      2.2829   -3.0735   -2.7386   H         1 RES1   0.0000
   174 H101      3.7398   -1.2693   -0.9720   H         1 RES1   0.0000
   175 H102      4.8712   -2.4769   -1.6372   H         1 RES1   0.0000
   176 H103      5.5470   -5.3998    0.2410   H         1 RES1   0.0000
   177 H104      5.7792   -3.7247   -0.2068   H         1 RES1   0.0000
   178 H105      6.7711   -4.7529   -1.9357   H         1 RES1   0.0000
   179 H106      5.1666   -4.5478   -2.6441   H         1 RES1   0.0000
   180 H107      6.2756   -6.6961   -3.1433   H         1 RES1   0.0000
   181 H108      4.6731   -6.8696   -2.4651   H         1 RES1   0.0000
   182 H109      7.3433   -7.3278   -1.0175   H         1 RES1   0.0000
   183 H110      6.2229   -8.5562   -1.5936   H         1 RES1   0.0000
   184 H111      5.7734   -7.5320   -0.2465   H         1 RES1   0.0000
   185 H112      2.1835   -4.9711    0.8540   H         1 RES1   0.0000
   186 H113      3.7470   -5.5021    1.5180   H         1 RES1   0.0000
   187 H114      3.8980   -6.9875   -0.6130   H         1 RES1   0.0000
   188 H115      2.1741   -6.7215   -0.7942   H         1 RES1   0.0000
   189 H116      3.5385   -7.8603    1.6795   H         1 RES1   0.0000
   190 H117      2.7926   -8.8214    0.4032   H         1 RES1   0.0000
   191 H118      1.3656   -6.9084    2.3038   H         1 RES1   0.0000
   192 H119      1.2044   -8.6516    2.2354   H         1 RES1   0.0000
   193 H120      0.5891   -7.6839    0.9106   H         1 RES1   0.0000
   194 C61      -4.7143   -0.1068   -7.4148   C.3       1 RES1   0.0000
   195 C62      -3.9099   -1.2573   -6.8138   C.3       1 RES1   0.0000
   196 C63      -4.1839   -1.3879   -5.3146   C.3       1 RES1   0.0000
   197 C64      -3.4732   -2.5420   -4.5812   C.3       1 RES1   0.0000
   198 N7       -2.1145   -2.2687   -4.1106   N.am      1 RES1   0.0000
   199 C65      -1.0542   -3.0886   -4.6982   C.3       1 RES1   0.0000
   200 C66      -0.9227   -3.0218   -6.2229   C.3       1 RES1   0.0000
   201 C67      -0.3011   -1.7165   -6.7058   C.3       1 RES1   0.0000
   202 C68      -0.2310   -1.5935   -8.2245   C.3       1 RES1   0.0000
   203 C69      -1.8783   -1.5598   -3.0026   C.2       1 RES1   0.0000
   204 O7       -0.7538   -1.4696   -2.4614   O.2       1 RES1   0.0000
   205 C70      -3.0224   -0.8592   -2.2908   C.3       1 RES1   0.0000
   206 C71      -3.4468   -1.7360   -1.0944   C.3       1 RES1   0.0000
   207 C72      -4.0447   -0.8441   -0.0195   C.2       1 RES1   0.0000
   208 O8       -3.2677   -0.0540    0.5429   O.2       1 RES1   0.0000
   209 N8       -5.3434   -0.9128    0.2683   N.am      1 RES1   0.0000
   210 C73      -6.2540   -1.9402   -0.2346   C.3       1 RES1   0.0000
   211 C74      -6.6989   -1.8944   -1.7106   C.3       1 RES1   0.0000
   212 C75      -7.5034   -0.6792   -2.1832   C.3       1 RES1   0.0000
   213 C76      -8.8483   -0.4769   -1.4961   C.3       1 RES1   0.0000
   214 C77      -5.8697   -0.0079    1.2898   C.3       1 RES1   0.0000
   215 C78      -6.3664    1.2953    0.6532   C.3       1 RES1   0.0000
   216 C79      -7.4694    2.0229    1.4251   C.3       1 RES1   0.0000
   217 C80      -6.9887    2.7616    2.6650   C.3       1 RES1   0.0000
   218 H121     -4.4585    0.0188   -8.4633   H         1 RES1   0.0000
   219 H122     -4.5103    0.8324   -6.9018   H         1 RES1   0.0000
   220 H123     -5.7792   -0.3121   -7.3509   H         1 RES1   0.0000
   221 H124     -2.8541   -1.0608   -6.9830   H         1 RES1   0.0000
   222 H125     -4.1825   -2.1802   -7.3289   H         1 RES1   0.0000
   223 H126     -5.2599   -1.5338   -5.1889   H         1 RES1   0.0000
   224 H127     -3.9140   -0.4358   -4.8555   H         1 RES1   0.0000
   225 H128     -3.4228   -3.4052   -5.2455   H         1 RES1   0.0000
   226 H129     -4.0823   -2.8446   -3.7248   H         1 RES1   0.0000
   227 H130     -1.2461   -4.1306   -4.4247   H         1 RES1   0.0000
   228 H131     -0.1196   -2.7802   -4.2273   H         1 RES1   0.0000
   229 H132     -1.8916   -3.1591   -6.6976   H         1 RES1   0.0000
   230 H133     -0.2991   -3.8610   -6.5345   H         1 RES1   0.0000
   231 H134      0.7046   -1.6409   -6.2925   H         1 RES1   0.0000
   232 H135     -0.8913   -0.8903   -6.3104   H         1 RES1   0.0000
   233 H136      0.3928   -2.3751   -8.6487   H         1 RES1   0.0000
   234 H137      0.1842   -0.6274   -8.5052   H         1 RES1   0.0000
   235 H138     -1.2154   -1.6628   -8.6783   H         1 RES1   0.0000
   236 H139     -3.8788   -0.6175   -2.9118   H         1 RES1   0.0000
   237 H140     -2.6000    0.0692   -1.8770   H         1 RES1   0.0000
   238 H141     -2.5262   -2.1390   -0.6588   H         1 RES1   0.0000
   239 H142     -4.1068   -2.5423   -1.4014   H         1 RES1   0.0000
   240 H143     -7.1584   -1.8855    0.3715   H         1 RES1   0.0000
   241 H144     -5.7923   -2.9205   -0.0602   H         1 RES1   0.0000
   242 H145     -7.3099   -2.7910   -1.8552   H         1 RES1   0.0000
   243 H146     -5.8340   -1.9779   -2.3715   H         1 RES1   0.0000
   244 H147     -7.6873   -0.8158   -3.2523   H         1 RES1   0.0000
   245 H148     -6.8904    0.2175   -2.0756   H         1 RES1   0.0000
   246 H149     -9.4957   -1.3331   -1.6602   H         1 RES1   0.0000
   247 H150     -9.3333    0.4003   -1.9152   H         1 RES1   0.0000
   248 H151     -8.7502   -0.3161   -0.4266   H         1 RES1   0.0000
   249 H152     -5.0683    0.1907    2.0040   H         1 RES1   0.0000
   250 H153     -6.6779   -0.5201    1.8143   H         1 RES1   0.0000
   251 H154     -6.7660    1.0492   -0.3286   H         1 RES1   0.0000
   252 H155     -5.5115    1.9556    0.5065   H         1 RES1   0.0000
   253 H156     -8.2508    1.3144    1.7014   H         1 RES1   0.0000
   254 H157     -7.9218    2.7450    0.7444   H         1 RES1   0.0000
   255 H158     -6.7160    2.0740    3.4600   H         1 RES1   0.0000
   256 H159     -7.7767    3.4048    3.0428   H         1 RES1   0.0000
   257 H160     -6.1364    3.3928    2.4266   H         1 RES1   0.0000
   258 O9       -0.8880    0.8449    1.6911   O.3       1 RES1   0.0000
   259 H161     -1.8025    0.6286    1.4274   H         1 RES1   0.0000
   260 H162     -0.8690    1.8012    1.8460   H         1 RES1   0.0000
@<TRIPOS>BOND
     1     1    12    1
     2     1    16    1
     3     1    76    1
     4     1    80    1
     5     1   140    1
     6     1   144    1
     7     1   204    1
     8     1   208    1
     9     1   258    1
    10     2     3    1
    11     2    26    1
    12     2    27    1
    13     2    28    1
    14     3     4    1
    15     3    29    1
    16     3    30    1
    17     4     5    1
    18     4    31    1
    19     4    32    1
    20     5     6    1
    21     5    33    1
    22     5    34    1
    23     6     7    1
    24     6    11    1
    25     7     8    1
    26     7    35    1
    27     7    36    1
    28     8     9    1
    29     8    37    1
    30     8    38    1
    31     9    10    1
    32     9    39    1
    33     9    40    1
    34    10    41    1
    35    10    42    1
    36    10    43    1
    37    11    12    2
    38    11    13    1
    39    13    14    1
    40    13    44    1
    41    13    45    1
    42    14    15    1
    43    14    46    1
    44    14    47    1
    45    15    16    2
    46    15    17    1
    47    17    18    1
    48    17    22    1
    49    18    19    1
    50    18    48    1
    51    18    49    1
    52    19    20    1
    53    19    50    1
    54    19    51    1
    55    20    21    1
    56    20    52    1
    57    20    53    1
    58    21    54    1
    59    21    55    1
    60    21    56    1
    61    22    23    1
    62    22    57    1
    63    22    58    1
    64    23    24    1
    65    23    59    1
    66    23    60    1
    67    24    25    1
    68    24    61    1
    69    24    62    1
    70    25    63    1
    71    25    64    1
    72    25    65    1
    73    66    67    1
    74    66    90    1
    75    66    91    1
    76    66    92    1
    77    67    68    1
    78    67    93    1
    79    67    94    1
    80    68    69    1
    81    68    95    1
    82    68    96    1
    83    69    70    1
    84    69    97    1
    85    69    98    1
    86    70    71    1
    87    70    75    1
    88    71    72    1
    89    71    99    1
    90    71   100    1
    91    72    73    1
    92    72   101    1
    93    72   102    1
    94    73    74    1
    95    73   103    1
    96    73   104    1
    97    74   105    1
    98    74   106    1
    99    74   107    1
   100    75    76    2
   101    75    77    1
   102    77    78    1
   103    77   108    1
   104    77   109    1
   105    78    79    1
   106    78   110    1
   107    78   111    1
   108    79    80    2
   109    79    81    1
   110    81    82    1
   111    81    86    1
   112    82    83    1
   113    82   112    1
   114    82   113    1
   115    83    84    1
   116    83   114    1
   117    83   115    1
   118    84    85    1
   119    84   116    1
   120    84   117    1
   121    85   118    1
   122    85   119    1
   123    85   120    1
   124    86    87    1
   125    86   121    1
   126    86   122    1
   127    87    88    1
   128    87   123    1
   129    87   124    1
   130    88    89    1
   131    88   125    1
   132    88   126    1
   133    89   127    1
   134    89   128    1
   135    89   129    1
   136   130   131    1
   137   130   154    1
   138   130   155    1
   139   130   156    1
   140   131   132    1
   141   131   157    1
   142   131   158    1
   143   132   133    1
   144   132   159    1
   145   132   160    1
   146   133   134    1
   147   133   161    1
   148   133   162    1
   149   134   135    1
   150   134   139    1
   151   135   136    1
   152   135   163    1
   153   135   164    1
   154   136   137    1
   155   136   165    1
   156   136   166    1
   157   137   138    1
   158   137   167    1
   159   137   168    1
   160   138   169    1
   161   138   170    1
   162   138   171    1
   163   139   140    2
   164   139   141    1
   165   141   142    1
   166   141   172    1
   167   141   173    1
   168   142   143    1
   169   142   174    1
   170   142   175    1
   171   143   144    2
   172   143   145    1
   173   145   146    1
   174   145   150    1
   175   146   147    1
   176   146   176    1
   177   146   177    1
   178   147   148    1
   179   147   178    1
   180   147   179    1
   181   148   149    1
   182   148   180    1
   183   148   181    1
   184   149   182    1
   185   149   183    1
   186   149   184    1
   187   150   151    1
   188   150   185    1
   189   150   186    1
   190   151   152    1
   191   151   187    1
   192   151   188    1
   193   152   153    1
   194   152   189    1
   195   152   190    1
   196   153   191    1
   197   153   192    1
   198   153   193    1
   199   194   195    1
   200   194   218    1
   201   194   219    1
   202   194   220    1
   203   195   196    1
   204   195   221    1
   205   195   222    1
   206   196   197    1
   207   196   223    1
   208   196   224    1
   209   197   198    1
   210   197   225    1
   211   197   226    1
   212   198   199    1
   213   198   203    1
   214   199   200    1
   215   199   227    1
   216   199   228    1
   217   200   201    1
   218   200   229    1
   219   200   230    1
   220   201   202    1
   221   201   231    1
   222   201   232    1
   223   202   233    1
   224   202   234    1
   225   202   235    1
   226   203   204    2
   227   203   205    1
   228   205   206    1
   229   205   236    1
   230   205   237    1
   231   206   207    1
   232   206   238    1
   233   206   239    1
   234   207   208    2
   235   207   209    1
   236   209   210    1
   237   209   214    1
   238   210   211    1
   239   210   240    1
   240   210   241    1
   241   211   212    1
   242   211   242    1
   243   211   243    1
   244   212   213    1
   245   212   244    1
   246   212   245    1
   247   213   246    1
   248   213   247    1
   249   213   248    1
   250   214   215    1
   251   214   249    1
   252   214   250    1
   253   215   216    1
   254   215   251    1
   255   215   252    1
   256   216   217    1
   257   216   253    1
   258   216   254    1
   259   217   255    1
   260   217   256    1
   261   217   257    1
   262   258   259    1
   263   258   260    1
@<TRIPOS>SUBSTRUCTURE
     1 RES1      260 GROUP             0 ****  ****    0  
