@<TRIPOS>MOLECULE
cn9_YICLED_0_nunpairedes_0_charge_3 Charge: 3 Unpaired_Electrons: 6 XTB_Unpaired_Electrons: 0 XTB_Charge: 3
   430   435     1     0     0
SMALL
NoCharges
****
Generated from Architector

@<TRIPOS>ATOM
     1 Eu1      -0.4294   -0.1544   -0.0050   Eu        1 RES1   0.0000
     2 C1       -9.1374   -2.8528    2.2885   C.3       1 RES1   0.0000
     3 C2       -7.9339   -3.7742    2.1092   C.3       1 RES1   0.0000
     4 C3       -6.7990   -3.4252    3.0764   C.3       1 RES1   0.0000
     5 C4       -5.4662   -4.0897    2.7165   C.3       1 RES1   0.0000
     6 C5       -4.2726   -3.3392    3.3126   C.3       1 RES1   0.0000
     7 C6       -2.9535   -4.1164    3.2092   C.3       1 RES1   0.0000
     8 C7       -1.7342   -3.2064    3.4208   C.3       1 RES1   0.0000
     9 C8       -0.4100   -3.9808    3.2873   C.3       1 RES1   0.0000
    10 N1        0.7711   -3.3822    2.6256   N.am      1 RES1   0.0000
    11 C9        1.9587   -4.2593    2.6597   C.3       1 RES1   0.0000
    12 C10       2.2021   -5.1922    3.8562   C.3       1 RES1   0.0000
    13 C11       2.9776   -4.6137    5.0463   C.3       1 RES1   0.0000
    14 C12       2.3311   -3.5165    5.8956   C.3       1 RES1   0.0000
    15 C13       2.3943   -2.1158    5.2869   C.3       1 RES1   0.0000
    16 C14       2.2259   -1.0188    6.3433   C.3       1 RES1   0.0000
    17 C15       0.8907   -1.0184    7.0880   C.3       1 RES1   0.0000
    18 C16      -0.3022   -0.8552    6.1547   C.3       1 RES1   0.0000
    19 C17       0.7578   -2.3407    1.8060   C.2       1 RES1   0.0000
    20 O1       -0.2884   -1.7359    1.4770   O.2       1 RES1   0.0000
    21 C18       2.0719   -1.8078    1.1832   C.3       1 RES1   0.0000
    22 O2        1.8041   -0.5432    0.5484   O.3       1 RES1   0.0000
    23 C19       2.9899    0.1227    0.0639   C.3       1 RES1   0.0000
    24 C20       2.8023    1.6256   -0.2979   C.2       1 RES1   0.0000
    25 O3        2.5277    1.8636   -1.4597   O.2       1 RES1   0.0000
    26 N2        3.0128    2.6029    0.6202   N.am      1 RES1   0.0000
    27 C21       2.9975    4.0811    0.4279   C.3       1 RES1   0.0000
    28 C22       1.9987    5.0745    1.1719   C.3       1 RES1   0.0000
    29 C23       0.5405    5.5517    0.7474   C.3       1 RES1   0.0000
    30 C24      -0.9255    5.2152    1.3028   C.3       1 RES1   0.0000
    31 C25      -1.9163    3.9679    1.3475   C.3       1 RES1   0.0000
    32 N3       -2.3459    3.1962    0.1608   N.am      1 RES1   0.0000
    33 C26      -3.6688    3.1297   -0.1848   C.2       1 RES1   0.0000
    34 O4       -4.5294    3.8131    0.3121   O.2       1 RES1   0.0000
    35 C27      -4.0472    2.1631   -1.3199   C.3       1 RES1   0.0000
    36 O5       -3.1310    1.1136   -1.6308   O.3       1 RES1   0.0000
    37 C28      -3.7115   -0.0323   -2.2701   C.3       1 RES1   0.0000
    38 C29      -4.0832   -0.0560   -3.7836   C.2       1 RES1   0.0000
    39 O6       -4.4144    0.9518   -4.3718   O.2       1 RES1   0.0000
    40 N4       -4.0415   -1.2920   -4.3656   N.am      1 RES1   0.0000
    41 C30      -3.9844   -2.5169   -3.5562   C.3       1 RES1   0.0000
    42 C31      -4.4640   -3.8374   -4.1870   C.3       1 RES1   0.0000
    43 C32      -4.8064   -4.9148   -3.1369   C.3       1 RES1   0.0000
    44 C33      -3.6803   -5.5947   -2.3392   C.3       1 RES1   0.0000
    45 C34      -2.9188   -6.7161   -3.0547   C.3       1 RES1   0.0000
    46 C35      -2.0301   -7.5031   -2.0817   C.3       1 RES1   0.0000
    47 C36      -1.3610   -8.7101   -2.7414   C.3       1 RES1   0.0000
    48 C37      -0.4794   -9.5095   -1.7878   C.3       1 RES1   0.0000
    49 C38      -4.3623   -1.3441   -5.8038   C.3       1 RES1   0.0000
    50 C39      -3.2314   -0.9356   -6.7685   C.3       1 RES1   0.0000
    51 C40      -2.5365   -2.0203   -7.5958   C.3       1 RES1   0.0000
    52 C41      -1.3892   -1.3865   -8.3966   C.3       1 RES1   0.0000
    53 C42      -0.4034   -2.3900   -8.9988   C.3       1 RES1   0.0000
    54 C43       0.8286   -1.7051   -9.6001   C.3       1 RES1   0.0000
    55 C44       1.8002   -1.1400   -8.5576   C.3       1 RES1   0.0000
    56 C45       2.8301   -2.1588   -8.0793   C.3       1 RES1   0.0000
    57 H1       -9.9395   -3.1340    1.6094   H         1 RES1   0.0000
    58 H2       -8.8738   -1.8145    2.0853   H         1 RES1   0.0000
    59 H3       -9.5114   -2.9122    3.3073   H         1 RES1   0.0000
    60 H4       -7.5888   -3.7092    1.0732   H         1 RES1   0.0000
    61 H5       -8.2466   -4.8044    2.2750   H         1 RES1   0.0000
    62 H6       -7.0896   -3.7293    4.0799   H         1 RES1   0.0000
    63 H7       -6.6731   -2.3389    3.1162   H         1 RES1   0.0000
    64 H8       -5.3529   -4.1332    1.6300   H         1 RES1   0.0000
    65 H9       -5.4698   -5.1164    3.0773   H         1 RES1   0.0000
    66 H10      -4.4777   -3.1236    4.3609   H         1 RES1   0.0000
    67 H11      -4.1629   -2.3773    2.8021   H         1 RES1   0.0000
    68 H12      -2.8865   -4.6146    2.2359   H         1 RES1   0.0000
    69 H13      -2.9515   -4.9002    3.9661   H         1 RES1   0.0000
    70 H14      -1.8068   -2.7772    4.4200   H         1 RES1   0.0000
    71 H15      -1.7715   -2.3729    2.7253   H         1 RES1   0.0000
    72 H16      -0.5990   -4.9270    2.7642   H         1 RES1   0.0000
    73 H17      -0.0709   -4.2174    4.2967   H         1 RES1   0.0000
    74 H18       2.8492   -3.6420    2.5573   H         1 RES1   0.0000
    75 H19       1.8800   -4.8969    1.7703   H         1 RES1   0.0000
    76 H20       2.8430   -5.9841    3.4546   H         1 RES1   0.0000
    77 H21       1.2874   -5.6767    4.1929   H         1 RES1   0.0000
    78 H22       3.9434   -4.2527    4.6862   H         1 RES1   0.0000
    79 H23       3.1771   -5.4617    5.7049   H         1 RES1   0.0000
    80 H24       2.8909   -3.4901    6.8325   H         1 RES1   0.0000
    81 H25       1.3038   -3.7822    6.1483   H         1 RES1   0.0000
    82 H26       1.6456   -1.9830    4.5045   H         1 RES1   0.0000
    83 H27       3.3808   -1.9865    4.8270   H         1 RES1   0.0000
    84 H28       2.3235   -0.0513    5.8471   H         1 RES1   0.0000
    85 H29       3.0357   -1.1076    7.0713   H         1 RES1   0.0000
    86 H30       0.9036   -0.1886    7.7982   H         1 RES1   0.0000
    87 H31       0.7819   -1.9375    7.6628   H         1 RES1   0.0000
    88 H32      -0.1480   -0.0189    5.4753   H         1 RES1   0.0000
    89 H33      -1.2090   -0.6754    6.7255   H         1 RES1   0.0000
    90 H34      -0.4447   -1.7499    5.5566   H         1 RES1   0.0000
    91 H35       2.4760   -2.5137    0.4444   H         1 RES1   0.0000
    92 H36       2.7823   -1.6639    2.0029   H         1 RES1   0.0000
    93 H37       3.2684   -0.3500   -0.8925   H         1 RES1   0.0000
    94 H38       3.7982    0.0077    0.7789   H         1 RES1   0.0000
    95 H39       3.2663    2.3310    1.5617   H         1 RES1   0.0000
    96 H40       2.9631    4.2751   -0.6415   H         1 RES1   0.0000
    97 H41       3.9839    4.3967    0.7823   H         1 RES1   0.0000
    98 H42       2.5634    6.0059    1.0673   H         1 RES1   0.0000
    99 H43       2.0089    4.8772    2.2393   H         1 RES1   0.0000
   100 H44       0.4951    5.6039   -0.3372   H         1 RES1   0.0000
   101 H45       0.5646    6.5981    1.0589   H         1 RES1   0.0000
   102 H46      -1.5044    5.9857    0.7896   H         1 RES1   0.0000
   103 H47      -0.9047    5.4962    2.3590   H         1 RES1   0.0000
   104 H48      -2.8479    4.4326    1.6960   H         1 RES1   0.0000
   105 H49      -1.5817    3.2615    2.1111   H         1 RES1   0.0000
   106 H50      -1.8659    2.3254   -0.0523   H         1 RES1   0.0000
   107 H51      -4.2224    2.7672   -2.2183   H         1 RES1   0.0000
   108 H52      -5.0174    1.7483   -1.0199   H         1 RES1   0.0000
   109 H53      -4.6377   -0.2839   -1.7457   H         1 RES1   0.0000
   110 H54      -2.9561   -0.7965   -2.1216   H         1 RES1   0.0000
   111 H55      -4.6107   -2.3460   -2.6732   H         1 RES1   0.0000
   112 H56      -2.9547   -2.6515   -3.2119   H         1 RES1   0.0000
   113 H57      -3.7292   -4.2263   -4.8947   H         1 RES1   0.0000
   114 H58      -5.3978   -3.6581   -4.7224   H         1 RES1   0.0000
   115 H59      -5.3522   -5.6994   -3.6610   H         1 RES1   0.0000
   116 H60      -5.5090   -4.4761   -2.4191   H         1 RES1   0.0000
   117 H61      -4.1499   -6.0389   -1.4574   H         1 RES1   0.0000
   118 H62      -2.9697   -4.8482   -1.9738   H         1 RES1   0.0000
   119 H63      -2.3080   -6.3133   -3.8661   H         1 RES1   0.0000
   120 H64      -3.6419   -7.4004   -3.4983   H         1 RES1   0.0000
   121 H65      -2.6405   -7.8571   -1.2482   H         1 RES1   0.0000
   122 H66      -1.2616   -6.8429   -1.6668   H         1 RES1   0.0000
   123 H67      -0.7601   -8.3755   -3.5888   H         1 RES1   0.0000
   124 H68      -2.1340   -9.3718   -3.1302   H         1 RES1   0.0000
   125 H69       0.3301   -8.9048   -1.3846   H         1 RES1   0.0000
   126 H70      -0.0395  -10.3528   -2.3124   H         1 RES1   0.0000
   127 H71      -1.0561   -9.9001   -0.9546   H         1 RES1   0.0000
   128 H72      -5.1544   -0.6129   -5.9509   H         1 RES1   0.0000
   129 H73      -4.7459   -2.3260   -6.0645   H         1 RES1   0.0000
   130 H74      -2.4764   -0.3812   -6.2155   H         1 RES1   0.0000
   131 H75      -3.6662   -0.2353   -7.4789   H         1 RES1   0.0000
   132 H76      -3.2569   -2.4723   -8.2774   H         1 RES1   0.0000
   133 H77      -2.1480   -2.8186   -6.9575   H         1 RES1   0.0000
   134 H78      -0.8422   -0.7023   -7.7407   H         1 RES1   0.0000
   135 H79      -1.8095   -0.7732   -9.1943   H         1 RES1   0.0000
   136 H80      -0.9044   -2.9513   -9.7861   H         1 RES1   0.0000
   137 H81      -0.0789   -3.1123   -8.2449   H         1 RES1   0.0000
   138 H82       0.4942   -0.9014  -10.2558   H         1 RES1   0.0000
   139 H83       1.3690   -2.4227  -10.2176   H         1 RES1   0.0000
   140 H84       1.2366   -0.7701   -7.6962   H         1 RES1   0.0000
   141 H85       2.3407   -0.2969   -8.9911   H         1 RES1   0.0000
   142 H86       2.3565   -3.0974   -7.7992   H         1 RES1   0.0000
   143 H87       3.3824   -1.7701   -7.2237   H         1 RES1   0.0000
   144 H88       3.5404   -2.3683   -8.8741   H         1 RES1   0.0000
   145 C46       3.9961   -6.0192    0.0549   C.3       1 RES1   0.0000
   146 C47       2.6611   -6.2020   -0.6519   C.3       1 RES1   0.0000
   147 C48       2.7591   -5.8415   -2.1298   C.3       1 RES1   0.0000
   148 C49       1.4354   -6.0744   -2.8503   C.3       1 RES1   0.0000
   149 C50       1.5465   -5.8178   -4.3514   C.3       1 RES1   0.0000
   150 C51       1.5823   -4.3281   -4.7250   C.3       1 RES1   0.0000
   151 C52       0.3079   -3.8698   -5.4347   C.3       1 RES1   0.0000
   152 C53      -0.7631   -3.3466   -4.4695   C.3       1 RES1   0.0000
   153 N5       -0.3369   -2.1334   -3.7694   N.am      1 RES1   0.0000
   154 C54       0.1438   -1.1159   -4.7198   C.3       1 RES1   0.0000
   155 C55       0.0778    0.3768   -4.4031   C.3       1 RES1   0.0000
   156 C56      -1.2982    1.0281   -4.2223   C.3       1 RES1   0.0000
   157 C57      -1.3897    2.4561   -4.8107   C.3       1 RES1   0.0000
   158 C58      -2.1978    3.4439   -3.9531   C.3       1 RES1   0.0000
   159 C59      -2.1115    4.9031   -4.4332   C.3       1 RES1   0.0000
   160 C60      -2.1468    5.9326   -3.2937   C.3       1 RES1   0.0000
   161 C61      -3.4671    6.0389   -2.5354   C.3       1 RES1   0.0000
   162 C62      -0.1650   -2.0417   -2.4644   C.2       1 RES1   0.0000
   163 O7        0.5113   -1.1612   -1.8914   O.2       1 RES1   0.0000
   164 C63      -0.9337   -2.9520   -1.4629   C.3       1 RES1   0.0000
   165 O8       -1.7423   -1.9584   -0.8138   O.3       1 RES1   0.0000
   166 C64      -2.9048   -2.3287   -0.0660   C.3       1 RES1   0.0000
   167 C65      -3.4112   -0.9882    0.5012   C.2       1 RES1   0.0000
   168 O9       -2.5571   -0.1269    0.8045   O.2       1 RES1   0.0000
   169 N6       -4.6987   -0.7261    0.6528   N.am      1 RES1   0.0000
   170 C66      -5.9065   -1.4688    0.3180   C.3       1 RES1   0.0000
   171 C67      -6.9276   -0.6083   -0.4625   C.3       1 RES1   0.0000
   172 C68      -7.3157   -1.2123   -1.8231   C.3       1 RES1   0.0000
   173 C69      -7.4804   -0.1861   -2.9475   C.3       1 RES1   0.0000
   174 C70      -7.8036   -0.9144   -4.2508   C.3       1 RES1   0.0000
   175 N7       -7.5486   -0.1457   -5.4557   N.am      1 RES1   0.0000
   176 C71      -7.3705   -0.8257   -6.6124   C.2       1 RES1   0.0000
   177 O10      -7.3953   -2.0393   -6.6464   O.2       1 RES1   0.0000
   178 C72      -7.0782   -0.0076   -7.8720   C.3       1 RES1   0.0000
   179 O11      -5.8491    0.6850   -7.7299   O.3       1 RES1   0.0000
   180 C73      -5.3933    1.2709   -8.9450   C.3       1 RES1   0.0000
   181 C74      -3.9250    1.7582   -8.9560   C.2       1 RES1   0.0000
   182 O12      -3.1920    1.3728   -9.8463   O.2       1 RES1   0.0000
   183 N8       -3.5271    2.6487   -8.0235   N.am      1 RES1   0.0000
   184 C75      -4.3918    3.0436   -6.9265   C.3       1 RES1   0.0000
   185 C76      -5.1302    4.3769   -7.1146   C.3       1 RES1   0.0000
   186 C77      -6.3464    4.4724   -6.1801   C.3       1 RES1   0.0000
   187 C78      -6.0757    4.0920   -4.7204   C.3       1 RES1   0.0000
   188 C79      -7.3047    4.3493   -3.8442   C.3       1 RES1   0.0000
   189 C80      -7.1339    3.8411   -2.4146   C.3       1 RES1   0.0000
   190 C81      -8.3272    4.1870   -1.5288   C.3       1 RES1   0.0000
   191 C82      -8.1576    3.6684   -0.1068   C.3       1 RES1   0.0000
   192 C83      -2.2930    3.4117   -8.2417   C.3       1 RES1   0.0000
   193 C84      -0.9781    2.6005   -8.2763   C.3       1 RES1   0.0000
   194 C85       0.2481    3.4635   -7.9188   C.3       1 RES1   0.0000
   195 C86       1.5975    2.7632   -8.2092   C.3       1 RES1   0.0000
   196 C87       2.7060    2.8994   -7.1418   C.3       1 RES1   0.0000
   197 C88       2.6047    1.8459   -6.0302   C.3       1 RES1   0.0000
   198 C89       3.9179    1.2247   -5.5402   C.3       1 RES1   0.0000
   199 C90       4.7181    2.0630   -4.5469   C.3       1 RES1   0.0000
   200 H89       3.9376   -6.3206    1.0962   H         1 RES1   0.0000
   201 H90       4.7524   -6.6294   -0.4295   H         1 RES1   0.0000
   202 H91       4.3231   -4.9819    0.0156   H         1 RES1   0.0000
   203 H92       2.3455   -7.2427   -0.5560   H         1 RES1   0.0000
   204 H93       1.8854   -5.5805   -0.1853   H         1 RES1   0.0000
   205 H94       3.0738   -4.7996   -2.2427   H         1 RES1   0.0000
   206 H95       3.5225   -6.4667   -2.5943   H         1 RES1   0.0000
   207 H96       1.1436   -7.1137   -2.7028   H         1 RES1   0.0000
   208 H97       0.6505   -5.4426   -2.4138   H         1 RES1   0.0000
   209 H98       2.4541   -6.3019   -4.7123   H         1 RES1   0.0000
   210 H99       0.7066   -6.2962   -4.8598   H         1 RES1   0.0000
   211 H100      1.7279   -3.7226   -3.8255   H         1 RES1   0.0000
   212 H101      2.4309   -4.1367   -5.3816   H         1 RES1   0.0000
   213 H102      0.5486   -3.1131   -6.1750   H         1 RES1   0.0000
   214 H103     -0.1272   -4.7070   -5.9821   H         1 RES1   0.0000
   215 H104     -1.6644   -3.1062   -5.0377   H         1 RES1   0.0000
   216 H105     -0.9817   -4.1380   -3.7582   H         1 RES1   0.0000
   217 H106      1.1949   -1.3308   -4.9396   H         1 RES1   0.0000
   218 H107     -0.4423   -1.2910   -5.6233   H         1 RES1   0.0000
   219 H108      0.7268    0.5894   -3.5529   H         1 RES1   0.0000
   220 H109      0.5195    0.8107   -5.2969   H         1 RES1   0.0000
   221 H110     -2.0496    0.4176   -4.7065   H         1 RES1   0.0000
   222 H111     -1.5452    1.0520   -3.1670   H         1 RES1   0.0000
   223 H112     -0.3880    2.8540   -4.9953   H         1 RES1   0.0000
   224 H113     -1.8621    2.3915   -5.7871   H         1 RES1   0.0000
   225 H114     -3.2356    3.1187   -3.9734   H         1 RES1   0.0000
   226 H115     -1.8609    3.4023   -2.9149   H         1 RES1   0.0000
   227 H116     -1.1748    5.0519   -4.9782   H         1 RES1   0.0000
   228 H117     -2.9187    5.1249   -5.1317   H         1 RES1   0.0000
   229 H118     -1.3635    5.6951   -2.5677   H         1 RES1   0.0000
   230 H119     -1.9203    6.9143   -3.7169   H         1 RES1   0.0000
   231 H120     -3.7119    5.1093   -2.0235   H         1 RES1   0.0000
   232 H121     -3.3906    6.8241   -1.7837   H         1 RES1   0.0000
   233 H122     -4.2828    6.3034   -3.2038   H         1 RES1   0.0000
   234 H123     -1.5390   -3.7502   -1.8995   H         1 RES1   0.0000
   235 H124     -0.2045   -3.3852   -0.7571   H         1 RES1   0.0000
   236 H125     -3.6506   -2.8224   -0.6977   H         1 RES1   0.0000
   237 H126     -2.6586   -2.9859    0.7786   H         1 RES1   0.0000
   238 H127     -4.8888    0.1932    1.0472   H         1 RES1   0.0000
   239 H128     -5.6324   -2.3548   -0.2560   H         1 RES1   0.0000
   240 H129     -6.3556   -1.7980    1.2554   H         1 RES1   0.0000
   241 H130     -7.8281   -0.4880    0.1399   H         1 RES1   0.0000
   242 H131     -6.5173    0.3929   -0.6108   H         1 RES1   0.0000
   243 H132     -6.5667   -1.9427   -2.1329   H         1 RES1   0.0000
   244 H133     -8.2481   -1.7639   -1.7197   H         1 RES1   0.0000
   245 H134     -8.2879    0.4993   -2.6922   H         1 RES1   0.0000
   246 H135     -6.5678    0.3979   -3.0751   H         1 RES1   0.0000
   247 H136     -7.1883   -1.8171   -4.3439   H         1 RES1   0.0000
   248 H137     -8.8476   -1.2423   -4.2350   H         1 RES1   0.0000
   249 H138     -7.5967    0.8594   -5.4337   H         1 RES1   0.0000
   250 H139     -7.0093   -0.7273   -8.6977   H         1 RES1   0.0000
   251 H140     -7.9008    0.6918   -8.0785   H         1 RES1   0.0000
   252 H141     -5.4602    0.5340   -9.7555   H         1 RES1   0.0000
   253 H142     -6.0288    2.1308   -9.2103   H         1 RES1   0.0000
   254 H143     -5.1220    2.2511   -6.7780   H         1 RES1   0.0000
   255 H144     -3.7862    3.0948   -6.0238   H         1 RES1   0.0000
   256 H145     -4.4511    5.2150   -6.9368   H         1 RES1   0.0000
   257 H146     -5.4825    4.4654   -8.1451   H         1 RES1   0.0000
   258 H147     -6.7285    5.4951   -6.2045   H         1 RES1   0.0000
   259 H148     -7.1356    3.8234   -6.5680   H         1 RES1   0.0000
   260 H149     -5.8011    3.0364   -4.6611   H         1 RES1   0.0000
   261 H150     -5.2380    4.6799   -4.3414   H         1 RES1   0.0000
   262 H151     -7.5121    5.4202   -3.8203   H         1 RES1   0.0000
   263 H152     -8.1720    3.8618   -4.2940   H         1 RES1   0.0000
   264 H153     -6.9988    2.7567   -2.4357   H         1 RES1   0.0000
   265 H154     -6.2366    4.2796   -1.9745   H         1 RES1   0.0000
   266 H155     -8.4400    5.2700   -1.4994   H         1 RES1   0.0000
   267 H156     -9.2389    3.7744   -1.9625   H         1 RES1   0.0000
   268 H157     -7.2117    4.0035    0.3102   H         1 RES1   0.0000
   269 H158     -8.9583    4.0359    0.5269   H         1 RES1   0.0000
   270 H159     -8.1825    2.5804   -0.0817   H         1 RES1   0.0000
   271 H160     -2.3851    3.9545   -9.1876   H         1 RES1   0.0000
   272 H161     -2.2501    4.1451   -7.4366   H         1 RES1   0.0000
   273 H162     -1.0442    1.7553   -7.5889   H         1 RES1   0.0000
   274 H163     -0.8507    2.1863   -9.2751   H         1 RES1   0.0000
   275 H164      0.1946    4.3863   -8.4991   H         1 RES1   0.0000
   276 H165      0.2010    3.7493   -6.8650   H         1 RES1   0.0000
   277 H166      1.4101    1.7013   -8.3794   H         1 RES1   0.0000
   278 H167      1.9996    3.1655   -9.1388   H         1 RES1   0.0000
   279 H168      3.6641    2.7633   -7.6448   H         1 RES1   0.0000
   280 H169      2.7074    3.9102   -6.7285   H         1 RES1   0.0000
   281 H170      2.0711    2.2520   -5.1707   H         1 RES1   0.0000
   282 H171      2.0330    1.0156   -6.4449   H         1 RES1   0.0000
   283 H172      3.6767    0.2730   -5.0548   H         1 RES1   0.0000
   284 H173      4.5372    0.9973   -6.4063   H         1 RES1   0.0000
   285 H174      4.2581    2.0293   -3.5593   H         1 RES1   0.0000
   286 H175      5.7249    1.6607   -4.4540   H         1 RES1   0.0000
   287 H176      4.8041    3.0951   -4.8782   H         1 RES1   0.0000
   288 C91      -3.7099    2.1373    4.6094   C.3       1 RES1   0.0000
   289 C92      -2.8405    3.3523    4.9084   C.3       1 RES1   0.0000
   290 C93      -1.4757    2.9531    5.4707   C.3       1 RES1   0.0000
   291 C94      -0.4715    4.1067    5.4121   C.3       1 RES1   0.0000
   292 C95       0.7116    3.9307    6.3667   C.3       1 RES1   0.0000
   293 C96       1.5844    2.6883    6.1133   C.3       1 RES1   0.0000
   294 C97       3.0014    3.0118    5.6347   C.3       1 RES1   0.0000
   295 C98       3.0927    3.1780    4.1097   C.3       1 RES1   0.0000
   296 N9        3.0672    1.8938    3.3917   N.am      1 RES1   0.0000
   297 C99       4.2300    1.0574    3.7902   C.3       1 RES1   0.0000
   298 C100      5.1050    0.3049    2.7717   C.3       1 RES1   0.0000
   299 C101      5.8176    1.1486    1.7004   C.3       1 RES1   0.0000
   300 C102      6.7247    0.3334    0.7572   C.3       1 RES1   0.0000
   301 C103      6.0602   -0.5325   -0.3202   C.3       1 RES1   0.0000
   302 C104      7.0721   -1.3937   -1.0838   C.3       1 RES1   0.0000
   303 C105      6.4354   -2.5086   -1.9158   C.3       1 RES1   0.0000
   304 C106      5.6712   -1.9934   -3.1306   C.3       1 RES1   0.0000
   305 C107      1.9045    1.3205    2.9535   C.2       1 RES1   0.0000
   306 O13       1.7287    0.1143    2.8996   O.2       1 RES1   0.0000
   307 C108      0.7412    2.2056    2.3680   C.3       1 RES1   0.0000
   308 O14       0.3620    1.8210    1.0024   O.3       1 RES1   0.0000
   309 C109      0.4021    2.8881    0.0002   C.3       1 RES1   0.0000
   310 C110      0.2013    2.3778   -1.3987   C.2       1 RES1   0.0000
   311 O15      -0.3485    1.2537   -1.5000   O.2       1 RES1   0.0000
   312 N10       0.4481    3.1014   -2.4721   N.am      1 RES1   0.0000
   313 C111      1.0092    4.4127   -2.7600   C.3       1 RES1   0.0000
   314 C112      2.4914    4.4018   -3.1566   C.3       1 RES1   0.0000
   315 C113      3.2206    5.6845   -2.7363   C.3       1 RES1   0.0000
   316 C114      4.7289    5.4406   -2.5837   C.3       1 RES1   0.0000
   317 C115      5.3769    6.2870   -1.4810   C.3       1 RES1   0.0000
   318 N11       6.7379    5.8747   -1.2294   N.am      1 RES1   0.0000
   319 C116      7.7818    6.7259   -1.3730   C.2       1 RES1   0.0000
   320 O16       7.6463    7.8901   -1.6655   O.2       1 RES1   0.0000
   321 C117      9.1470    6.1069   -1.1208   C.3       1 RES1   0.0000
   322 O17       9.0810    4.7428   -0.7563   O.3       1 RES1   0.0000
   323 C118     10.3848    4.2366   -0.5047   C.3       1 RES1   0.0000
   324 C119     10.3839    2.8979    0.2451   C.2       1 RES1   0.0000
   325 O18      10.8666    2.8399    1.3564   O.2       1 RES1   0.0000
   326 N12       9.8713    1.8120   -0.3799   N.am      1 RES1   0.0000
   327 C120      9.3883    1.8465   -1.7519   C.3       1 RES1   0.0000
   328 C121     10.4084    1.2859   -2.7584   C.3       1 RES1   0.0000
   329 C122     10.1304    1.6922   -4.2099   C.3       1 RES1   0.0000
   330 C123      8.7990    1.1839   -4.7678   C.3       1 RES1   0.0000
   331 C124      8.7462    1.3188   -6.2925   C.3       1 RES1   0.0000
   332 C125      7.3700    0.9772   -6.8575   C.3       1 RES1   0.0000
   333 C126      7.3380    0.9363   -8.3817   C.3       1 RES1   0.0000
   334 C127      5.9540    0.5780   -8.9057   C.3       1 RES1   0.0000
   335 C128     10.2069    0.4870    0.1549   C.3       1 RES1   0.0000
   336 C129      9.9112    0.2619    1.6480   C.3       1 RES1   0.0000
   337 C130      9.6500   -1.2256    1.9262   C.3       1 RES1   0.0000
   338 C131      8.9825   -1.4987    3.2777   C.3       1 RES1   0.0000
   339 C132      8.3915   -2.9096    3.4025   C.3       1 RES1   0.0000
   340 C133      7.2354   -3.1950    2.4375   C.3       1 RES1   0.0000
   341 C134      6.2433   -4.2312    2.9714   C.3       1 RES1   0.0000
   342 C135      6.8042   -5.6477    3.0520   C.3       1 RES1   0.0000
   343 H177     -4.6823    2.4547    4.2450   H         1 RES1   0.0000
   344 H178     -3.8566    1.5456    5.5091   H         1 RES1   0.0000
   345 H179     -3.2478    1.5014    3.8519   H         1 RES1   0.0000
   346 H180     -3.3470    3.9894    5.6340   H         1 RES1   0.0000
   347 H181     -2.7092    3.9391    3.9965   H         1 RES1   0.0000
   348 H182     -1.0925    2.0865    4.9197   H         1 RES1   0.0000
   349 H183     -1.5962    2.6402    6.5082   H         1 RES1   0.0000
   350 H184     -0.9818    5.0262    5.7027   H         1 RES1   0.0000
   351 H185     -0.1196    4.2429    4.3829   H         1 RES1   0.0000
   352 H186      0.3084    3.8745    7.3781   H         1 RES1   0.0000
   353 H187      1.3366    4.8260    6.3242   H         1 RES1   0.0000
   354 H188      1.6634    2.1201    7.0398   H         1 RES1   0.0000
   355 H189      1.1081    2.0362    5.3771   H         1 RES1   0.0000
   356 H190      3.6859    2.2366    5.9723   H         1 RES1   0.0000
   357 H191      3.3347    3.9409    6.0951   H         1 RES1   0.0000
   358 H192      4.0200    3.6906    3.8402   H         1 RES1   0.0000
   359 H193      2.2502    3.7972    3.8182   H         1 RES1   0.0000
   360 H194      3.8867    0.3145    4.5104   H         1 RES1   0.0000
   361 H195      4.9063    1.7448    4.2930   H         1 RES1   0.0000
   362 H196      4.5669   -0.5351    2.3279   H         1 RES1   0.0000
   363 H197      5.8834   -0.1396    3.4049   H         1 RES1   0.0000
   364 H198      6.4679    1.8606    2.2147   H         1 RES1   0.0000
   365 H199      5.1237    1.7403    1.1031   H         1 RES1   0.0000
   366 H200      7.3298   -0.3225    1.3749   H         1 RES1   0.0000
   367 H201      7.3883    1.0462    0.2645   H         1 RES1   0.0000
   368 H202      5.5215    0.0984   -1.0305   H         1 RES1   0.0000
   369 H203      5.3575   -1.2298    0.1416   H         1 RES1   0.0000
   370 H204      7.7449   -1.8637   -0.3678   H         1 RES1   0.0000
   371 H205      7.6742   -0.7743   -1.7474   H         1 RES1   0.0000
   372 H206      5.7704   -3.1073   -1.2858   H         1 RES1   0.0000
   373 H207      7.2352   -3.1665   -2.2618   H         1 RES1   0.0000
   374 H208      4.7560   -1.4792   -2.8395   H         1 RES1   0.0000
   375 H209      5.4042   -2.8166   -3.7897   H         1 RES1   0.0000
   376 H210      6.2914   -1.2989   -3.6924   H         1 RES1   0.0000
   377 H211      0.9479    3.2681    2.4008   H         1 RES1   0.0000
   378 H212     -0.1217    1.9829    3.0168   H         1 RES1   0.0000
   379 H213      1.3313    3.4010    0.0284   H         1 RES1   0.0000
   380 H214     -0.3768    3.6095    0.1742   H         1 RES1   0.0000
   381 H215      0.2063    2.5885   -3.3136   H         1 RES1   0.0000
   382 H216      0.8742    5.0688   -1.9062   H         1 RES1   0.0000
   383 H217      0.4259    4.8236   -3.5835   H         1 RES1   0.0000
   384 H218      2.5930    4.2735   -4.2309   H         1 RES1   0.0000
   385 H219      2.9612    3.5397   -2.6897   H         1 RES1   0.0000
   386 H220      2.8192    6.0534   -1.7894   H         1 RES1   0.0000
   387 H221      3.0423    6.4757   -3.4627   H         1 RES1   0.0000
   388 H222      5.2344    5.6504   -3.5242   H         1 RES1   0.0000
   389 H223      4.9069    4.3880   -2.3471   H         1 RES1   0.0000
   390 H224      4.7883    6.2151   -0.5540   H         1 RES1   0.0000
   391 H225      5.4093    7.3393   -1.7758   H         1 RES1   0.0000
   392 H226      6.9292    4.9059   -1.0166   H         1 RES1   0.0000
   393 H227      9.6315    6.6953   -0.3292   H         1 RES1   0.0000
   394 H228      9.7391    6.2349   -2.0380   H         1 RES1   0.0000
   395 H229     10.9441    4.9261    0.1424   H         1 RES1   0.0000
   396 H230     10.9383    4.1183   -1.4507   H         1 RES1   0.0000
   397 H231      9.1357    2.8757   -2.0098   H         1 RES1   0.0000
   398 H232      8.4620    1.2609   -1.7976   H         1 RES1   0.0000
   399 H233     10.4301    0.1951   -2.6897   H         1 RES1   0.0000
   400 H234     11.4023    1.6497   -2.4856   H         1 RES1   0.0000
   401 H235     10.9353    1.2915   -4.8295   H         1 RES1   0.0000
   402 H236     10.1607    2.7814   -4.2973   H         1 RES1   0.0000
   403 H237      7.9797    1.7535   -4.3195   H         1 RES1   0.0000
   404 H238      8.6660    0.1320   -4.4970   H         1 RES1   0.0000
   405 H239      9.4955    0.6586   -6.7318   H         1 RES1   0.0000
   406 H240      9.0048    2.3424   -6.5695   H         1 RES1   0.0000
   407 H241      6.6621    1.7328   -6.5175   H         1 RES1   0.0000
   408 H242      7.0472    0.0081   -6.4663   H         1 RES1   0.0000
   409 H243      8.0590    0.2027   -8.7399   H         1 RES1   0.0000
   410 H244      7.6323    1.9095   -8.7743   H         1 RES1   0.0000
   411 H245      5.6444   -0.3978   -8.5403   H         1 RES1   0.0000
   412 H246      5.9482    0.5504   -9.9900   H         1 RES1   0.0000
   413 H247      5.2177    1.3119   -8.5871   H         1 RES1   0.0000
   414 H248     11.2707    0.3002   -0.0190   H         1 RES1   0.0000
   415 H249      9.6335   -0.2281   -0.4363   H         1 RES1   0.0000
   416 H250      9.0591    0.8722    1.9478   H         1 RES1   0.0000
   417 H251     10.7582    0.5999    2.2404   H         1 RES1   0.0000
   418 H252     10.5970   -1.7623    1.8808   H         1 RES1   0.0000
   419 H253      9.0187   -1.6343    1.1359   H         1 RES1   0.0000
   420 H254      8.1871   -0.7658    3.4526   H         1 RES1   0.0000
   421 H255      9.7177   -1.3641    4.0715   H         1 RES1   0.0000
   422 H256      8.0235   -3.0234    4.4245   H         1 RES1   0.0000
   423 H257      9.1792   -3.6454    3.2523   H         1 RES1   0.0000
   424 H258      7.6150   -3.5411    1.4763   H         1 RES1   0.0000
   425 H259      6.6835   -2.2690    2.2643   H         1 RES1   0.0000
   426 H260      5.3573   -4.2445    2.3230   H         1 RES1   0.0000
   427 H261      5.9260   -3.9194    3.9707   H         1 RES1   0.0000
   428 H262      7.1038   -6.0025    2.0673   H         1 RES1   0.0000
   429 H263      6.0528   -6.3325    3.4458   H         1 RES1   0.0000
   430 H264      7.6679   -5.6838    3.7103   H         1 RES1   0.0000
@<TRIPOS>BOND
     1     1    20    1
     2     1    22    1
     3     1    25    1
     4     1   163    1
     5     1   165    1
     6     1   168    1
     7     1   306    1
     8     1   308    1
     9     1   311    1
    10     2     3    1
    11     2    57    1
    12     2    58    1
    13     2    59    1
    14     3     4    1
    15     3    60    1
    16     3    61    1
    17     4     5    1
    18     4    62    1
    19     4    63    1
    20     5     6    1
    21     5    64    1
    22     5    65    1
    23     6     7    1
    24     6    66    1
    25     6    67    1
    26     7     8    1
    27     7    68    1
    28     7    69    1
    29     8     9    1
    30     8    70    1
    31     8    71    1
    32     9    10    1
    33     9    72    1
    34     9    73    1
    35    10    11    1
    36    10    19    1
    37    11    12    1
    38    11    74    1
    39    11    75    1
    40    12    13    1
    41    12    76    1
    42    12    77    1
    43    13    14    1
    44    13    78    1
    45    13    79    1
    46    14    15    1
    47    14    80    1
    48    14    81    1
    49    15    16    1
    50    15    82    1
    51    15    83    1
    52    16    17    1
    53    16    84    1
    54    16    85    1
    55    17    18    1
    56    17    86    1
    57    17    87    1
    58    18    88    1
    59    18    89    1
    60    18    90    1
    61    19    20    2
    62    19    21    1
    63    21    22    1
    64    21    91    1
    65    21    92    1
    66    22    23    1
    67    23    24    1
    68    23    93    1
    69    23    94    1
    70    24    25    2
    71    24    26    1
    72    26    27    1
    73    26    95    1
    74    27    28    1
    75    27    96    1
    76    27    97    1
    77    28    29    1
    78    28    98    1
    79    28    99    1
    80    29    30    1
    81    29   100    1
    82    29   101    1
    83    30    31    1
    84    30   102    1
    85    30   103    1
    86    31    32    1
    87    31   104    1
    88    31   105    1
    89    32    33    1
    90    32   106    1
    91    33    34    2
    92    33    35    1
    93    35    36    1
    94    35   107    1
    95    35   108    1
    96    36    37    1
    97    37    38    1
    98    37   109    1
    99    37   110    1
   100    38    39    2
   101    38    40    1
   102    40    41    1
   103    40    49    1
   104    41    42    1
   105    41   111    1
   106    41   112    1
   107    42    43    1
   108    42   113    1
   109    42   114    1
   110    43    44    1
   111    43   115    1
   112    43   116    1
   113    44    45    1
   114    44   117    1
   115    44   118    1
   116    45    46    1
   117    45   119    1
   118    45   120    1
   119    46    47    1
   120    46   121    1
   121    46   122    1
   122    47    48    1
   123    47   123    1
   124    47   124    1
   125    48   125    1
   126    48   126    1
   127    48   127    1
   128    49    50    1
   129    49   128    1
   130    49   129    1
   131    50    51    1
   132    50   130    1
   133    50   131    1
   134    51    52    1
   135    51   132    1
   136    51   133    1
   137    52    53    1
   138    52   134    1
   139    52   135    1
   140    53    54    1
   141    53   136    1
   142    53   137    1
   143    54    55    1
   144    54   138    1
   145    54   139    1
   146    55    56    1
   147    55   140    1
   148    55   141    1
   149    56   142    1
   150    56   143    1
   151    56   144    1
   152   145   146    1
   153   145   200    1
   154   145   201    1
   155   145   202    1
   156   146   147    1
   157   146   203    1
   158   146   204    1
   159   147   148    1
   160   147   205    1
   161   147   206    1
   162   148   149    1
   163   148   207    1
   164   148   208    1
   165   149   150    1
   166   149   209    1
   167   149   210    1
   168   150   151    1
   169   150   211    1
   170   150   212    1
   171   151   152    1
   172   151   213    1
   173   151   214    1
   174   152   153    1
   175   152   215    1
   176   152   216    1
   177   153   154    1
   178   153   162    1
   179   154   155    1
   180   154   217    1
   181   154   218    1
   182   155   156    1
   183   155   219    1
   184   155   220    1
   185   156   157    1
   186   156   221    1
   187   156   222    1
   188   157   158    1
   189   157   223    1
   190   157   224    1
   191   158   159    1
   192   158   225    1
   193   158   226    1
   194   159   160    1
   195   159   227    1
   196   159   228    1
   197   160   161    1
   198   160   229    1
   199   160   230    1
   200   161   231    1
   201   161   232    1
   202   161   233    1
   203   162   163    2
   204   162   164    1
   205   164   165    1
   206   164   234    1
   207   164   235    1
   208   165   166    1
   209   166   167    1
   210   166   236    1
   211   166   237    1
   212   167   168    2
   213   167   169    1
   214   169   170    1
   215   169   238    1
   216   170   171    1
   217   170   239    1
   218   170   240    1
   219   171   172    1
   220   171   241    1
   221   171   242    1
   222   172   173    1
   223   172   243    1
   224   172   244    1
   225   173   174    1
   226   173   245    1
   227   173   246    1
   228   174   175    1
   229   174   247    1
   230   174   248    1
   231   175   176    1
   232   175   249    1
   233   176   177    2
   234   176   178    1
   235   178   179    1
   236   178   250    1
   237   178   251    1
   238   179   180    1
   239   180   181    1
   240   180   252    1
   241   180   253    1
   242   181   182    2
   243   181   183    1
   244   183   184    1
   245   183   192    1
   246   184   185    1
   247   184   254    1
   248   184   255    1
   249   185   186    1
   250   185   256    1
   251   185   257    1
   252   186   187    1
   253   186   258    1
   254   186   259    1
   255   187   188    1
   256   187   260    1
   257   187   261    1
   258   188   189    1
   259   188   262    1
   260   188   263    1
   261   189   190    1
   262   189   264    1
   263   189   265    1
   264   190   191    1
   265   190   266    1
   266   190   267    1
   267   191   268    1
   268   191   269    1
   269   191   270    1
   270   192   193    1
   271   192   271    1
   272   192   272    1
   273   193   194    1
   274   193   273    1
   275   193   274    1
   276   194   195    1
   277   194   275    1
   278   194   276    1
   279   195   196    1
   280   195   277    1
   281   195   278    1
   282   196   197    1
   283   196   279    1
   284   196   280    1
   285   197   198    1
   286   197   281    1
   287   197   282    1
   288   198   199    1
   289   198   283    1
   290   198   284    1
   291   199   285    1
   292   199   286    1
   293   199   287    1
   294   288   289    1
   295   288   343    1
   296   288   344    1
   297   288   345    1
   298   289   290    1
   299   289   346    1
   300   289   347    1
   301   290   291    1
   302   290   348    1
   303   290   349    1
   304   291   292    1
   305   291   350    1
   306   291   351    1
   307   292   293    1
   308   292   352    1
   309   292   353    1
   310   293   294    1
   311   293   354    1
   312   293   355    1
   313   294   295    1
   314   294   356    1
   315   294   357    1
   316   295   296    1
   317   295   358    1
   318   295   359    1
   319   296   297    1
   320   296   305    1
   321   297   298    1
   322   297   360    1
   323   297   361    1
   324   298   299    1
   325   298   362    1
   326   298   363    1
   327   299   300    1
   328   299   364    1
   329   299   365    1
   330   300   301    1
   331   300   366    1
   332   300   367    1
   333   301   302    1
   334   301   368    1
   335   301   369    1
   336   302   303    1
   337   302   370    1
   338   302   371    1
   339   303   304    1
   340   303   372    1
   341   303   373    1
   342   304   374    1
   343   304   375    1
   344   304   376    1
   345   305   306    2
   346   305   307    1
   347   307   308    1
   348   307   377    1
   349   307   378    1
   350   308   309    1
   351   309   310    1
   352   309   379    1
   353   309   380    1
   354   310   311    2
   355   310   312    1
   356   312   313    1
   357   312   381    1
   358   313   314    1
   359   313   382    1
   360   313   383    1
   361   314   315    1
   362   314   384    1
   363   314   385    1
   364   315   316    1
   365   315   386    1
   366   315   387    1
   367   316   317    1
   368   316   388    1
   369   316   389    1
   370   317   318    1
   371   317   390    1
   372   317   391    1
   373   318   319    1
   374   318   392    1
   375   319   320    2
   376   319   321    1
   377   321   322    1
   378   321   393    1
   379   321   394    1
   380   322   323    1
   381   323   324    1
   382   323   395    1
   383   323   396    1
   384   324   325    2
   385   324   326    1
   386   326   327    1
   387   326   335    1
   388   327   328    1
   389   327   397    1
   390   327   398    1
   391   328   329    1
   392   328   399    1
   393   328   400    1
   394   329   330    1
   395   329   401    1
   396   329   402    1
   397   330   331    1
   398   330   403    1
   399   330   404    1
   400   331   332    1
   401   331   405    1
   402   331   406    1
   403   332   333    1
   404   332   407    1
   405   332   408    1
   406   333   334    1
   407   333   409    1
   408   333   410    1
   409   334   411    1
   410   334   412    1
   411   334   413    1
   412   335   336    1
   413   335   414    1
   414   335   415    1
   415   336   337    1
   416   336   416    1
   417   336   417    1
   418   337   338    1
   419   337   418    1
   420   337   419    1
   421   338   339    1
   422   338   420    1
   423   338   421    1
   424   339   340    1
   425   339   422    1
   426   339   423    1
   427   340   341    1
   428   340   424    1
   429   340   425    1
   430   341   342    1
   431   341   426    1
   432   341   427    1
   433   342   428    1
   434   342   429    1
   435   342   430    1
@<TRIPOS>SUBSTRUCTURE
     1 RES1      430 GROUP             0 ****  ****    0  
