@<TRIPOS>MOLECULE
am_c3_9H2O_c0_0_nunpairedes_0_charge_3 Charge: 3 Unpaired_Electrons: 6 XTB_Unpaired_Electrons: 0 XTB_Charge: 3
    78    92     1     0     0
SMALL
NoCharges
****
Generated from Architector

@<TRIPOS>ATOM
     1 Eu1      -0.0889    0.3084   -0.0637   Eu        1 RES1   0.0000
     2 C1       -5.9414    2.9572   -3.6630   C.3       1 RES1   0.0000
     3 C2       -4.4514    3.2041   -3.6441   C.3       1 RES1   0.0000
     4 C3       -4.0426    4.5521   -2.9669   C.3       1 RES1   0.0000
     5 C4       -2.6644    4.9133   -3.5393   C.3       1 RES1   0.0000
     6 C5       -2.2890    3.6443   -4.3293   C.3       1 RES1   0.0000
     7 C6       -2.2261    2.5819   -3.2873   C.ar      1 RES1   0.0000
     8 N1       -1.2841    2.1088   -2.5209   N.ar      1 RES1   0.0000
     9 N2       -1.5707    1.0410   -1.7345   N.ar      1 RES1   0.0000
    10 C7       -2.7718    0.4322   -1.8902   C.ar      1 RES1   0.0000
    11 C8       -2.9351   -0.8752   -1.2094   C.ar      1 RES1   0.0000
    12 C9       -3.8535   -1.8635   -1.5376   C.ar      1 RES1   0.0000
    13 C10      -4.0740   -2.8761   -0.6101   C.ar      1 RES1   0.0000
    14 C11      -3.4961   -2.8204    0.6574   C.ar      1 RES1   0.0000
    15 C12      -2.5551   -1.8196    0.8960   C.ar      1 RES1   0.0000
    16 C13      -2.0357   -1.3501    2.2141   C.ar      1 RES1   0.0000
    17 C14      -2.4966   -1.7052    3.4817   C.ar      1 RES1   0.0000
    18 C15      -2.2215   -0.8499    4.5487   C.ar      1 RES1   0.0000
    19 C16      -1.5718    0.3645    4.3418   C.ar      1 RES1   0.0000
    20 C17      -1.1417    0.6390    3.0488   C.ar      1 RES1   0.0000
    21 C18      -0.6937    1.9363    2.4667   C.ar      1 RES1   0.0000
    22 N3        0.3080    1.8471    1.5718   N.ar      1 RES1   0.0000
    23 N4        0.8286    2.9786    1.0442   N.ar      1 RES1   0.0000
    24 C19       0.2701    4.1112    1.3777   C.ar      1 RES1   0.0000
    25 C20      -1.0351    4.0962    1.9852   C.ar      1 RES1   0.0000
    26 N5       -1.4556    3.0164    2.6040   N.ar      1 RES1   0.0000
    27 C21      -1.6085    5.4388    1.7635   C.3       1 RES1   0.0000
    28 C22      -2.9251    5.7900    2.4129   C.3       1 RES1   0.0000
    29 C23      -1.6434    5.5943    0.2092   C.3       1 RES1   0.0000
    30 C24      -0.1922    5.8244   -0.2188   C.3       1 RES1   0.0000
    31 C25       0.5794    5.5301    1.0779   C.3       1 RES1   0.0000
    32 C26      -0.3018    6.2250    2.1618   C.3       1 RES1   0.0000
    33 C27       0.1572    5.8565    3.5807   C.3       1 RES1   0.0000
    34 C28      -0.4360    7.7338    2.0611   C.3       1 RES1   0.0000
    35 N6       -1.2741   -0.2486    2.0535   N.ar      1 RES1   0.0000
    36 N7       -2.2207   -0.9423   -0.0756   N.ar      1 RES1   0.0000
    37 N8       -3.8219    1.0490   -2.4115   N.ar      1 RES1   0.0000
    38 C29      -3.5907    2.1886   -3.0171   C.ar      1 RES1   0.0000
    39 C30      -3.6389    3.2692   -5.0096   C.3       1 RES1   0.0000
    40 C31      -4.2401    4.2684   -5.9822   C.3       1 RES1   0.0000
    41 C32      -3.5718    1.8937   -5.6788   C.3       1 RES1   0.0000
    42 H1       -6.3310    2.9802   -2.6475   H         1 RES1   0.0000
    43 H2       -6.1865    1.9907   -4.0957   H         1 RES1   0.0000
    44 H3       -6.4356    3.7356   -4.2330   H         1 RES1   0.0000
    45 H4       -4.0172    4.4344   -1.8829   H         1 RES1   0.0000
    46 H5       -4.7869    5.3063   -3.2079   H         1 RES1   0.0000
    47 H6       -1.9317    5.1715   -2.7748   H         1 RES1   0.0000
    48 H7       -2.7238    5.7441   -4.2405   H         1 RES1   0.0000
    49 H8       -1.4161    3.7403   -4.9653   H         1 RES1   0.0000
    50 H9       -4.3642   -1.8474   -2.4847   H         1 RES1   0.0000
    51 H10      -4.7335   -3.6921   -0.8527   H         1 RES1   0.0000
    52 H11      -3.7905   -3.5206    1.4301   H         1 RES1   0.0000
    53 H12      -3.0972   -2.5893    3.6464   H         1 RES1   0.0000
    54 H13      -2.5691   -1.1060    5.5377   H         1 RES1   0.0000
    55 H14      -1.3983    1.0673    5.1445   H         1 RES1   0.0000
    56 H15      -3.7421    5.2536    1.9285   H         1 RES1   0.0000
    57 H16      -3.1061    6.8565    2.2966   H         1 RES1   0.0000
    58 H17      -2.9341    5.5415    3.4721   H         1 RES1   0.0000
    59 H18      -2.2814    6.4355   -0.0485   H         1 RES1   0.0000
    60 H19      -2.0586    4.6920   -0.2452   H         1 RES1   0.0000
    61 H20      -0.0236    6.8578   -0.5100   H         1 RES1   0.0000
    62 H21       0.1247    5.1951   -1.0469   H         1 RES1   0.0000
    63 H22       1.6229    5.8099    1.0470   H         1 RES1   0.0000
    64 H23       0.7287    4.9269    3.5997   H         1 RES1   0.0000
    65 H24      -0.7047    5.7436    4.2339   H         1 RES1   0.0000
    66 H25       0.7841    6.6370    4.0041   H         1 RES1   0.0000
    67 H26      -0.8638    8.0778    1.1249   H         1 RES1   0.0000
    68 H27       0.5397    8.1983    2.1944   H         1 RES1   0.0000
    69 H28      -1.0651    8.0954    2.8714   H         1 RES1   0.0000
    70 H29      -4.4892    5.2293   -5.5437   H         1 RES1   0.0000
    71 H30      -5.1602    3.8553   -6.3880   H         1 RES1   0.0000
    72 H31      -3.5729    4.4268   -6.8267   H         1 RES1   0.0000
    73 H32      -2.7918    1.2735   -5.2405   H         1 RES1   0.0000
    74 H33      -3.3841    1.9816   -6.7437   H         1 RES1   0.0000
    75 H34      -4.5180    1.3740   -5.5629   H         1 RES1   0.0000
    76 O1        1.6019   -1.6153   -0.1639   O.3       1 RES1   0.0000
    77 H35       2.3738   -1.6048    0.4316   H         1 RES1   0.0000
    78 H36       1.7542   -2.4047   -0.7171   H         1 RES1   0.0000
@<TRIPOS>BOND
     1     1     8    1
     2     1     9    1
     3     1    22    1
     4     1    23    1
     5     1    26    1
     6     1    35    1
     7     1    36    1
     8     1    37    1
     9     1    76    1
    10     2     3    1
    11     2    42    1
    12     2    43    1
    13     2    44    1
    14     3     4    1
    15     3    38    1
    16     3    39    1
    17     4     5    1
    18     4    45    1
    19     4    46    1
    20     5     6    1
    21     5    47    1
    22     5    48    1
    23     6     7    1
    24     6    39    1
    25     6    49    1
    26     7     8    1
    27     7    38    2
    28     8     9    2
    29     9    10    1
    30    10    11    1
    31    10    37    2
    32    11    12    1
    33    11    36    2
    34    12    13    2
    35    12    50    1
    36    13    14    1
    37    13    51    1
    38    14    15    2
    39    14    52    1
    40    15    16    1
    41    15    36    1
    42    16    17    1
    43    16    35    2
    44    17    18    2
    45    17    53    1
    46    18    19    1
    47    18    54    1
    48    19    20    2
    49    19    55    1
    50    20    21    1
    51    20    35    1
    52    21    22    1
    53    21    26    2
    54    22    23    2
    55    23    24    1
    56    24    25    2
    57    24    31    1
    58    25    26    1
    59    25    27    1
    60    27    28    1
    61    27    29    1
    62    27    32    1
    63    28    56    1
    64    28    57    1
    65    28    58    1
    66    29    30    1
    67    29    59    1
    68    29    60    1
    69    30    31    1
    70    30    61    1
    71    30    62    1
    72    31    32    1
    73    31    63    1
    74    32    33    1
    75    32    34    1
    76    33    64    1
    77    33    65    1
    78    33    66    1
    79    34    67    1
    80    34    68    1
    81    34    69    1
    82    37    38    1
    83    39    40    1
    84    39    41    1
    85    40    70    1
    86    40    71    1
    87    40    72    1
    88    41    73    1
    89    41    74    1
    90    41    75    1
    91    76    77    1
    92    76    78    1
@<TRIPOS>SUBSTRUCTURE
     1 RES1       78 GROUP             0 ****  ****    0  
