@<TRIPOS>MOLECULE
capped_square_antiprismatic_0_nunpairedes_0_charge_1 Charge: 1 Unpaired_Electrons: 6 XTB_Unpaired_Electrons: 0 XTB_Charge: 1
   106   112     1     0     0
SMALL
NoCharges
****
Generated from Architector

@<TRIPOS>ATOM
     1 Eu1       0.1519   -0.5048   -0.2136   Eu        1 RES1   0.0000
     2 C1        2.0323   -0.1793    6.2024   C.3       1 RES1   0.0000
     3 C2        1.3203   -1.4839    5.8654   C.3       1 RES1   0.0000
     4 C3       -0.1266   -1.5036    6.3593   C.3       1 RES1   0.0000
     5 C4       -0.8304   -2.8177    6.0040   C.3       1 RES1   0.0000
     6 C5       -1.3031   -2.8566    4.5447   C.3       1 RES1   0.0000
     7 C6       -1.3570   -4.2573    3.9228   C.3       1 RES1   0.0000
     8 C7        0.0056   -4.9334    3.7372   C.3       1 RES1   0.0000
     9 C8        0.9171   -4.1322    2.8113   C.3       1 RES1   0.0000
    10 C9        2.2046   -4.8555    2.4263   C.3       1 RES1   0.0000
    11 C10       3.0184   -4.0422    1.4114   C.3       1 RES1   0.0000
    12 C11       3.7932   -2.8516    2.0121   C.3       1 RES1   0.0000
    13 C12       3.5211   -1.5416    1.2706   C.3       1 RES1   0.0000
    14 N1        2.1600   -1.0142    1.5329   N.4       1 RES1   0.0000
    15 C13       2.1384    0.1705    2.4256   C.3       1 RES1   0.0000
    16 C14       0.6792    0.5658    2.4874   C.2       1 RES1   0.0000
    17 O1       -0.1666   -0.3113    2.5303   O.2       1 RES1   0.0000
    18 C15       0.1791    1.9285    2.0774   C.ar      1 RES1   0.0000
    19 C16       0.0202    3.0949    2.8034   C.ar      1 RES1   0.0000
    20 C17      -0.6559    4.1550    2.2075   C.ar      1 RES1   0.0000
    21 C18      -1.1551    4.0143    0.9227   C.ar      1 RES1   0.0000
    22 C19      -0.9688    2.8000    0.2725   C.ar      1 RES1   0.0000
    23 C20      -1.5145    2.3899   -1.0816   C.2       1 RES1   0.0000
    24 O2       -2.5226    1.7493   -1.1901   O.2       1 RES1   0.0000
    25 C21      -0.5854    2.6752   -2.2593   C.3       1 RES1   0.0000
    26 N2        0.2615    1.4773   -2.4439   N.4       1 RES1   0.0000
    27 C22      -0.1487    0.6182   -3.5690   C.3       1 RES1   0.0000
    28 C23      -1.2265   -0.3856   -3.1568   C.3       1 RES1   0.0000
    29 C24      -1.4178   -1.4779   -4.2159   C.3       1 RES1   0.0000
    30 C25      -0.2605   -2.4794   -4.3274   C.3       1 RES1   0.0000
    31 C26       0.0475   -3.3349   -3.0901   C.3       1 RES1   0.0000
    32 C27      -1.0990   -4.2364   -2.6236   C.3       1 RES1   0.0000
    33 C28      -2.1643   -3.5142   -1.7927   C.3       1 RES1   0.0000
    34 C29      -2.8725   -4.4194   -0.7832   C.3       1 RES1   0.0000
    35 C30      -4.1811   -3.7695   -0.3215   C.3       1 RES1   0.0000
    36 C31      -4.7145   -4.3187    1.0013   C.3       1 RES1   0.0000
    37 C32      -4.9384   -5.8300    1.0126   C.3       1 RES1   0.0000
    38 C33      -5.9522   -6.2913   -0.0274   C.3       1 RES1   0.0000
    39 N3       -0.3264    1.7816    0.8405   N.ar      1 RES1   0.0000
    40 H1        3.0718   -0.2006    5.8760   H         1 RES1   0.0000
    41 H2        2.0246   -0.0199    7.2772   H         1 RES1   0.0000
    42 H3        1.5318    0.6662    5.7310   H         1 RES1   0.0000
    43 H4        1.8634   -2.3163    6.3197   H         1 RES1   0.0000
    44 H5        1.3315   -1.6385    4.7834   H         1 RES1   0.0000
    45 H6       -0.6779   -0.6627    5.9292   H         1 RES1   0.0000
    46 H7       -0.1238   -1.3757    7.4431   H         1 RES1   0.0000
    47 H8       -1.6907   -2.9593    6.6610   H         1 RES1   0.0000
    48 H9       -0.1369   -3.6370    6.1996   H         1 RES1   0.0000
    49 H10      -0.6640   -2.2224    3.9294   H         1 RES1   0.0000
    50 H11      -2.3018   -2.4189    4.4809   H         1 RES1   0.0000
    51 H12      -1.8380   -4.1628    2.9450   H         1 RES1   0.0000
    52 H13      -1.9848   -4.9002    4.5426   H         1 RES1   0.0000
    53 H14      -0.1470   -5.9284    3.3114   H         1 RES1   0.0000
    54 H15       0.4900   -5.0681    4.7061   H         1 RES1   0.0000
    55 H16       1.1787   -3.2001    3.3169   H         1 RES1   0.0000
    56 H17       0.3687   -3.8900    1.8958   H         1 RES1   0.0000
    57 H18       1.9526   -5.8185    1.9757   H         1 RES1   0.0000
    58 H19       2.8105   -5.0522    3.3138   H         1 RES1   0.0000
    59 H20       2.3314   -3.6748    0.6399   H         1 RES1   0.0000
    60 H21       3.7231   -4.7089    0.9112   H         1 RES1   0.0000
    61 H22       4.8647   -3.0508    1.9588   H         1 RES1   0.0000
    62 H23       3.5459   -2.7337    3.0683   H         1 RES1   0.0000
    63 H24       3.6280   -1.7218    0.1946   H         1 RES1   0.0000
    64 H25       4.2607   -0.7900    1.5571   H         1 RES1   0.0000
    65 H26       1.6557   -1.7705    2.0160   H         1 RES1   0.0000
    66 H27       2.7334    0.9845    2.0008   H         1 RES1   0.0000
    67 H28       2.5126   -0.0575    3.4371   H         1 RES1   0.0000
    68 H29       0.3827    3.1734    3.8152   H         1 RES1   0.0000
    69 H30      -0.8257    5.0715    2.7541   H         1 RES1   0.0000
    70 H31      -1.7145    4.8075    0.4546   H         1 RES1   0.0000
    71 H32       0.0319    3.5476   -2.0369   H         1 RES1   0.0000
    72 H33      -1.1897    2.8719   -3.1545   H         1 RES1   0.0000
    73 H34       1.1928    1.8253   -2.6744   H         1 RES1   0.0000
    74 H35       0.7371    0.0658   -3.8968   H         1 RES1   0.0000
    75 H36      -0.5022    1.2227   -4.4134   H         1 RES1   0.0000
    76 H37      -2.1804    0.1216   -2.9845   H         1 RES1   0.0000
    77 H38      -0.9133   -0.8606   -2.1919   H         1 RES1   0.0000
    78 H39      -1.5480   -0.9956   -5.1881   H         1 RES1   0.0000
    79 H40      -2.3421   -2.0116   -4.0035   H         1 RES1   0.0000
    80 H41       0.6530   -1.9478   -4.6085   H         1 RES1   0.0000
    81 H42      -0.5017   -3.1563   -5.1513   H         1 RES1   0.0000
    82 H43       0.3892   -2.7179   -2.2410   H         1 RES1   0.0000
    83 H44       0.8963   -3.9686   -3.3583   H         1 RES1   0.0000
    84 H45      -0.6695   -5.0326   -2.0119   H         1 RES1   0.0000
    85 H46      -1.5628   -4.7043   -3.4946   H         1 RES1   0.0000
    86 H47      -2.9322   -3.0802   -2.4342   H         1 RES1   0.0000
    87 H48      -1.6851   -2.6921   -1.2399   H         1 RES1   0.0000
    88 H49      -2.2171   -4.5979    0.0731   H         1 RES1   0.0000
    89 H50      -3.0809   -5.3824   -1.2528   H         1 RES1   0.0000
    90 H51      -4.9331   -3.8970   -1.1028   H         1 RES1   0.0000
    91 H52      -4.0236   -2.6930   -0.1974   H         1 RES1   0.0000
    92 H53      -5.6604   -3.8180    1.2194   H         1 RES1   0.0000
    93 H54      -4.0179   -4.0552    1.8008   H         1 RES1   0.0000
    94 H55      -5.2963   -6.1109    2.0051   H         1 RES1   0.0000
    95 H56      -3.9908   -6.3460    0.8479   H         1 RES1   0.0000
    96 H57      -6.8695   -5.7116    0.0489   H         1 RES1   0.0000
    97 H58      -6.1951   -7.3393    0.1280   H         1 RES1   0.0000
    98 H59      -5.5577   -6.1824   -1.0346   H         1 RES1   0.0000
    99 N4        2.2223    0.0581   -1.3581   N.3       1 RES1   0.0000
   100 O3        2.9461    0.4667   -2.2082   O.2       1 RES1   0.0000
   101 O4        1.7490   -1.0889   -1.4087   O.co2     1 RES1   0.0000
   102 O5        1.8840    0.7671   -0.4065   O.co2     1 RES1   0.0000
   103 N5       -1.6969   -1.5082    0.9780   N.3       1 RES1   0.0000
   104 O6       -2.4718   -1.7780    1.8235   O.2       1 RES1   0.0000
   105 O7       -1.8642   -0.5457    0.2013   O.co2     1 RES1   0.0000
   106 O8       -0.6611   -2.1748    0.7692   O.co2     1 RES1   0.0000
@<TRIPOS>BOND
     1     1    14    1
     2     1    17    1
     3     1    24    1
     4     1    26    1
     5     1    39    1
     6     1   101    1
     7     1   102    1
     8     1   105    1
     9     1   106    1
    10     2     3    1
    11     2    40    1
    12     2    41    1
    13     2    42    1
    14     3     4    1
    15     3    43    1
    16     3    44    1
    17     4     5    1
    18     4    45    1
    19     4    46    1
    20     5     6    1
    21     5    47    1
    22     5    48    1
    23     6     7    1
    24     6    49    1
    25     6    50    1
    26     7     8    1
    27     7    51    1
    28     7    52    1
    29     8     9    1
    30     8    53    1
    31     8    54    1
    32     9    10    1
    33     9    55    1
    34     9    56    1
    35    10    11    1
    36    10    57    1
    37    10    58    1
    38    11    12    1
    39    11    59    1
    40    11    60    1
    41    12    13    1
    42    12    61    1
    43    12    62    1
    44    13    14    1
    45    13    63    1
    46    13    64    1
    47    14    15    1
    48    14    65    1
    49    15    16    1
    50    15    66    1
    51    15    67    1
    52    16    17    2
    53    16    18    1
    54    18    19    1
    55    18    39    2
    56    19    20    2
    57    19    68    1
    58    20    21    1
    59    20    69    1
    60    21    22    2
    61    21    70    1
    62    22    23    1
    63    22    39    1
    64    23    24    2
    65    23    25    1
    66    25    26    1
    67    25    71    1
    68    25    72    1
    69    26    27    1
    70    26    73    1
    71    27    28    1
    72    27    74    1
    73    27    75    1
    74    28    29    1
    75    28    76    1
    76    28    77    1
    77    29    30    1
    78    29    78    1
    79    29    79    1
    80    30    31    1
    81    30    80    1
    82    30    81    1
    83    31    32    1
    84    31    82    1
    85    31    83    1
    86    32    33    1
    87    32    84    1
    88    32    85    1
    89    33    34    1
    90    33    86    1
    91    33    87    1
    92    34    35    1
    93    34    88    1
    94    34    89    1
    95    35    36    1
    96    35    90    1
    97    35    91    1
    98    36    37    1
    99    36    92    1
   100    36    93    1
   101    37    38    1
   102    37    94    1
   103    37    95    1
   104    38    96    1
   105    38    97    1
   106    38    98    1
   107    99   100    2
   108    99   101    1
   109    99   102    1
   110   103   104    2
   111   103   105    1
   112   103   106    1
@<TRIPOS>SUBSTRUCTURE
     1 RES1      106 GROUP             0 ****  ****    0  
