@<TRIPOS>MOLECULE
am_c3_9H2O_c0_0_nunpairedes_0_charge_3 Charge: 3 Unpaired_Electrons: 6 XTB_Unpaired_Electrons: 0 XTB_Charge: 3
   340   345     1     0     0
SMALL
NoCharges
****
Generated from Architector

@<TRIPOS>ATOM
     1 Eu1       0.1021    0.0337   -0.2257   Eu        1 RES1   0.0000
     2 C1       -3.4998   -3.8866    3.4842   C.3       1 RES1   0.0000
     3 C2       -4.8219   -3.1966    3.7814   C.3       1 RES1   0.0000
     4 C3       -4.6822   -2.2154    4.9427   C.3       1 RES1   0.0000
     5 C4       -4.0032   -0.8925    4.5893   C.3       1 RES1   0.0000
     6 C5       -4.6767    0.0100    3.5456   C.3       1 RES1   0.0000
     7 C6       -6.1503    0.3357    3.8342   C.3       1 RES1   0.0000
     8 C7       -7.1344   -0.7525    3.4227   C.3       1 RES1   0.0000
     9 C8       -3.9042    1.3505    3.5400   C.3       1 RES1   0.0000
    10 N1       -2.4712    1.2310    3.2749   N.am      1 RES1   0.0000
    11 C9       -1.5373    1.7399    4.2905   C.3       1 RES1   0.0000
    12 C10      -0.3739    0.8688    4.7962   C.3       1 RES1   0.0000
    13 C11       0.7127    1.8505    5.2713   C.3       1 RES1   0.0000
    14 C12       2.0090    1.2016    5.7376   C.3       1 RES1   0.0000
    15 C13      -0.8011   -0.0655    5.9391   C.3       1 RES1   0.0000
    16 C14      -0.0265   -1.3817    5.9454   C.3       1 RES1   0.0000
    17 C15      -0.2636   -2.2116    7.2042   C.3       1 RES1   0.0000
    18 C16      -1.6675   -2.7885    7.2926   C.3       1 RES1   0.0000
    19 C17      -2.0052    0.9921    2.0511   C.2       1 RES1   0.0000
    20 O1       -0.8081    0.7306    1.8270   O.2       1 RES1   0.0000
    21 C18      -2.9388    1.1493    0.8465   C.3       1 RES1   0.0000
    22 O2       -2.4267    0.3886   -0.2440   O.3       1 RES1   0.0000
    23 C19      -2.9602    0.6977   -1.5428   C.3       1 RES1   0.0000
    24 C20      -1.8329    1.3180   -2.3842   C.2       1 RES1   0.0000
    25 O3       -0.7487    1.4453   -1.7953   O.2       1 RES1   0.0000
    26 N2       -2.0008    1.6822   -3.6551   N.am      1 RES1   0.0000
    27 C21      -2.9951    1.0852   -4.5591   C.3       1 RES1   0.0000
    28 C22      -4.5141    1.3948   -4.4543   C.3       1 RES1   0.0000
    29 C23      -5.2174    0.0441   -4.7127   C.3       1 RES1   0.0000
    30 C24      -6.7331    0.0307   -4.5891   C.3       1 RES1   0.0000
    31 C25      -5.0639    2.3589   -5.5229   C.3       1 RES1   0.0000
    32 C26      -4.7587    3.8570   -5.4946   C.3       1 RES1   0.0000
    33 C27      -4.9772    4.5729   -4.1662   C.3       1 RES1   0.0000
    34 C28      -6.4200    4.5152   -3.6848   C.3       1 RES1   0.0000
    35 C29      -0.8231    2.2862   -4.3073   C.3       1 RES1   0.0000
    36 C30      -1.1872    3.5866   -5.0263   C.3       1 RES1   0.0000
    37 C31      -0.2583    3.8849   -6.2127   C.3       1 RES1   0.0000
    38 C32       1.2418    3.8703   -5.9530   C.3       1 RES1   0.0000
    39 C33      -1.4097    4.7454   -4.0401   C.3       1 RES1   0.0000
    40 C34      -0.1780    5.4577   -3.4955   C.3       1 RES1   0.0000
    41 C35      -0.5828    6.5954   -2.5656   C.3       1 RES1   0.0000
    42 C36       0.6246    7.4056   -2.1288   C.3       1 RES1   0.0000
    43 H1       -3.5896   -4.5603    2.6339   H         1 RES1   0.0000
    44 H2       -3.1930   -4.4715    4.3462   H         1 RES1   0.0000
    45 H3       -2.7244   -3.1543    3.2726   H         1 RES1   0.0000
    46 H4       -5.5578   -3.9594    4.0378   H         1 RES1   0.0000
    47 H5       -5.1818   -2.6757    2.8952   H         1 RES1   0.0000
    48 H6       -4.0815   -2.6997    5.7134   H         1 RES1   0.0000
    49 H7       -5.6501   -2.0071    5.3922   H         1 RES1   0.0000
    50 H8       -2.9857   -1.0919    4.2390   H         1 RES1   0.0000
    51 H9       -3.9296   -0.3209    5.5179   H         1 RES1   0.0000
    52 H10      -4.6104   -0.4688    2.5621   H         1 RES1   0.0000
    53 H11      -6.4110    1.2447    3.2869   H         1 RES1   0.0000
    54 H12      -6.2681    0.5553    4.8942   H         1 RES1   0.0000
    55 H13      -6.9338   -1.0832    2.4092   H         1 RES1   0.0000
    56 H14      -8.1485   -0.3679    3.4545   H         1 RES1   0.0000
    57 H15      -7.0988   -1.6160    4.0745   H         1 RES1   0.0000
    58 H16      -4.0044    1.7844    4.5332   H         1 RES1   0.0000
    59 H17      -4.3322    2.0761    2.8435   H         1 RES1   0.0000
    60 H18      -2.1247    2.0148    5.1594   H         1 RES1   0.0000
    61 H19      -1.1087    2.6626    3.8857   H         1 RES1   0.0000
    62 H20       0.0217    0.2735    3.9696   H         1 RES1   0.0000
    63 H21       0.3002    2.4463    6.0876   H         1 RES1   0.0000
    64 H22       0.9418    2.5362    4.4502   H         1 RES1   0.0000
    65 H23       1.8636    0.6578    6.6658   H         1 RES1   0.0000
    66 H24       2.7600    1.9680    5.9197   H         1 RES1   0.0000
    67 H25       2.3917    0.5171    4.9826   H         1 RES1   0.0000
    68 H26      -1.8595   -0.2960    5.8696   H         1 RES1   0.0000
    69 H27      -0.6517    0.4458    6.8906   H         1 RES1   0.0000
    70 H28       1.0385   -1.1749    5.8647   H         1 RES1   0.0000
    71 H29      -0.3178   -1.9675    5.0686   H         1 RES1   0.0000
    72 H30      -0.0703   -1.5880    8.0775   H         1 RES1   0.0000
    73 H31       0.4541   -3.0343    7.2232   H         1 RES1   0.0000
    74 H32      -2.4098   -2.0022    7.3965   H         1 RES1   0.0000
    75 H33      -1.7431   -3.4383    8.1587   H         1 RES1   0.0000
    76 H34      -1.8969   -3.3781    6.4061   H         1 RES1   0.0000
    77 H35      -2.9273    2.2266    0.6240   H         1 RES1   0.0000
    78 H36      -3.9690    0.8568    1.0527   H         1 RES1   0.0000
    79 H37      -3.8275    1.3601   -1.4702   H         1 RES1   0.0000
    80 H38      -3.2700   -0.2578   -1.9857   H         1 RES1   0.0000
    81 H39      -2.8565    0.0042   -4.4306   H         1 RES1   0.0000
    82 H40      -2.6737    1.3345   -5.5718   H         1 RES1   0.0000
    83 H41      -4.7499    1.7705   -3.4554   H         1 RES1   0.0000
    84 H42      -4.8207   -0.7065   -4.0281   H         1 RES1   0.0000
    85 H43      -4.9519   -0.2625   -5.7267   H         1 RES1   0.0000
    86 H44      -7.0579    0.4565   -3.6451   H         1 RES1   0.0000
    87 H45      -7.0856   -0.9953   -4.6486   H         1 RES1   0.0000
    88 H46      -7.2080    0.5766   -5.3952   H         1 RES1   0.0000
    89 H47      -6.1462    2.2779   -5.4704   H         1 RES1   0.0000
    90 H48      -4.7699    1.9683   -6.5015   H         1 RES1   0.0000
    91 H49      -5.4176    4.3140   -6.2352   H         1 RES1   0.0000
    92 H50      -3.7463    4.0434   -5.8410   H         1 RES1   0.0000
    93 H51      -4.7019    5.6196   -4.3122   H         1 RES1   0.0000
    94 H52      -4.3099    4.1594   -3.4066   H         1 RES1   0.0000
    95 H53      -7.0861    4.9098   -4.4474   H         1 RES1   0.0000
    96 H54      -6.5398    5.1186   -2.7887   H         1 RES1   0.0000
    97 H55      -6.7282    3.4984   -3.4529   H         1 RES1   0.0000
    98 H56      -0.4266    1.5453   -5.0098   H         1 RES1   0.0000
    99 H57      -0.0776    2.4776   -3.5341   H         1 RES1   0.0000
   100 H58      -2.1581    3.3997   -5.4847   H         1 RES1   0.0000
   101 H59      -0.5403    4.8539   -6.6254   H         1 RES1   0.0000
   102 H60      -0.4651    3.1349   -6.9808   H         1 RES1   0.0000
   103 H61       1.5609    4.6964   -5.3297   H         1 RES1   0.0000
   104 H62       1.7686    3.9583   -6.9000   H         1 RES1   0.0000
   105 H63       1.5486    2.9417   -5.4843   H         1 RES1   0.0000
   106 H64      -1.9831    4.3564   -3.1927   H         1 RES1   0.0000
   107 H65      -2.0334    5.4977   -4.5289   H         1 RES1   0.0000
   108 H66       0.3850    5.8937   -4.3168   H         1 RES1   0.0000
   109 H67       0.4719    4.7595   -2.9617   H         1 RES1   0.0000
   110 H68      -1.1019    6.2007   -1.6917   H         1 RES1   0.0000
   111 H69      -1.2813    7.2493   -3.0865   H         1 RES1   0.0000
   112 H70       1.3633    6.7647   -1.6541   H         1 RES1   0.0000
   113 H71       0.3292    8.1817   -1.4309   H         1 RES1   0.0000
   114 H72       1.0942    7.8857   -2.9820   H         1 RES1   0.0000
   115 C37       3.0060    9.2005   -0.3070   C.3       1 RES1   0.0000
   116 C38       3.7933    8.9710    0.9724   C.3       1 RES1   0.0000
   117 C39       3.4266    7.6672    1.6811   C.3       1 RES1   0.0000
   118 C40       3.8819    6.4253    0.9130   C.3       1 RES1   0.0000
   119 C41       3.9280    5.1560    1.7761   C.3       1 RES1   0.0000
   120 C42       4.7917    4.0775    1.1066   C.3       1 RES1   0.0000
   121 C43       5.5322    3.2422    2.1471   C.3       1 RES1   0.0000
   122 C44       2.5558    4.6578    2.3141   C.3       1 RES1   0.0000
   123 N3        1.5196    4.1943    1.3850   N.am      1 RES1   0.0000
   124 C45       0.7008    5.2180    0.7184   C.3       1 RES1   0.0000
   125 C46      -0.4775    6.0039    1.3827   C.3       1 RES1   0.0000
   126 C47      -1.8876    5.4707    1.0308   C.3       1 RES1   0.0000
   127 C48      -2.6202    4.5556    2.0016   C.3       1 RES1   0.0000
   128 C49      -0.3350    6.4995    2.8343   C.3       1 RES1   0.0000
   129 C50      -0.3373    5.5258    4.0140   C.3       1 RES1   0.0000
   130 C51      -0.0466    6.2999    5.2995   C.3       1 RES1   0.0000
   131 C52       0.0122    5.3946    6.5181   C.3       1 RES1   0.0000
   132 C53       1.3869    2.9345    0.9743   C.2       1 RES1   0.0000
   133 O4        0.5020    2.5552    0.1889   O.2       1 RES1   0.0000
   134 C54       2.3028    1.8286    1.5261   C.3       1 RES1   0.0000
   135 O5        2.1568    0.6584    0.7128   O.3       1 RES1   0.0000
   136 C55       3.2877    0.2267   -0.0450   C.3       1 RES1   0.0000
   137 C56       2.8225   -0.2508   -1.4314   C.2       1 RES1   0.0000
   138 O6        1.6619    0.0469   -1.7813   O.2       1 RES1   0.0000
   139 N4        3.6709   -0.8515   -2.2614   N.am      1 RES1   0.0000
   140 C57       3.4191   -0.6501   -3.6877   C.3       1 RES1   0.0000
   141 C58       3.5344    0.8453   -4.0648   C.3       1 RES1   0.0000
   142 C59       3.6356    0.9745   -5.5884   C.3       1 RES1   0.0000
   143 C60       2.4990    0.3252   -6.3676   C.3       1 RES1   0.0000
   144 C61       4.7690    1.4861   -3.4018   C.3       1 RES1   0.0000
   145 C62       4.9363    2.9955   -3.6056   C.3       1 RES1   0.0000
   146 C63       3.8293    3.8478   -2.9893   C.3       1 RES1   0.0000
   147 C64       4.1701    5.3295   -3.0814   C.3       1 RES1   0.0000
   148 C65       4.8899   -1.5403   -1.8609   C.3       1 RES1   0.0000
   149 C66       5.1430   -2.8808   -2.5869   C.3       1 RES1   0.0000
   150 C67       6.4135   -3.5179   -1.9946   C.3       1 RES1   0.0000
   151 C68       6.3575   -3.9616   -0.5398   C.3       1 RES1   0.0000
   152 C69       3.9477   -3.8542   -2.6533   C.3       1 RES1   0.0000
   153 C70       3.0391   -3.9338   -1.4297   C.3       1 RES1   0.0000
   154 C71       2.1794   -5.2009   -1.4479   C.3       1 RES1   0.0000
   155 C72       0.8954   -5.0071   -0.6573   C.3       1 RES1   0.0000
   156 H73       3.2648   10.1634   -0.7356   H         1 RES1   0.0000
   157 H74       3.2196    8.4347   -1.0475   H         1 RES1   0.0000
   158 H75       1.9394    9.1991   -0.0970   H         1 RES1   0.0000
   159 H76       4.8610    8.9726    0.7507   H         1 RES1   0.0000
   160 H77       3.6014    9.7996    1.6545   H         1 RES1   0.0000
   161 H78       3.9187    7.6642    2.6566   H         1 RES1   0.0000
   162 H79       2.3489    7.6452    1.8505   H         1 RES1   0.0000
   163 H80       3.2895    6.2649    0.0120   H         1 RES1   0.0000
   164 H81       4.9057    6.6140    0.5850   H         1 RES1   0.0000
   165 H82       4.4613    5.4473    2.6883   H         1 RES1   0.0000
   166 H83       4.1815    3.4748    0.4305   H         1 RES1   0.0000
   167 H84       5.5445    4.5644    0.4856   H         1 RES1   0.0000
   168 H85       4.8616    2.8138    2.8910   H         1 RES1   0.0000
   169 H86       6.1055    2.4455    1.6784   H         1 RES1   0.0000
   170 H87       6.2329    3.8810    2.6785   H         1 RES1   0.0000
   171 H88       2.7274    3.8591    3.0448   H         1 RES1   0.0000
   172 H89       2.1068    5.5003    2.8384   H         1 RES1   0.0000
   173 H90       1.4161    5.9709    0.3955   H         1 RES1   0.0000
   174 H91       0.2926    4.7343   -0.1746   H         1 RES1   0.0000
   175 H92      -0.4329    6.9337    0.7956   H         1 RES1   0.0000
   176 H93      -2.5295    6.3439    0.8882   H         1 RES1   0.0000
   177 H94      -1.8175    4.9577    0.0684   H         1 RES1   0.0000
   178 H95      -2.9020    5.0857    2.9059   H         1 RES1   0.0000
   179 H96      -3.5476    4.2265    1.5324   H         1 RES1   0.0000
   180 H97      -2.0239    3.6838    2.2548   H         1 RES1   0.0000
   181 H98       0.5826    7.0908    2.9021   H         1 RES1   0.0000
   182 H99      -1.1564    7.2026    2.9974   H         1 RES1   0.0000
   183 H100     -1.3094    5.0526    4.1286   H         1 RES1   0.0000
   184 H101      0.4028    4.7364    3.8770   H         1 RES1   0.0000
   185 H102      0.8974    6.8368    5.2008   H         1 RES1   0.0000
   186 H103     -0.8287    7.0466    5.4398   H         1 RES1   0.0000
   187 H104      0.8378    4.6927    6.4311   H         1 RES1   0.0000
   188 H105      0.1609    5.9830    7.4172   H         1 RES1   0.0000
   189 H106     -0.9161    4.8386    6.6291   H         1 RES1   0.0000
   190 H107      3.3444    2.1262    1.5840   H         1 RES1   0.0000
   191 H108      1.9328    1.5616    2.5260   H         1 RES1   0.0000
   192 H109      3.9890    1.0516   -0.2273   H         1 RES1   0.0000
   193 H110      3.8022   -0.5650    0.5052   H         1 RES1   0.0000
   194 H111      4.1484   -1.2201   -4.2582   H         1 RES1   0.0000
   195 H112      2.4179   -1.0233   -3.9155   H         1 RES1   0.0000
   196 H113      2.6339    1.3524   -3.7031   H         1 RES1   0.0000
   197 H114      3.6634    2.0325   -5.8445   H         1 RES1   0.0000
   198 H115      4.5821    0.5375   -5.9108   H         1 RES1   0.0000
   199 H116      1.5309    0.6831   -6.0242   H         1 RES1   0.0000
   200 H117      2.5963    0.5795   -7.4196   H         1 RES1   0.0000
   201 H118      2.5194   -0.7580   -6.2864   H         1 RES1   0.0000
   202 H119      4.7436    1.3126   -2.3211   H         1 RES1   0.0000
   203 H120      5.6600    0.9887   -3.7947   H         1 RES1   0.0000
   204 H121      5.8857    3.2781   -3.1440   H         1 RES1   0.0000
   205 H122      5.0199    3.2269   -4.6666   H         1 RES1   0.0000
   206 H123      2.8881    3.6656   -3.5075   H         1 RES1   0.0000
   207 H124      3.6869    3.5734   -1.9396   H         1 RES1   0.0000
   208 H125      4.3225    5.6192   -4.1173   H         1 RES1   0.0000
   209 H126      3.3667    5.9392   -2.6758   H         1 RES1   0.0000
   210 H127      5.0829    5.5543   -2.5345   H         1 RES1   0.0000
   211 H128      5.7537   -0.8906   -2.0472   H         1 RES1   0.0000
   212 H129      4.8267   -1.7221   -0.7892   H         1 RES1   0.0000
   213 H130      5.4038   -2.6607   -3.6288   H         1 RES1   0.0000
   214 H131      6.6552   -4.3872   -2.6036   H         1 RES1   0.0000
   215 H132      7.2319   -2.8052   -2.1082   H         1 RES1   0.0000
   216 H133      5.5835   -4.7045   -0.3826   H         1 RES1   0.0000
   217 H134      7.3073   -4.4180   -0.2761   H         1 RES1   0.0000
   218 H135      6.2022   -3.1256    0.1370   H         1 RES1   0.0000
   219 H136      3.3185   -3.6025   -3.5113   H         1 RES1   0.0000
   220 H137      4.3578   -4.8488   -2.8404   H         1 RES1   0.0000
   221 H138      3.6379   -3.9415   -0.5263   H         1 RES1   0.0000
   222 H139      2.3840   -3.0569   -1.3922   H         1 RES1   0.0000
   223 H140      1.9265   -5.4740   -2.4666   H         1 RES1   0.0000
   224 H141      2.7472   -6.0372   -1.0382   H         1 RES1   0.0000
   225 H142      0.3033   -4.2063   -1.1013   H         1 RES1   0.0000
   226 H143      0.3089   -5.9235   -0.6344   H         1 RES1   0.0000
   227 H144      1.1258   -4.7268    0.3659   H         1 RES1   0.0000
   228 C73       5.1680   -7.4275    0.7034   C.3       1 RES1   0.0000
   229 C74       4.6596   -7.8920    2.0600   C.3       1 RES1   0.0000
   230 C75       3.9146   -6.8081    2.8439   C.3       1 RES1   0.0000
   231 C76       2.5582   -6.4633    2.2226   C.3       1 RES1   0.0000
   232 C77       1.5825   -5.7527    3.1758   C.3       1 RES1   0.0000
   233 C78       0.1288   -6.0016    2.7490   C.3       1 RES1   0.0000
   234 C79      -0.8260   -5.9611    3.9328   C.3       1 RES1   0.0000
   235 C80       1.8711   -4.2631    3.5294   C.3       1 RES1   0.0000
   236 N5        2.1781   -3.2942    2.4711   N.am      1 RES1   0.0000
   237 C81       3.5709   -3.2900    2.0009   C.3       1 RES1   0.0000
   238 C82       4.8021   -2.8476    2.8591   C.3       1 RES1   0.0000
   239 C83       5.3006   -1.4217    2.5610   C.3       1 RES1   0.0000
   240 C84       4.4290   -0.2491    2.9920   C.3       1 RES1   0.0000
   241 C85       4.8959   -3.1776    4.3610   C.3       1 RES1   0.0000
   242 C86       4.0956   -2.3675    5.3801   C.3       1 RES1   0.0000
   243 C87       4.3544   -2.9004    6.7867   C.3       1 RES1   0.0000
   244 C88       3.6455   -2.0673    7.8418   C.3       1 RES1   0.0000
   245 C89       1.2849   -2.5835    1.7789   C.2       1 RES1   0.0000
   246 O7        1.5760   -1.8631    0.8015   O.2       1 RES1   0.0000
   247 C90      -0.1859   -2.5108    2.2193   C.3       1 RES1   0.0000
   248 O8       -0.9376   -1.8827    1.1766   O.3       1 RES1   0.0000
   249 C91      -2.0685   -2.5659    0.6548   C.3       1 RES1   0.0000
   250 C92      -2.0674   -2.4080   -0.8772   C.2       1 RES1   0.0000
   251 O9       -1.1214   -1.7848   -1.3989   O.2       1 RES1   0.0000
   252 N6       -3.0834   -2.9193   -1.5687   N.am      1 RES1   0.0000
   253 C93      -3.0641   -2.9084   -3.0386   C.3       1 RES1   0.0000
   254 C94      -1.9205   -3.5912   -3.8190   C.3       1 RES1   0.0000
   255 C95      -2.3469   -3.5953   -5.2999   C.3       1 RES1   0.0000
   256 C96      -2.3170   -2.2482   -6.0059   C.3       1 RES1   0.0000
   257 C97      -1.6667   -5.0350   -3.3720   C.3       1 RES1   0.0000
   258 C98      -0.6439   -5.8030   -4.2338   C.3       1 RES1   0.0000
   259 C99       0.5925   -5.0151   -4.6757   C.3       1 RES1   0.0000
   260 C100      1.6817   -5.9409   -5.2074   C.3       1 RES1   0.0000
   261 C101     -4.2818   -3.4934   -0.9377   C.3       1 RES1   0.0000
   262 C102     -5.6464   -3.0281   -1.5042   C.3       1 RES1   0.0000
   263 C103     -6.7747   -3.8906   -0.9094   C.3       1 RES1   0.0000
   264 C104     -7.0809   -3.8111    0.5805   C.3       1 RES1   0.0000
   265 C105     -5.9410   -1.5154   -1.5420   C.3       1 RES1   0.0000
   266 C106     -6.1812   -0.6620   -0.2972   C.3       1 RES1   0.0000
   267 C107     -6.5448    0.7570   -0.7530   C.3       1 RES1   0.0000
   268 C108     -6.7082    1.7797    0.3612   C.3       1 RES1   0.0000
   269 H145      5.6887   -8.2386    0.2036   H         1 RES1   0.0000
   270 H146      4.3509   -7.1121    0.0588   H         1 RES1   0.0000
   271 H147      5.8686   -6.6045    0.8229   H         1 RES1   0.0000
   272 H148      4.0039   -8.7543    1.9288   H         1 RES1   0.0000
   273 H149      5.5132   -8.2207    2.6529   H         1 RES1   0.0000
   274 H150      3.7403   -7.1857    3.8537   H         1 RES1   0.0000
   275 H151      4.5475   -5.9224    2.9265   H         1 RES1   0.0000
   276 H152      2.6755   -5.9103    1.2932   H         1 RES1   0.0000
   277 H153      2.0880   -7.4135    1.9625   H         1 RES1   0.0000
   278 H154      1.6957   -6.2652    4.1368   H         1 RES1   0.0000
   279 H155     -0.1659   -5.2941    1.9753   H         1 RES1   0.0000
   280 H156      0.0570   -6.9940    2.3040   H         1 RES1   0.0000
   281 H157     -0.8539   -4.9828    4.4074   H         1 RES1   0.0000
   282 H158     -1.8299   -6.2234    3.6142   H         1 RES1   0.0000
   283 H159     -0.5109   -6.6830    4.6808   H         1 RES1   0.0000
   284 H160      1.0348   -3.8714    4.1143   H         1 RES1   0.0000
   285 H161      2.7512   -4.2509    4.1655   H         1 RES1   0.0000
   286 H162      3.7714   -4.3179    1.6981   H         1 RES1   0.0000
   287 H163      3.5646   -2.6664    1.1045   H         1 RES1   0.0000
   288 H164      5.5868   -3.4786    2.4152   H         1 RES1   0.0000
   289 H165      6.2754   -1.3139    3.0407   H         1 RES1   0.0000
   290 H166      5.4755   -1.3528    1.4816   H         1 RES1   0.0000
   291 H167      4.5823   -0.0031    4.0365   H         1 RES1   0.0000
   292 H168      4.7185    0.6277    2.4217   H         1 RES1   0.0000
   293 H169      3.3727   -0.4558    2.8340   H         1 RES1   0.0000
   294 H170      4.6921   -4.2411    4.5087   H         1 RES1   0.0000
   295 H171      5.9506   -3.0401    4.6147   H         1 RES1   0.0000
   296 H172      4.4183   -1.3307    5.3714   H         1 RES1   0.0000
   297 H173      3.0260   -2.3845    5.1637   H         1 RES1   0.0000
   298 H174      4.0317   -3.9392    6.8580   H         1 RES1   0.0000
   299 H175      5.4281   -2.8806    6.9748   H         1 RES1   0.0000
   300 H176      2.5688   -2.0992    7.6999   H         1 RES1   0.0000
   301 H177      3.8696   -2.4448    8.8335   H         1 RES1   0.0000
   302 H178      3.9709   -1.0310    7.7962   H         1 RES1   0.0000
   303 H179     -0.6047   -3.4780    2.4917   H         1 RES1   0.0000
   304 H180     -0.2162   -1.8331    3.0865   H         1 RES1   0.0000
   305 H181     -2.0570   -3.6311    0.9085   H         1 RES1   0.0000
   306 H182     -2.9759   -2.1040    1.0734   H         1 RES1   0.0000
   307 H183     -3.9854   -3.3929   -3.3545   H         1 RES1   0.0000
   308 H184     -3.0812   -1.8637   -3.3579   H         1 RES1   0.0000
   309 H185     -1.0023   -3.0104   -3.6818   H         1 RES1   0.0000
   310 H186     -1.6942   -4.2626   -5.8542   H         1 RES1   0.0000
   311 H187     -3.3522   -4.0149   -5.3663   H         1 RES1   0.0000
   312 H188     -1.3633   -1.7487   -5.8480   H         1 RES1   0.0000
   313 H189     -2.4496   -2.4025   -7.0735   H         1 RES1   0.0000
   314 H190     -3.1222   -1.6017   -5.6747   H         1 RES1   0.0000
   315 H191     -1.3219   -5.0287   -2.3359   H         1 RES1   0.0000
   316 H192     -2.6113   -5.5864   -3.4002   H         1 RES1   0.0000
   317 H193     -0.3136   -6.6596   -3.6445   H         1 RES1   0.0000
   318 H194     -1.1356   -6.2090   -5.1190   H         1 RES1   0.0000
   319 H195      0.3375   -4.3088   -5.4645   H         1 RES1   0.0000
   320 H196      0.9743   -4.4332   -3.8373   H         1 RES1   0.0000
   321 H197      1.3258   -6.4817   -6.0797   H         1 RES1   0.0000
   322 H198      2.5620   -5.3732   -5.5028   H         1 RES1   0.0000
   323 H199      1.9792   -6.6746   -4.4611   H         1 RES1   0.0000
   324 H200     -4.2282   -4.5800   -1.0735   H         1 RES1   0.0000
   325 H201     -4.2537   -3.2889    0.1288   H         1 RES1   0.0000
   326 H202     -5.6570   -3.3015   -2.5670   H         1 RES1   0.0000
   327 H203     -7.6842   -3.6373   -1.4531   H         1 RES1   0.0000
   328 H204     -6.5344   -4.9293   -1.1451   H         1 RES1   0.0000
   329 H205     -7.4859   -2.8487    0.8715   H         1 RES1   0.0000
   330 H206     -7.8459   -4.5496    0.8049   H         1 RES1   0.0000
   331 H207     -6.2153   -4.0330    1.1974   H         1 RES1   0.0000
   332 H208     -5.1354   -1.0339   -2.0980   H         1 RES1   0.0000
   333 H209     -6.8416   -1.4181   -2.1501   H         1 RES1   0.0000
   334 H210     -7.0198   -1.0462    0.2750   H         1 RES1   0.0000
   335 H211     -5.2986   -0.6635    0.3477   H         1 RES1   0.0000
   336 H212     -5.7961    1.1197   -1.4604   H         1 RES1   0.0000
   337 H213     -7.4869    0.7025   -1.2987   H         1 RES1   0.0000
   338 H214     -5.7883    1.9108    0.9281   H         1 RES1   0.0000
   339 H215     -6.9815    2.7426   -0.0641   H         1 RES1   0.0000
   340 H216     -7.4972    1.4848    1.0452   H         1 RES1   0.0000
@<TRIPOS>BOND
     1     1    20    1
     2     1    22    1
     3     1    25    1
     4     1   133    1
     5     1   135    1
     6     1   138    1
     7     1   246    1
     8     1   248    1
     9     1   251    1
    10     2     3    1
    11     2    43    1
    12     2    44    1
    13     2    45    1
    14     3     4    1
    15     3    46    1
    16     3    47    1
    17     4     5    1
    18     4    48    1
    19     4    49    1
    20     5     6    1
    21     5    50    1
    22     5    51    1
    23     6     7    1
    24     6     9    1
    25     6    52    1
    26     7     8    1
    27     7    53    1
    28     7    54    1
    29     8    55    1
    30     8    56    1
    31     8    57    1
    32     9    10    1
    33     9    58    1
    34     9    59    1
    35    10    11    1
    36    10    19    1
    37    11    12    1
    38    11    60    1
    39    11    61    1
    40    12    13    1
    41    12    15    1
    42    12    62    1
    43    13    14    1
    44    13    63    1
    45    13    64    1
    46    14    65    1
    47    14    66    1
    48    14    67    1
    49    15    16    1
    50    15    68    1
    51    15    69    1
    52    16    17    1
    53    16    70    1
    54    16    71    1
    55    17    18    1
    56    17    72    1
    57    17    73    1
    58    18    74    1
    59    18    75    1
    60    18    76    1
    61    19    20    2
    62    19    21    1
    63    21    22    1
    64    21    77    1
    65    21    78    1
    66    22    23    1
    67    23    24    1
    68    23    79    1
    69    23    80    1
    70    24    25    2
    71    24    26    1
    72    26    27    1
    73    26    35    1
    74    27    28    1
    75    27    81    1
    76    27    82    1
    77    28    29    1
    78    28    31    1
    79    28    83    1
    80    29    30    1
    81    29    84    1
    82    29    85    1
    83    30    86    1
    84    30    87    1
    85    30    88    1
    86    31    32    1
    87    31    89    1
    88    31    90    1
    89    32    33    1
    90    32    91    1
    91    32    92    1
    92    33    34    1
    93    33    93    1
    94    33    94    1
    95    34    95    1
    96    34    96    1
    97    34    97    1
    98    35    36    1
    99    35    98    1
   100    35    99    1
   101    36    37    1
   102    36    39    1
   103    36   100    1
   104    37    38    1
   105    37   101    1
   106    37   102    1
   107    38   103    1
   108    38   104    1
   109    38   105    1
   110    39    40    1
   111    39   106    1
   112    39   107    1
   113    40    41    1
   114    40   108    1
   115    40   109    1
   116    41    42    1
   117    41   110    1
   118    41   111    1
   119    42   112    1
   120    42   113    1
   121    42   114    1
   122   115   116    1
   123   115   156    1
   124   115   157    1
   125   115   158    1
   126   116   117    1
   127   116   159    1
   128   116   160    1
   129   117   118    1
   130   117   161    1
   131   117   162    1
   132   118   119    1
   133   118   163    1
   134   118   164    1
   135   119   120    1
   136   119   122    1
   137   119   165    1
   138   120   121    1
   139   120   166    1
   140   120   167    1
   141   121   168    1
   142   121   169    1
   143   121   170    1
   144   122   123    1
   145   122   171    1
   146   122   172    1
   147   123   124    1
   148   123   132    1
   149   124   125    1
   150   124   173    1
   151   124   174    1
   152   125   126    1
   153   125   128    1
   154   125   175    1
   155   126   127    1
   156   126   176    1
   157   126   177    1
   158   127   178    1
   159   127   179    1
   160   127   180    1
   161   128   129    1
   162   128   181    1
   163   128   182    1
   164   129   130    1
   165   129   183    1
   166   129   184    1
   167   130   131    1
   168   130   185    1
   169   130   186    1
   170   131   187    1
   171   131   188    1
   172   131   189    1
   173   132   133    2
   174   132   134    1
   175   134   135    1
   176   134   190    1
   177   134   191    1
   178   135   136    1
   179   136   137    1
   180   136   192    1
   181   136   193    1
   182   137   138    2
   183   137   139    1
   184   139   140    1
   185   139   148    1
   186   140   141    1
   187   140   194    1
   188   140   195    1
   189   141   142    1
   190   141   144    1
   191   141   196    1
   192   142   143    1
   193   142   197    1
   194   142   198    1
   195   143   199    1
   196   143   200    1
   197   143   201    1
   198   144   145    1
   199   144   202    1
   200   144   203    1
   201   145   146    1
   202   145   204    1
   203   145   205    1
   204   146   147    1
   205   146   206    1
   206   146   207    1
   207   147   208    1
   208   147   209    1
   209   147   210    1
   210   148   149    1
   211   148   211    1
   212   148   212    1
   213   149   150    1
   214   149   152    1
   215   149   213    1
   216   150   151    1
   217   150   214    1
   218   150   215    1
   219   151   216    1
   220   151   217    1
   221   151   218    1
   222   152   153    1
   223   152   219    1
   224   152   220    1
   225   153   154    1
   226   153   221    1
   227   153   222    1
   228   154   155    1
   229   154   223    1
   230   154   224    1
   231   155   225    1
   232   155   226    1
   233   155   227    1
   234   228   229    1
   235   228   269    1
   236   228   270    1
   237   228   271    1
   238   229   230    1
   239   229   272    1
   240   229   273    1
   241   230   231    1
   242   230   274    1
   243   230   275    1
   244   231   232    1
   245   231   276    1
   246   231   277    1
   247   232   233    1
   248   232   235    1
   249   232   278    1
   250   233   234    1
   251   233   279    1
   252   233   280    1
   253   234   281    1
   254   234   282    1
   255   234   283    1
   256   235   236    1
   257   235   284    1
   258   235   285    1
   259   236   237    1
   260   236   245    1
   261   237   238    1
   262   237   286    1
   263   237   287    1
   264   238   239    1
   265   238   241    1
   266   238   288    1
   267   239   240    1
   268   239   289    1
   269   239   290    1
   270   240   291    1
   271   240   292    1
   272   240   293    1
   273   241   242    1
   274   241   294    1
   275   241   295    1
   276   242   243    1
   277   242   296    1
   278   242   297    1
   279   243   244    1
   280   243   298    1
   281   243   299    1
   282   244   300    1
   283   244   301    1
   284   244   302    1
   285   245   246    2
   286   245   247    1
   287   247   248    1
   288   247   303    1
   289   247   304    1
   290   248   249    1
   291   249   250    1
   292   249   305    1
   293   249   306    1
   294   250   251    2
   295   250   252    1
   296   252   253    1
   297   252   261    1
   298   253   254    1
   299   253   307    1
   300   253   308    1
   301   254   255    1
   302   254   257    1
   303   254   309    1
   304   255   256    1
   305   255   310    1
   306   255   311    1
   307   256   312    1
   308   256   313    1
   309   256   314    1
   310   257   258    1
   311   257   315    1
   312   257   316    1
   313   258   259    1
   314   258   317    1
   315   258   318    1
   316   259   260    1
   317   259   319    1
   318   259   320    1
   319   260   321    1
   320   260   322    1
   321   260   323    1
   322   261   262    1
   323   261   324    1
   324   261   325    1
   325   262   263    1
   326   262   265    1
   327   262   326    1
   328   263   264    1
   329   263   327    1
   330   263   328    1
   331   264   329    1
   332   264   330    1
   333   264   331    1
   334   265   266    1
   335   265   332    1
   336   265   333    1
   337   266   267    1
   338   266   334    1
   339   266   335    1
   340   267   268    1
   341   267   336    1
   342   267   337    1
   343   268   338    1
   344   268   339    1
   345   268   340    1
@<TRIPOS>SUBSTRUCTURE
     1 RES1      340 GROUP             0 ****  ****    0  
