@<TRIPOS>MOLECULE
am_c3_9H2O_c0_0_nunpairedes_0_charge_3 Charge: 3 Unpaired_Electrons: 6 XTB_Unpaired_Electrons: 0 XTB_Charge: 3
   124   129     1     0     0
SMALL
NoCharges
****
Generated from Architector

@<TRIPOS>ATOM
     1 Eu1      -0.1212   -0.0488   -0.0951   Eu        1 RES1   0.0000
     2 C1       -0.1417    3.3823   -3.8137   C.3       1 RES1   0.0000
     3 C2       -1.5039    3.6069   -3.1730   C.3       1 RES1   0.0000
     4 N1       -1.4341    3.8498   -1.7309   N.am      1 RES1   0.0000
     5 C3       -1.6529    5.2197   -1.2916   C.3       1 RES1   0.0000
     6 C4       -3.1267    5.6136   -1.3030   C.3       1 RES1   0.0000
     7 C5       -1.2439    2.8255   -0.9122   C.2       1 RES1   0.0000
     8 O1       -0.8897    1.7055   -1.3269   O.2       1 RES1   0.0000
     9 C6       -1.4586    3.0301    0.5996   C.3       1 RES1   0.0000
    10 O2       -1.3803    1.7935    1.3067   O.3       1 RES1   0.0000
    11 C7       -2.6061    1.3003    1.8540   C.3       1 RES1   0.0000
    12 C8       -3.1810    0.1959    0.9448   C.2       1 RES1   0.0000
    13 O3       -2.4824   -0.1563   -0.0205   O.2       1 RES1   0.0000
    14 N2       -4.3330   -0.3837    1.2374   N.am      1 RES1   0.0000
    15 C9       -5.2012   -0.0040    2.3385   C.3       1 RES1   0.0000
    16 C10      -6.3955    0.8149    1.8577   C.3       1 RES1   0.0000
    17 C11      -4.8082   -1.4595    0.3647   C.3       1 RES1   0.0000
    18 C12      -5.2652   -0.9658   -1.0017   C.3       1 RES1   0.0000
    19 H1       -0.2611    3.3411   -4.8920   H         1 RES1   0.0000
    20 H2        0.5298    4.2072   -3.5879   H         1 RES1   0.0000
    21 H3        0.2901    2.4447   -3.4706   H         1 RES1   0.0000
    22 H4       -1.9825    4.4789   -3.6140   H         1 RES1   0.0000
    23 H5       -2.1370    2.7337   -3.3427   H         1 RES1   0.0000
    24 H6       -1.2307    5.3524   -0.2936   H         1 RES1   0.0000
    25 H7       -1.0953    5.8649   -1.9754   H         1 RES1   0.0000
    26 H8       -3.7192    4.9156   -0.7193   H         1 RES1   0.0000
    27 H9       -3.2378    6.6047   -0.8762   H         1 RES1   0.0000
    28 H10      -3.5286    5.6432   -2.3111   H         1 RES1   0.0000
    29 H11      -0.6543    3.6593    0.9968   H         1 RES1   0.0000
    30 H12      -2.4158    3.5245    0.7841   H         1 RES1   0.0000
    31 H13      -2.3362    0.8458    2.8154   H         1 RES1   0.0000
    32 H14      -3.3111    2.1165    2.0353   H         1 RES1   0.0000
    33 H15      -5.5573   -0.9200    2.8168   H         1 RES1   0.0000
    34 H16      -4.6293    0.5590    3.0768   H         1 RES1   0.0000
    35 H17      -7.0780    0.2166    1.2610   H         1 RES1   0.0000
    36 H18      -6.9428    1.1888    2.7166   H         1 RES1   0.0000
    37 H19      -6.0622    1.6602    1.2620   H         1 RES1   0.0000
    38 H20      -3.9935   -2.1774    0.2324   H         1 RES1   0.0000
    39 H21      -5.6323   -1.9500    0.8803   H         1 RES1   0.0000
    40 H22      -4.4369   -0.5297   -1.5533   H         1 RES1   0.0000
    41 H23      -5.6544   -1.8091   -1.5650   H         1 RES1   0.0000
    42 H24      -6.0504   -0.2230   -0.9047   H         1 RES1   0.0000
    43 C13       1.3025   -0.2882    4.9907   C.3       1 RES1   0.0000
    44 C14       2.6007   -0.0910    4.2163   C.3       1 RES1   0.0000
    45 N3        2.5764    1.1420    3.4289   N.am      1 RES1   0.0000
    46 C15       3.0281    2.3564    4.1055   C.3       1 RES1   0.0000
    47 C16       4.4379    2.8069    3.7318   C.3       1 RES1   0.0000
    48 C17       2.0614    1.1243    2.2041   C.2       1 RES1   0.0000
    49 O4        1.5219    0.1249    1.6932   O.2       1 RES1   0.0000
    50 C18       2.1819    2.3948    1.3658   C.3       1 RES1   0.0000
    51 O5        1.4765    2.2324    0.1415   O.3       1 RES1   0.0000
    52 C19       2.2131    2.5171   -1.0460   C.3       1 RES1   0.0000
    53 C20       2.2291    1.2837   -1.9577   C.2       1 RES1   0.0000
    54 O6        1.6799    0.2395   -1.5522   O.2       1 RES1   0.0000
    55 N4        2.8165    1.3735   -3.1424   N.am      1 RES1   0.0000
    56 C21       3.4491    2.5798   -3.6621   C.3       1 RES1   0.0000
    57 C22       4.9660    2.5672   -3.4975   C.3       1 RES1   0.0000
    58 C23       2.8716    0.1802   -3.9918   C.3       1 RES1   0.0000
    59 C24       3.8491   -0.8634   -3.4635   C.3       1 RES1   0.0000
    60 H25       1.3525   -1.2090    5.5636   H         1 RES1   0.0000
    61 H26       1.1347    0.5259    5.6908   H         1 RES1   0.0000
    62 H27       0.4681   -0.3366    4.2949   H         1 RES1   0.0000
    63 H28       3.4474   -0.0358    4.9036   H         1 RES1   0.0000
    64 H29       2.7649   -0.9243    3.5291   H         1 RES1   0.0000
    65 H30       2.3113    3.1625    3.9230   H         1 RES1   0.0000
    66 H31       3.0058    2.1458    5.1763   H         1 RES1   0.0000
    67 H32       4.4950    3.2182    2.7294   H         1 RES1   0.0000
    68 H33       4.7525    3.5832    4.4226   H         1 RES1   0.0000
    69 H34       5.1417    1.9858    3.8166   H         1 RES1   0.0000
    70 H35       1.7603    3.2447    1.9152   H         1 RES1   0.0000
    71 H36       3.2451    2.5743    1.1780   H         1 RES1   0.0000
    72 H37       1.7084    3.3417   -1.5618   H         1 RES1   0.0000
    73 H38       3.2419    2.8089   -0.8106   H         1 RES1   0.0000
    74 H39       3.2011    2.6578   -4.7242   H         1 RES1   0.0000
    75 H40       3.0335    3.4569   -3.1656   H         1 RES1   0.0000
    76 H41       5.4316    1.8006   -4.1088   H         1 RES1   0.0000
    77 H42       5.3674    3.5256   -3.8117   H         1 RES1   0.0000
    78 H43       5.2359    2.4010   -2.4591   H         1 RES1   0.0000
    79 H44       1.8654   -0.2467   -4.0458   H         1 RES1   0.0000
    80 H45       3.1763    0.4962   -4.9903   H         1 RES1   0.0000
    81 H46       3.5483   -1.2049   -2.4759   H         1 RES1   0.0000
    82 H47       3.8754   -1.7086   -4.1456   H         1 RES1   0.0000
    83 H48       4.8516   -0.4525   -3.3950   H         1 RES1   0.0000
    84 C25      -2.7634   -3.0438    3.2325   C.3       1 RES1   0.0000
    85 C26      -1.4723   -2.6482    3.9360   C.3       1 RES1   0.0000
    86 N5       -0.2887   -3.0686    3.1793   N.am      1 RES1   0.0000
    87 C27       0.4999   -4.1717    3.7146   C.3       1 RES1   0.0000
    88 C28      -0.0497   -5.5384    3.3169   C.3       1 RES1   0.0000
    89 C29      -0.0381   -2.4777    2.0197   C.2       1 RES1   0.0000
    90 O7       -0.7144   -1.5128    1.6102   O.2       1 RES1   0.0000
    91 C30       1.1322   -2.9749    1.1579   C.3       1 RES1   0.0000
    92 O8        1.1437   -2.2707   -0.0793   O.3       1 RES1   0.0000
    93 C31       1.1034   -3.0437   -1.2812   C.3       1 RES1   0.0000
    94 C32      -0.0379   -2.4896   -2.1486   C.2       1 RES1   0.0000
    95 O9       -0.6381   -1.4812   -1.7295   O.2       1 RES1   0.0000
    96 N6       -0.3757   -3.0745   -3.2873   N.am      1 RES1   0.0000
    97 C33       0.3158   -4.2218   -3.8585   C.3       1 RES1   0.0000
    98 C34      -0.2722   -5.5554   -3.4073   C.3       1 RES1   0.0000
    99 C35      -1.5891   -2.5790   -3.9479   C.3       1 RES1   0.0000
   100 C36      -2.8344   -2.8982   -3.1284   C.3       1 RES1   0.0000
   101 H49      -3.6138   -2.7290    3.8285   H         1 RES1   0.0000
   102 H50      -2.8151   -4.1196    3.1046   H         1 RES1   0.0000
   103 H51      -2.8159   -2.5702    2.2567   H         1 RES1   0.0000
   104 H52      -1.4238   -3.1077    4.9223   H         1 RES1   0.0000
   105 H53      -1.4395   -1.5621    4.0571   H         1 RES1   0.0000
   106 H54       0.4947   -4.0900    4.8035   H         1 RES1   0.0000
   107 H55       1.5359   -4.0681    3.3846   H         1 RES1   0.0000
   108 H56      -1.0444   -5.6991    3.7206   H         1 RES1   0.0000
   109 H57       0.5985   -6.3119    3.7154   H         1 RES1   0.0000
   110 H58      -0.0933   -5.6442    2.2371   H         1 RES1   0.0000
   111 H59       1.0613   -4.0545    1.0001   H         1 RES1   0.0000
   112 H60       2.0716   -2.7433    1.6789   H         1 RES1   0.0000
   113 H61       0.9421   -4.1047   -1.0701   H         1 RES1   0.0000
   114 H62       2.0667   -2.9281   -1.7966   H         1 RES1   0.0000
   115 H63       1.3728   -4.1668   -3.5892   H         1 RES1   0.0000
   116 H64       0.2506   -4.1516   -4.9472   H         1 RES1   0.0000
   117 H65      -0.2737   -5.6364   -2.3250   H         1 RES1   0.0000
   118 H66       0.3301   -6.3619   -3.8128   H         1 RES1   0.0000
   119 H67      -1.2906   -5.6801   -3.7609   H         1 RES1   0.0000
   120 H68      -1.6511   -3.0309   -4.9375   H         1 RES1   0.0000
   121 H69      -1.4992   -1.4947   -4.0542   H         1 RES1   0.0000
   122 H70      -2.9204   -3.9675   -2.9629   H         1 RES1   0.0000
   123 H71      -3.7126   -2.5513   -3.6631   H         1 RES1   0.0000
   124 H72      -2.7940   -2.3944   -2.1654   H         1 RES1   0.0000
@<TRIPOS>BOND
     1     1     8    1
     2     1    10    1
     3     1    13    1
     4     1    49    1
     5     1    51    1
     6     1    54    1
     7     1    90    1
     8     1    92    1
     9     1    95    1
    10     2     3    1
    11     2    19    1
    12     2    20    1
    13     2    21    1
    14     3     4    1
    15     3    22    1
    16     3    23    1
    17     4     5    1
    18     4     7    1
    19     5     6    1
    20     5    24    1
    21     5    25    1
    22     6    26    1
    23     6    27    1
    24     6    28    1
    25     7     8    2
    26     7     9    1
    27     9    10    1
    28     9    29    1
    29     9    30    1
    30    10    11    1
    31    11    12    1
    32    11    31    1
    33    11    32    1
    34    12    13    2
    35    12    14    1
    36    14    15    1
    37    14    17    1
    38    15    16    1
    39    15    33    1
    40    15    34    1
    41    16    35    1
    42    16    36    1
    43    16    37    1
    44    17    18    1
    45    17    38    1
    46    17    39    1
    47    18    40    1
    48    18    41    1
    49    18    42    1
    50    43    44    1
    51    43    60    1
    52    43    61    1
    53    43    62    1
    54    44    45    1
    55    44    63    1
    56    44    64    1
    57    45    46    1
    58    45    48    1
    59    46    47    1
    60    46    65    1
    61    46    66    1
    62    47    67    1
    63    47    68    1
    64    47    69    1
    65    48    49    2
    66    48    50    1
    67    50    51    1
    68    50    70    1
    69    50    71    1
    70    51    52    1
    71    52    53    1
    72    52    72    1
    73    52    73    1
    74    53    54    2
    75    53    55    1
    76    55    56    1
    77    55    58    1
    78    56    57    1
    79    56    74    1
    80    56    75    1
    81    57    76    1
    82    57    77    1
    83    57    78    1
    84    58    59    1
    85    58    79    1
    86    58    80    1
    87    59    81    1
    88    59    82    1
    89    59    83    1
    90    84    85    1
    91    84   101    1
    92    84   102    1
    93    84   103    1
    94    85    86    1
    95    85   104    1
    96    85   105    1
    97    86    87    1
    98    86    89    1
    99    87    88    1
   100    87   106    1
   101    87   107    1
   102    88   108    1
   103    88   109    1
   104    88   110    1
   105    89    90    2
   106    89    91    1
   107    91    92    1
   108    91   111    1
   109    91   112    1
   110    92    93    1
   111    93    94    1
   112    93   113    1
   113    93   114    1
   114    94    95    2
   115    94    96    1
   116    96    97    1
   117    96    99    1
   118    97    98    1
   119    97   115    1
   120    97   116    1
   121    98   117    1
   122    98   118    1
   123    98   119    1
   124    99   100    1
   125    99   120    1
   126    99   121    1
   127   100   122    1
   128   100   123    1
   129   100   124    1
@<TRIPOS>SUBSTRUCTURE
     1 RES1      124 GROUP             0 ****  ****    0  
