@<TRIPOS>MOLECULE
cn9_YICLED_0_nunpairedes_0_charge_3 Charge: 3 Unpaired_Electrons: 6 XTB_Unpaired_Electrons: 0 XTB_Charge: 3
   199   207     1     0     0
SMALL
NoCharges
****
Generated from Architector

@<TRIPOS>ATOM
     1 Eu1       0.0131   -0.1044   -0.2011   Eu        1 RES1   0.0000
     2 C1       -4.8222   -2.4193   -3.5321   C.3       1 RES1   0.0000
     3 C2       -4.0057   -3.6937   -3.6950   C.3       1 RES1   0.0000
     4 C3       -4.2283   -4.7255   -2.5896   C.3       1 RES1   0.0000
     5 C4       -3.7520   -4.3424   -1.1802   C.3       1 RES1   0.0000
     6 C5       -2.2613   -3.9766   -1.0969   C.3       1 RES1   0.0000
     7 C6       -1.5693   -4.4460    0.2028   C.3       1 RES1   0.0000
     8 N1       -2.0596   -3.6467    1.3130   N.am      1 RES1   0.0000
     9 C7       -3.1213   -4.1716    2.1569   C.3       1 RES1   0.0000
    10 C8       -2.6089   -4.8476    3.4408   C.3       1 RES1   0.0000
    11 C9       -1.9611   -3.9633    4.5163   C.3       1 RES1   0.0000
    12 C10      -0.4804   -3.6122    4.3220   C.3       1 RES1   0.0000
    13 C11       0.4436   -4.8286    4.3348   C.3       1 RES1   0.0000
    14 C12       1.9103   -4.4248    4.2671   C.3       1 RES1   0.0000
    15 C13      -1.5622   -2.4296    1.4331   C.2       1 RES1   0.0000
    16 O1       -0.4791   -2.0565    0.9362   O.2       1 RES1   0.0000
    17 C14      -2.4543   -1.3632    2.0600   C.3       1 RES1   0.0000
    18 O2       -1.7894   -0.1165    1.9769   O.3       1 RES1   0.0000
    19 C15      -1.5130    0.4994    3.2196   C.3       1 RES1   0.0000
    20 C16      -0.1751    1.2250    3.0849   C.2       1 RES1   0.0000
    21 O3        0.4898    1.0250    2.0498   O.2       1 RES1   0.0000
    22 N2        0.1943    1.9945    4.0916   N.am      1 RES1   0.0000
    23 C17      -0.5393    2.1515    5.3428   C.3       1 RES1   0.0000
    24 C18      -0.8281    3.6269    5.6082   C.3       1 RES1   0.0000
    25 C19       0.4832    4.3959    5.6641   C.3       1 RES1   0.0000
    26 C20       1.2304    4.2087    4.3491   C.3       1 RES1   0.0000
    27 C21       1.4542    2.7241    4.0608   C.3       1 RES1   0.0000
    28 H1       -4.8193   -1.8521   -4.4592   H         1 RES1   0.0000
    29 H2       -4.3995   -1.7909   -2.7564   H         1 RES1   0.0000
    30 H3       -5.8557   -2.6466   -3.2836   H         1 RES1   0.0000
    31 H4       -2.9467   -3.4368   -3.7611   H         1 RES1   0.0000
    32 H5       -4.2900   -4.1591   -4.6387   H         1 RES1   0.0000
    33 H6       -3.7236   -5.6485   -2.8846   H         1 RES1   0.0000
    34 H7       -5.2957   -4.9490   -2.5244   H         1 RES1   0.0000
    35 H8       -3.9317   -5.2181   -0.5531   H         1 RES1   0.0000
    36 H9       -4.3704   -3.5336   -0.7858   H         1 RES1   0.0000
    37 H10      -2.1151   -2.8931   -1.1986   H         1 RES1   0.0000
    38 H11      -1.7592   -4.4443   -1.9410   H         1 RES1   0.0000
    39 H12      -0.4864   -4.3047    0.1286   H         1 RES1   0.0000
    40 H13      -1.7708   -5.4974    0.4010   H         1 RES1   0.0000
    41 H14      -3.6433   -4.9288    1.5695   H         1 RES1   0.0000
    42 H15      -3.8247   -3.3753    2.4000   H         1 RES1   0.0000
    43 H16      -1.9135   -5.6380    3.1654   H         1 RES1   0.0000
    44 H17      -3.4780   -5.3303    3.8937   H         1 RES1   0.0000
    45 H18      -2.0346   -4.5016    5.4641   H         1 RES1   0.0000
    46 H19      -2.5457   -3.0463    4.6399   H         1 RES1   0.0000
    47 H20      -0.1848   -2.9611    5.1488   H         1 RES1   0.0000
    48 H21      -0.3188   -3.0492    3.3995   H         1 RES1   0.0000
    49 H22       0.2188   -5.4813    3.4911   H         1 RES1   0.0000
    50 H23       0.2738   -5.3980    5.2475   H         1 RES1   0.0000
    51 H24       2.1107   -3.8538    3.3606   H         1 RES1   0.0000
    52 H25       2.5457   -5.3056    4.2648   H         1 RES1   0.0000
    53 H26       2.1846   -3.8165    5.1251   H         1 RES1   0.0000
    54 H27      -2.7505   -1.5882    3.0812   H         1 RES1   0.0000
    55 H28      -3.3265   -1.3089    1.3989   H         1 RES1   0.0000
    56 H29      -1.4288   -0.2488    4.0138   H         1 RES1   0.0000
    57 H30      -2.3220    1.1990    3.4691   H         1 RES1   0.0000
    58 H31       0.0980    1.7516    6.1389   H         1 RES1   0.0000
    59 H32      -1.4685    1.5860    5.3328   H         1 RES1   0.0000
    60 H33      -1.3641    3.7056    6.5514   H         1 RES1   0.0000
    61 H34      -1.4683    4.0300    4.8197   H         1 RES1   0.0000
    62 H35       1.0876    4.0288    6.4945   H         1 RES1   0.0000
    63 H36       0.2873    5.4519    5.8352   H         1 RES1   0.0000
    64 H37       2.1988    4.7027    4.4035   H         1 RES1   0.0000
    65 H38       0.6566    4.6664    3.5404   H         1 RES1   0.0000
    66 H39       2.1055    2.2957    4.8291   H         1 RES1   0.0000
    67 H40       1.9075    2.5723    3.0783   H         1 RES1   0.0000
    68 C22       5.7637    4.3969   -2.4420   C.3       1 RES1   0.0000
    69 C23       5.6947    2.9082   -2.7636   C.3       1 RES1   0.0000
    70 C24       5.2401    2.6471   -4.2001   C.3       1 RES1   0.0000
    71 C25       3.7264    2.7858   -4.4056   C.3       1 RES1   0.0000
    72 C26       2.9392    1.5457   -3.9663   C.3       1 RES1   0.0000
    73 C27       1.4953    1.5262   -4.4858   C.3       1 RES1   0.0000
    74 N3        0.6077    2.3881   -3.7068   N.am      1 RES1   0.0000
    75 C28       0.1958    3.6621   -4.2856   C.3       1 RES1   0.0000
    76 C29      -0.7729    3.4767   -5.4634   C.3       1 RES1   0.0000
    77 C30      -2.1480    2.8650   -5.1643   C.3       1 RES1   0.0000
    78 C31      -2.2013    1.3637   -4.8548   C.3       1 RES1   0.0000
    79 C32      -1.6625    0.4788   -5.9765   C.3       1 RES1   0.0000
    80 C33      -1.6987   -0.9914   -5.5844   C.3       1 RES1   0.0000
    81 C34       0.0645    1.8777   -2.6140   C.2       1 RES1   0.0000
    82 O4        0.1617    0.6809   -2.2804   O.2       1 RES1   0.0000
    83 C35      -0.7136    2.8288   -1.6983   C.3       1 RES1   0.0000
    84 O5       -0.9907    2.2035   -0.4443   O.3       1 RES1   0.0000
    85 C36      -2.3521    2.2549   -0.0513   C.3       1 RES1   0.0000
    86 C37      -3.0542    0.9338   -0.3997   C.2       1 RES1   0.0000
    87 O6       -2.3361   -0.0269   -0.7489   O.2       1 RES1   0.0000
    88 N4       -4.3641    0.8479   -0.2452   N.am      1 RES1   0.0000
    89 C38      -5.2640    1.9252    0.1416   C.3       1 RES1   0.0000
    90 C39      -6.0617    1.5196    1.3807   C.3       1 RES1   0.0000
    91 C40      -6.8550    0.2526    1.0841   C.3       1 RES1   0.0000
    92 C41      -5.9023   -0.8566    0.6586   C.3       1 RES1   0.0000
    93 C42      -5.0584   -0.4026   -0.5311   C.3       1 RES1   0.0000
    94 H41       6.1213    4.5625   -1.4276   H         1 RES1   0.0000
    95 H42       4.7960    4.8806   -2.5547   H         1 RES1   0.0000
    96 H43       6.4560    4.8926   -3.1157   H         1 RES1   0.0000
    97 H44       5.0175    2.3963   -2.0742   H         1 RES1   0.0000
    98 H45       6.6900    2.4859   -2.6226   H         1 RES1   0.0000
    99 H46       5.5441    1.6442   -4.5068   H         1 RES1   0.0000
   100 H47       5.7545    3.3538   -4.8528   H         1 RES1   0.0000
   101 H48       3.5428    2.9472   -5.4701   H         1 RES1   0.0000
   102 H49       3.3658    3.6658   -3.8711   H         1 RES1   0.0000
   103 H50       2.9225    1.4493   -2.8775   H         1 RES1   0.0000
   104 H51       3.4366    0.6619   -4.3706   H         1 RES1   0.0000
   105 H52       1.0992    0.5081   -4.4278   H         1 RES1   0.0000
   106 H53       1.4893    1.8512   -5.5247   H         1 RES1   0.0000
   107 H54       1.0948    4.1734   -4.6404   H         1 RES1   0.0000
   108 H55      -0.2621    4.2989   -3.5274   H         1 RES1   0.0000
   109 H56      -0.2853    2.8884   -6.2382   H         1 RES1   0.0000
   110 H57      -0.9353    4.4731   -5.8773   H         1 RES1   0.0000
   111 H58      -2.7492    3.0276   -6.0609   H         1 RES1   0.0000
   112 H59      -2.6321    3.4234   -4.3561   H         1 RES1   0.0000
   113 H60      -3.2488    1.1000   -4.6933   H         1 RES1   0.0000
   114 H61      -1.6778    1.1228   -3.9283   H         1 RES1   0.0000
   115 H62      -0.6359    0.7511   -6.2143   H         1 RES1   0.0000
   116 H63      -2.2592    0.6302   -6.8754   H         1 RES1   0.0000
   117 H64      -1.1339   -1.1554   -4.6666   H         1 RES1   0.0000
   118 H65      -1.2699   -1.6052   -6.3712   H         1 RES1   0.0000
   119 H66      -2.7206   -1.3197   -5.4200   H         1 RES1   0.0000
   120 H67      -1.6382    3.1288   -2.1973   H         1 RES1   0.0000
   121 H68      -0.1025    3.7156   -1.4943   H         1 RES1   0.0000
   122 H69      -2.8438    3.1180   -0.5078   H         1 RES1   0.0000
   123 H70      -2.3579    2.3728    1.0401   H         1 RES1   0.0000
   124 H71      -5.9567    2.0864   -0.6906   H         1 RES1   0.0000
   125 H72      -4.7239    2.8519    0.3253   H         1 RES1   0.0000
   126 H73      -6.7367    2.3351    1.6328   H         1 RES1   0.0000
   127 H74      -5.3828    1.3586    2.2229   H         1 RES1   0.0000
   128 H75      -7.5710    0.4500    0.2864   H         1 RES1   0.0000
   129 H76      -7.4148   -0.0544    1.9648   H         1 RES1   0.0000
   130 H77      -6.4592   -1.7454    0.3637   H         1 RES1   0.0000
   131 H78      -5.2671   -1.1193    1.5084   H         1 RES1   0.0000
   132 H79      -5.7116   -0.2383   -1.3930   H         1 RES1   0.0000
   133 H80      -4.3123   -1.1542   -0.7975   H         1 RES1   0.0000
   134 C43      -0.8524   -8.1020    0.8296   C.3       1 RES1   0.0000
   135 C44      -1.1024   -8.2490   -0.6684   C.3       1 RES1   0.0000
   136 C45       0.1722   -8.3582   -1.5130   C.3       1 RES1   0.0000
   137 C46       1.0847   -7.1217   -1.5296   C.3       1 RES1   0.0000
   138 C47       0.3744   -5.9350   -2.1797   C.3       1 RES1   0.0000
   139 C48       1.1220   -4.6150   -2.4597   C.3       1 RES1   0.0000
   140 N5        1.9390   -4.0274   -1.3931   N.am      1 RES1   0.0000
   141 C49       3.1659   -4.7417   -1.0412   C.3       1 RES1   0.0000
   142 C50       4.1449   -4.9069   -2.2103   C.3       1 RES1   0.0000
   143 C51       4.8765   -3.6477   -2.6876   C.3       1 RES1   0.0000
   144 C52       4.0683   -2.6302   -3.5020   C.3       1 RES1   0.0000
   145 C53       3.6587   -3.1300   -4.8869   C.3       1 RES1   0.0000
   146 C54       2.7938   -2.1094   -5.6135   C.3       1 RES1   0.0000
   147 C55       1.6966   -2.7857   -0.9935   C.2       1 RES1   0.0000
   148 O7        0.7622   -2.0732   -1.4081   O.2       1 RES1   0.0000
   149 C56       2.6260   -2.2011    0.0834   C.3       1 RES1   0.0000
   150 O8        2.2239   -0.8611    0.2989   O.3       1 RES1   0.0000
   151 C57       3.2246   -0.0139    0.8406   C.3       1 RES1   0.0000
   152 C58       2.8764    1.3929    0.3424   C.2       1 RES1   0.0000
   153 O9        1.8195    1.5211   -0.3051   O.2       1 RES1   0.0000
   154 N6        3.6809    2.4033    0.6136   N.am      1 RES1   0.0000
   155 C59       5.0044    2.3272    1.2141   C.3       1 RES1   0.0000
   156 C60       5.1160    3.2829    2.4008   C.3       1 RES1   0.0000
   157 C61       4.8103    4.7051    1.9486   C.3       1 RES1   0.0000
   158 C62       3.4277    4.7527    1.3092   C.3       1 RES1   0.0000
   159 C63       3.3234    3.7456    0.1676   C.3       1 RES1   0.0000
   160 H81      -1.7970   -8.0584    1.3692   H         1 RES1   0.0000
   161 H82      -0.2808   -7.2054    1.0626   H         1 RES1   0.0000
   162 H83      -0.3043   -8.9598    1.2086   H         1 RES1   0.0000
   163 H84      -1.7315   -7.4312   -1.0281   H         1 RES1   0.0000
   164 H85      -1.6674   -9.1683   -0.8203   H         1 RES1   0.0000
   165 H86      -0.1112   -8.5947   -2.5413   H         1 RES1   0.0000
   166 H87       0.7577   -9.1962   -1.1343   H         1 RES1   0.0000
   167 H88       1.9910   -7.3696   -2.0848   H         1 RES1   0.0000
   168 H89       1.3642   -6.8831   -0.5014   H         1 RES1   0.0000
   169 H90      -0.5013   -5.7477   -1.5736   H         1 RES1   0.0000
   170 H91       0.0180   -6.2627   -3.1597   H         1 RES1   0.0000
   171 H92       0.3862   -3.8550   -2.7425   H         1 RES1   0.0000
   172 H93       1.7654   -4.7613   -3.3260   H         1 RES1   0.0000
   173 H94       2.8666   -5.7302   -0.6980   H         1 RES1   0.0000
   174 H95       3.6680   -4.2541   -0.2075   H         1 RES1   0.0000
   175 H96       3.6368   -5.3816   -3.0467   H         1 RES1   0.0000
   176 H97       4.8972   -5.6159   -1.8618   H         1 RES1   0.0000
   177 H98       5.6993   -3.9892   -3.3186   H         1 RES1   0.0000
   178 H99       5.3262   -3.1506   -1.8217   H         1 RES1   0.0000
   179 H100      4.7039   -1.7530   -3.6413   H         1 RES1   0.0000
   180 H101      3.1808   -2.2977   -2.9576   H         1 RES1   0.0000
   181 H102      3.1055   -4.0651   -4.8099   H         1 RES1   0.0000
   182 H103      4.5517   -3.3327   -5.4771   H         1 RES1   0.0000
   183 H104      1.9117   -1.8682   -5.0222   H         1 RES1   0.0000
   184 H105      2.4689   -2.4983   -6.5739   H         1 RES1   0.0000
   185 H106      3.3503   -1.1936   -5.7963   H         1 RES1   0.0000
   186 H107      3.6648   -2.2236   -0.2616   H         1 RES1   0.0000
   187 H108      2.5192   -2.7821    1.0113   H         1 RES1   0.0000
   188 H109      4.2182   -0.3232    0.4997   H         1 RES1   0.0000
   189 H110      3.1991   -0.0457    1.9389   H         1 RES1   0.0000
   190 H111      5.7199    2.6294    0.4409   H         1 RES1   0.0000
   191 H112      5.2369    1.3097    1.5243   H         1 RES1   0.0000
   192 H113      6.1291    3.2191    2.7933   H         1 RES1   0.0000
   193 H114      4.4248    2.9788    3.1901   H         1 RES1   0.0000
   194 H115      5.5630    5.0307    1.2296   H         1 RES1   0.0000
   195 H116      4.8519    5.3817    2.8002   H         1 RES1   0.0000
   196 H117      3.2358    5.7462    0.9066   H         1 RES1   0.0000
   197 H118      2.6696    4.5433    2.0634   H         1 RES1   0.0000
   198 H119      4.0108    4.0276   -0.6306   H         1 RES1   0.0000
   199 H120      2.3074    3.7128   -0.2309   H         1 RES1   0.0000
@<TRIPOS>BOND
     1     1    16    1
     2     1    18    1
     3     1    21    1
     4     1    82    1
     5     1    84    1
     6     1    87    1
     7     1   148    1
     8     1   150    1
     9     1   153    1
    10     2     3    1
    11     2    28    1
    12     2    29    1
    13     2    30    1
    14     3     4    1
    15     3    31    1
    16     3    32    1
    17     4     5    1
    18     4    33    1
    19     4    34    1
    20     5     6    1
    21     5    35    1
    22     5    36    1
    23     6     7    1
    24     6    37    1
    25     6    38    1
    26     7     8    1
    27     7    39    1
    28     7    40    1
    29     8     9    1
    30     8    15    1
    31     9    10    1
    32     9    41    1
    33     9    42    1
    34    10    11    1
    35    10    43    1
    36    10    44    1
    37    11    12    1
    38    11    45    1
    39    11    46    1
    40    12    13    1
    41    12    47    1
    42    12    48    1
    43    13    14    1
    44    13    49    1
    45    13    50    1
    46    14    51    1
    47    14    52    1
    48    14    53    1
    49    15    16    2
    50    15    17    1
    51    17    18    1
    52    17    54    1
    53    17    55    1
    54    18    19    1
    55    19    20    1
    56    19    56    1
    57    19    57    1
    58    20    21    2
    59    20    22    1
    60    22    23    1
    61    22    27    1
    62    23    24    1
    63    23    58    1
    64    23    59    1
    65    24    25    1
    66    24    60    1
    67    24    61    1
    68    25    26    1
    69    25    62    1
    70    25    63    1
    71    26    27    1
    72    26    64    1
    73    26    65    1
    74    27    66    1
    75    27    67    1
    76    68    69    1
    77    68    94    1
    78    68    95    1
    79    68    96    1
    80    69    70    1
    81    69    97    1
    82    69    98    1
    83    70    71    1
    84    70    99    1
    85    70   100    1
    86    71    72    1
    87    71   101    1
    88    71   102    1
    89    72    73    1
    90    72   103    1
    91    72   104    1
    92    73    74    1
    93    73   105    1
    94    73   106    1
    95    74    75    1
    96    74    81    1
    97    75    76    1
    98    75   107    1
    99    75   108    1
   100    76    77    1
   101    76   109    1
   102    76   110    1
   103    77    78    1
   104    77   111    1
   105    77   112    1
   106    78    79    1
   107    78   113    1
   108    78   114    1
   109    79    80    1
   110    79   115    1
   111    79   116    1
   112    80   117    1
   113    80   118    1
   114    80   119    1
   115    81    82    2
   116    81    83    1
   117    83    84    1
   118    83   120    1
   119    83   121    1
   120    84    85    1
   121    85    86    1
   122    85   122    1
   123    85   123    1
   124    86    87    2
   125    86    88    1
   126    88    89    1
   127    88    93    1
   128    89    90    1
   129    89   124    1
   130    89   125    1
   131    90    91    1
   132    90   126    1
   133    90   127    1
   134    91    92    1
   135    91   128    1
   136    91   129    1
   137    92    93    1
   138    92   130    1
   139    92   131    1
   140    93   132    1
   141    93   133    1
   142   134   135    1
   143   134   160    1
   144   134   161    1
   145   134   162    1
   146   135   136    1
   147   135   163    1
   148   135   164    1
   149   136   137    1
   150   136   165    1
   151   136   166    1
   152   137   138    1
   153   137   167    1
   154   137   168    1
   155   138   139    1
   156   138   169    1
   157   138   170    1
   158   139   140    1
   159   139   171    1
   160   139   172    1
   161   140   141    1
   162   140   147    1
   163   141   142    1
   164   141   173    1
   165   141   174    1
   166   142   143    1
   167   142   175    1
   168   142   176    1
   169   143   144    1
   170   143   177    1
   171   143   178    1
   172   144   145    1
   173   144   179    1
   174   144   180    1
   175   145   146    1
   176   145   181    1
   177   145   182    1
   178   146   183    1
   179   146   184    1
   180   146   185    1
   181   147   148    2
   182   147   149    1
   183   149   150    1
   184   149   186    1
   185   149   187    1
   186   150   151    1
   187   151   152    1
   188   151   188    1
   189   151   189    1
   190   152   153    2
   191   152   154    1
   192   154   155    1
   193   154   159    1
   194   155   156    1
   195   155   190    1
   196   155   191    1
   197   156   157    1
   198   156   192    1
   199   156   193    1
   200   157   158    1
   201   157   194    1
   202   157   195    1
   203   158   159    1
   204   158   196    1
   205   158   197    1
   206   159   198    1
   207   159   199    1
@<TRIPOS>SUBSTRUCTURE
     1 RES1      199 GROUP             0 ****  ****    0  
