@<TRIPOS>MOLECULE
tri_tri_mer_capped_0_nunpairedes_0_charge_3 Charge: 3 Unpaired_Electrons: 6 XTB_Unpaired_Electrons: 0 XTB_Charge: 3
   358   363     1     0     0
SMALL
NoCharges
****
Generated from Architector

@<TRIPOS>ATOM
     1 Eu1       0.0248   -0.1733    0.1693   Eu        1 RES1   0.0000
     2 C1       -5.7102   -6.6112    3.8101   C.3       1 RES1   0.0000
     3 C2       -4.1881   -6.6916    3.8460   C.3       1 RES1   0.0000
     4 C3       -3.5410   -6.6796    2.4588   C.3       1 RES1   0.0000
     5 C4       -3.7299   -5.3580    1.7001   C.3       1 RES1   0.0000
     6 C5       -2.4361   -4.5738    1.4200   C.3       1 RES1   0.0000
     7 C6       -2.7368   -3.4374    0.4346   C.3       1 RES1   0.0000
     8 C7       -2.9256   -3.9332   -0.9916   C.3       1 RES1   0.0000
     9 C8       -1.8244   -4.0158    2.7178   C.3       1 RES1   0.0000
    10 N1       -0.3630   -4.0369    2.7740   N.am      1 RES1   0.0000
    11 C9        0.2478   -5.3173    3.1181   C.3       1 RES1   0.0000
    12 C10       0.5484   -5.6185    4.6022   C.3       1 RES1   0.0000
    13 C11      -0.6724   -6.1580    5.3776   C.3       1 RES1   0.0000
    14 C12      -1.4141   -5.1041    6.1898   C.3       1 RES1   0.0000
    15 C13       1.7234   -6.6283    4.6660   C.3       1 RES1   0.0000
    16 C14       2.9760   -6.0438    5.3231   C.3       1 RES1   0.0000
    17 C15       4.0053   -7.0985    5.7353   C.3       1 RES1   0.0000
    18 C16       4.5115   -7.9552    4.5818   C.3       1 RES1   0.0000
    19 C17       0.3131   -2.9562    2.3581   C.2       1 RES1   0.0000
    20 O1       -0.2541   -2.0240    1.7567   O.2       1 RES1   0.0000
    21 C18       1.7713   -2.7952    2.7627   C.3       1 RES1   0.0000
    22 C19       2.6176   -1.9928    1.7679   C.3       1 RES1   0.0000
    23 O2        2.1537   -0.6437    1.6108   O.3       1 RES1   0.0000
    24 C20       3.2052    0.3248    1.5241   C.3       1 RES1   0.0000
    25 C21       2.9012    1.5982    2.3257   C.3       1 RES1   0.0000
    26 C22       1.9755    2.6199    1.6819   C.2       1 RES1   0.0000
    27 O3        0.9905    2.2117    1.0312   O.2       1 RES1   0.0000
    28 N2        2.1545    3.9293    1.9618   N.am      1 RES1   0.0000
    29 C23       3.4675    4.4292    2.4243   C.3       1 RES1   0.0000
    30 C24       3.8316    5.9144    2.2060   C.3       1 RES1   0.0000
    31 C25       3.7398    6.3540    0.7412   C.3       1 RES1   0.0000
    32 C26       3.7681    7.8748    0.5960   C.3       1 RES1   0.0000
    33 C27       5.2062    6.2360    2.8449   C.3       1 RES1   0.0000
    34 C28       6.4674    5.9435    2.0285   C.3       1 RES1   0.0000
    35 C29       7.7158    6.6228    2.6051   C.3       1 RES1   0.0000
    36 C30       8.1590    6.0585    3.9495   C.3       1 RES1   0.0000
    37 C31       0.9080    4.7202    1.8030   C.3       1 RES1   0.0000
    38 C32       0.7514    6.1636    2.3118   C.3       1 RES1   0.0000
    39 C33       0.9467    6.3004    3.8247   C.3       1 RES1   0.0000
    40 C34       1.1159    7.7475    4.2758   C.3       1 RES1   0.0000
    41 C35      -0.6228    6.7148    1.8817   C.3       1 RES1   0.0000
    42 C36      -1.8600    6.0424    2.4698   C.3       1 RES1   0.0000
    43 C37      -3.1557    6.7425    2.0458   C.3       1 RES1   0.0000
    44 C38      -3.4298    6.7348    0.5443   C.3       1 RES1   0.0000
    45 H1       -6.1073   -6.7777    4.8082   H         1 RES1   0.0000
    46 H2       -6.1240   -7.3674    3.1469   H         1 RES1   0.0000
    47 H3       -6.0517   -5.6332    3.4771   H         1 RES1   0.0000
    48 H4       -3.9003   -7.6192    4.3450   H         1 RES1   0.0000
    49 H5       -3.8064   -5.8586    4.4408   H         1 RES1   0.0000
    50 H6       -3.9583   -7.5062    1.8835   H         1 RES1   0.0000
    51 H7       -2.4741   -6.8875    2.5634   H         1 RES1   0.0000
    52 H8       -4.4102   -4.7155    2.2578   H         1 RES1   0.0000
    53 H9       -4.2164   -5.5652    0.7474   H         1 RES1   0.0000
    54 H10      -1.7135   -5.2573    0.9662   H         1 RES1   0.0000
    55 H11      -1.9280   -2.6976    0.4457   H         1 RES1   0.0000
    56 H12      -3.6447   -2.9388    0.7807   H         1 RES1   0.0000
    57 H13      -3.5179   -3.2194   -1.5451   H         1 RES1   0.0000
    58 H14      -3.4396   -4.8898   -1.0205   H         1 RES1   0.0000
    59 H15      -1.9647   -4.0353   -1.4842   H         1 RES1   0.0000
    60 H16      -2.1773   -4.6009    3.5626   H         1 RES1   0.0000
    61 H17      -2.1431   -2.9813    2.8559   H         1 RES1   0.0000
    62 H18       1.1721   -5.4041    2.5450   H         1 RES1   0.0000
    63 H19      -0.4237   -6.0988    2.7528   H         1 RES1   0.0000
    64 H20       0.8693   -4.6871    5.0777   H         1 RES1   0.0000
    65 H21      -0.3355   -6.9189    6.0808   H         1 RES1   0.0000
    66 H22      -1.3657   -6.6517    4.6975   H         1 RES1   0.0000
    67 H23      -0.7422   -4.6553    6.9178   H         1 RES1   0.0000
    68 H24      -2.2364   -5.5619    6.7346   H         1 RES1   0.0000
    69 H25      -1.8233   -4.3174    5.5635   H         1 RES1   0.0000
    70 H26       1.9725   -6.9795    3.6637   H         1 RES1   0.0000
    71 H27       1.4166   -7.5051    5.2336   H         1 RES1   0.0000
    72 H28       2.6783   -5.5030    6.2228   H         1 RES1   0.0000
    73 H29       3.4481   -5.3281    4.6434   H         1 RES1   0.0000
    74 H30       3.5699   -7.7440    6.4991   H         1 RES1   0.0000
    75 H31       4.8532   -6.5828    6.1897   H         1 RES1   0.0000
    76 H32       3.7147   -8.5690    4.1701   H         1 RES1   0.0000
    77 H33       5.2956   -8.6213    4.9307   H         1 RES1   0.0000
    78 H34       4.9238   -7.3333    3.7889   H         1 RES1   0.0000
    79 H35       2.2697   -3.7443    2.9477   H         1 RES1   0.0000
    80 H36       1.7596   -2.2570    3.7173   H         1 RES1   0.0000
    81 H37       2.6273   -2.4873    0.7885   H         1 RES1   0.0000
    82 H38       3.6423   -1.9752    2.1540   H         1 RES1   0.0000
    83 H39       3.3829    0.5613    0.4692   H         1 RES1   0.0000
    84 H40       4.1248   -0.1068    1.9452   H         1 RES1   0.0000
    85 H41       3.8489    2.0383    2.6216   H         1 RES1   0.0000
    86 H42       2.3725    1.2939    3.2375   H         1 RES1   0.0000
    87 H43       4.2289    3.8438    1.9017   H         1 RES1   0.0000
    88 H44       3.5519    4.2316    3.5006   H         1 RES1   0.0000
    89 H45       3.1350    6.5199    2.7775   H         1 RES1   0.0000
    90 H46       4.5680    5.9366    0.1659   H         1 RES1   0.0000
    91 H47       2.8126    5.9683    0.3113   H         1 RES1   0.0000
    92 H48       2.9675    8.3427    1.1664   H         1 RES1   0.0000
    93 H49       3.6433    8.1565   -0.4468   H         1 RES1   0.0000
    94 H50       4.7116    8.2839    0.9456   H         1 RES1   0.0000
    95 H51       5.2740    5.7131    3.8003   H         1 RES1   0.0000
    96 H52       5.1994    7.3025    3.0739   H         1 RES1   0.0000
    97 H53       6.3466    6.3140    1.0100   H         1 RES1   0.0000
    98 H54       6.6453    4.8676    1.9852   H         1 RES1   0.0000
    99 H55       7.5291    7.6949    2.6998   H         1 RES1   0.0000
   100 H56       8.5305    6.4955    1.8881   H         1 RES1   0.0000
   101 H57       7.3960    6.2018    4.7107   H         1 RES1   0.0000
   102 H58       9.0629    6.5613    4.2832   H         1 RES1   0.0000
   103 H59       8.3746    4.9948    3.8646   H         1 RES1   0.0000
   104 H60       0.1453    4.1214    2.3138   H         1 RES1   0.0000
   105 H61       0.6686    4.7182    0.7346   H         1 RES1   0.0000
   106 H62       1.4668    6.8047    1.8020   H         1 RES1   0.0000
   107 H63       1.8155    5.7266    4.1435   H         1 RES1   0.0000
   108 H64       0.0795    5.8840    4.3334   H         1 RES1   0.0000
   109 H65       0.1905    8.3046    4.1664   H         1 RES1   0.0000
   110 H66       1.4030    7.7830    5.3232   H         1 RES1   0.0000
   111 H67       1.8885    8.2528    3.7016   H         1 RES1   0.0000
   112 H68      -0.6835    6.6773    0.7956   H         1 RES1   0.0000
   113 H69      -0.6471    7.7663    2.1667   H         1 RES1   0.0000
   114 H70      -1.8222    6.0810    3.5581   H         1 RES1   0.0000
   115 H71      -1.8965    4.9943    2.1685   H         1 RES1   0.0000
   116 H72      -3.1199    7.7789    2.3838   H         1 RES1   0.0000
   117 H73      -3.9939    6.2601    2.5550   H         1 RES1   0.0000
   118 H74      -2.6900    7.3189    0.0026   H         1 RES1   0.0000
   119 H75      -4.4029    7.1805    0.3489   H         1 RES1   0.0000
   120 H76      -3.4351    5.7204    0.1432   H         1 RES1   0.0000
   121 C39       3.3885   -8.6569    0.1900   C.3       1 RES1   0.0000
   122 C40       2.2475   -9.1430   -0.6981   C.3       1 RES1   0.0000
   123 C41       0.8580   -8.7853   -0.1680   C.3       1 RES1   0.0000
   124 C42       0.5722   -7.2867   -0.0146   C.3       1 RES1   0.0000
   125 C43       0.5912   -6.4549   -1.3108   C.3       1 RES1   0.0000
   126 C44      -0.7523   -6.5228   -2.0535   C.3       1 RES1   0.0000
   127 C45      -0.9658   -7.7901   -2.8766   C.3       1 RES1   0.0000
   128 C46       0.9453   -5.0011   -0.9532   C.3       1 RES1   0.0000
   129 N3        1.3254   -4.0887   -2.0512   N.am      1 RES1   0.0000
   130 C47       1.5958   -4.5876   -3.3980   C.3       1 RES1   0.0000
   131 C48       3.0542   -4.7190   -3.8824   C.3       1 RES1   0.0000
   132 C49       3.9116   -5.6090   -2.9731   C.3       1 RES1   0.0000
   133 C50       4.5462   -4.8462   -1.8141   C.3       1 RES1   0.0000
   134 C51       2.9896   -5.2656   -5.3209   C.3       1 RES1   0.0000
   135 C52       2.4813   -4.2543   -6.3522   C.3       1 RES1   0.0000
   136 C53       2.2451   -4.8804   -7.7300   C.3       1 RES1   0.0000
   137 C54       1.0427   -5.8188   -7.7639   C.3       1 RES1   0.0000
   138 C55       1.3242   -2.7847   -1.7741   C.2       1 RES1   0.0000
   139 O4        0.8863   -2.3185   -0.6944   O.2       1 RES1   0.0000
   140 C56       1.8915   -1.7955   -2.7748   C.3       1 RES1   0.0000
   141 C57       0.7350   -1.0467   -3.4373   C.3       1 RES1   0.0000
   142 O5        0.1853   -0.1114   -2.5131   O.3       1 RES1   0.0000
   143 C58      -0.0495    1.1809   -3.0567   C.3       1 RES1   0.0000
   144 C59       1.2446    1.9095   -3.4097   C.3       1 RES1   0.0000
   145 C60       2.1285    2.0954   -2.1824   C.2       1 RES1   0.0000
   146 O6        2.0075    1.3030   -1.2242   O.2       1 RES1   0.0000
   147 N4        3.0623    3.0466   -2.2337   N.am      1 RES1   0.0000
   148 C61       3.1022    4.1210   -3.2257   C.3       1 RES1   0.0000
   149 C62       2.2884    5.3795   -2.8354   C.3       1 RES1   0.0000
   150 C63       0.9151    5.0305   -2.2520   C.3       1 RES1   0.0000
   151 C64       0.1007    6.2549   -1.8481   C.3       1 RES1   0.0000
   152 C65       2.2090    6.3554   -4.0264   C.3       1 RES1   0.0000
   153 C66       1.3088    5.9296   -5.1926   C.3       1 RES1   0.0000
   154 C67       0.8723    7.1070   -6.0765   C.3       1 RES1   0.0000
   155 C68       2.0151    7.8005   -6.8088   C.3       1 RES1   0.0000
   156 C69       4.0672    3.1307   -1.1793   C.3       1 RES1   0.0000
   157 C70       5.5068    2.8210   -1.6414   C.3       1 RES1   0.0000
   158 C71       5.6229    1.4725   -2.3633   C.3       1 RES1   0.0000
   159 C72       5.2865    1.5277   -3.8483   C.3       1 RES1   0.0000
   160 C73       6.4811    2.9189   -0.4457   C.3       1 RES1   0.0000
   161 C74       6.7192    1.6280    0.3409   C.3       1 RES1   0.0000
   162 C75       7.6003    1.8624    1.5787   C.3       1 RES1   0.0000
   163 C76       6.8088    1.9904    2.8744   C.3       1 RES1   0.0000
   164 H77       4.3386   -9.0212   -0.1933   H         1 RES1   0.0000
   165 H78       3.2692   -9.0322    1.2040   H         1 RES1   0.0000
   166 H79       3.4351   -7.5690    0.2240   H         1 RES1   0.0000
   167 H80       2.2997  -10.2312   -0.7686   H         1 RES1   0.0000
   168 H81       2.3844   -8.7550   -1.7101   H         1 RES1   0.0000
   169 H82       0.7446   -9.2382    0.8203   H         1 RES1   0.0000
   170 H83       0.1165   -9.2461   -0.8176   H         1 RES1   0.0000
   171 H84       1.3113   -6.8857    0.6798   H         1 RES1   0.0000
   172 H85      -0.4082   -7.1859    0.4543   H         1 RES1   0.0000
   173 H86       1.3831   -6.8615   -1.9405   H         1 RES1   0.0000
   174 H87      -0.8346   -5.6622   -2.7221   H         1 RES1   0.0000
   175 H88      -1.5584   -6.4413   -1.3243   H         1 RES1   0.0000
   176 H89      -0.0880   -8.0298   -3.4722   H         1 RES1   0.0000
   177 H90      -1.8070   -7.6566   -3.5524   H         1 RES1   0.0000
   178 H91      -1.1928   -8.6398   -2.2412   H         1 RES1   0.0000
   179 H92       1.7879   -5.0140   -0.2513   H         1 RES1   0.0000
   180 H93       0.1021   -4.5355   -0.4323   H         1 RES1   0.0000
   181 H94       1.0554   -3.9429   -4.0952   H         1 RES1   0.0000
   182 H95       1.1542   -5.5788   -3.4729   H         1 RES1   0.0000
   183 H96       3.5447   -3.7408   -3.9204   H         1 RES1   0.0000
   184 H97       4.7126   -6.0397   -3.5728   H         1 RES1   0.0000
   185 H98       3.3253   -6.4405   -2.5856   H         1 RES1   0.0000
   186 H99       5.2071   -4.0668   -2.1880   H         1 RES1   0.0000
   187 H100      5.1397   -5.5256   -1.2079   H         1 RES1   0.0000
   188 H101      3.7978   -4.3787   -1.1768   H         1 RES1   0.0000
   189 H102      2.3594   -6.1548   -5.3358   H         1 RES1   0.0000
   190 H103      3.9879   -5.5756   -5.6261   H         1 RES1   0.0000
   191 H104      3.2160   -3.4507   -6.4513   H         1 RES1   0.0000
   192 H105      1.5408   -3.8052   -6.0237   H         1 RES1   0.0000
   193 H106      3.1370   -5.4242   -8.0425   H         1 RES1   0.0000
   194 H107      2.0775   -4.0755   -8.4488   H         1 RES1   0.0000
   195 H108      1.2189   -6.7144   -7.1734   H         1 RES1   0.0000
   196 H109      0.8467   -6.1321   -8.7858   H         1 RES1   0.0000
   197 H110      0.1532   -5.3190   -7.3812   H         1 RES1   0.0000
   198 H111      2.5232   -2.2501   -3.5296   H         1 RES1   0.0000
   199 H112      2.4857   -1.0731   -2.2005   H         1 RES1   0.0000
   200 H113     -0.0473   -1.7603   -3.7244   H         1 RES1   0.0000
   201 H114      1.0899   -0.5443   -4.3399   H         1 RES1   0.0000
   202 H115     -0.5877    1.7244   -2.2691   H         1 RES1   0.0000
   203 H116     -0.6835    1.1111   -3.9482   H         1 RES1   0.0000
   204 H117      0.9976    2.8416   -3.9055   H         1 RES1   0.0000
   205 H118      1.8211    1.3093   -4.1185   H         1 RES1   0.0000
   206 H119      2.7793    3.7538   -4.1970   H         1 RES1   0.0000
   207 H120      4.1438    4.4224   -3.3391   H         1 RES1   0.0000
   208 H121      2.8466    5.9038   -2.0530   H         1 RES1   0.0000
   209 H122      1.0649    4.3879   -1.3785   H         1 RES1   0.0000
   210 H123      0.3265    4.4655   -2.9745   H         1 RES1   0.0000
   211 H124      0.6711    6.9135   -1.1966   H         1 RES1   0.0000
   212 H125     -0.7985    5.9359   -1.3237   H         1 RES1   0.0000
   213 H126     -0.2079    6.8193   -2.7236   H         1 RES1   0.0000
   214 H127      3.2183    6.5265   -4.4031   H         1 RES1   0.0000
   215 H128      1.8488    7.3114   -3.6440   H         1 RES1   0.0000
   216 H129      0.3977    5.4636   -4.8093   H         1 RES1   0.0000
   217 H130      1.8234    5.1943   -5.8171   H         1 RES1   0.0000
   218 H131      0.3388    7.8385   -5.4642   H         1 RES1   0.0000
   219 H132      0.1640    6.7247   -6.8158   H         1 RES1   0.0000
   220 H133      2.6709    8.3222   -6.1171   H         1 RES1   0.0000
   221 H134      1.6132    8.5319   -7.5048   H         1 RES1   0.0000
   222 H135      2.6017    7.0810   -7.3755   H         1 RES1   0.0000
   223 H136      3.7687    2.4256   -0.4028   H         1 RES1   0.0000
   224 H137      4.0378    4.1418   -0.7690   H         1 RES1   0.0000
   225 H138      5.8097    3.6031   -2.3435   H         1 RES1   0.0000
   226 H139      4.9878    0.7383   -1.8616   H         1 RES1   0.0000
   227 H140      6.6558    1.1375   -2.2819   H         1 RES1   0.0000
   228 H141      4.2310    1.7052   -4.0229   H         1 RES1   0.0000
   229 H142      5.5558    0.5888   -4.3237   H         1 RES1   0.0000
   230 H143      5.8521    2.3173   -4.3328   H         1 RES1   0.0000
   231 H144      6.1223    3.6903    0.2370   H         1 RES1   0.0000
   232 H145      7.4499    3.2537   -0.8225   H         1 RES1   0.0000
   233 H146      7.2296    0.9123   -0.3014   H         1 RES1   0.0000
   234 H147      5.7685    1.1814    0.6407   H         1 RES1   0.0000
   235 H148      8.1916    2.7653    1.4303   H         1 RES1   0.0000
   236 H149      8.3023    1.0349    1.6860   H         1 RES1   0.0000
   237 H150      6.1145    2.8280    2.8319   H         1 RES1   0.0000
   238 H151      7.4848    2.1549    3.7098   H         1 RES1   0.0000
   239 H152      6.2476    1.0779    3.0753   H         1 RES1   0.0000
   240 C77      -3.5128   -5.6056   -5.3823   C.3       1 RES1   0.0000
   241 C78      -4.0617   -4.4495   -6.2124   C.3       1 RES1   0.0000
   242 C79      -2.9762   -3.6634   -6.9480   C.3       1 RES1   0.0000
   243 C80      -2.0646   -2.8339   -6.0390   C.3       1 RES1   0.0000
   244 C81      -2.8016   -1.6801   -5.3261   C.3       1 RES1   0.0000
   245 C82      -2.1384   -0.3241   -5.5898   C.3       1 RES1   0.0000
   246 C83      -2.4034    0.1806   -7.0028   C.3       1 RES1   0.0000
   247 C84      -2.9307   -2.0084   -3.8240   C.3       1 RES1   0.0000
   248 N5       -3.7072   -1.0752   -3.0022   N.am      1 RES1   0.0000
   249 C85      -5.0180   -0.6971   -3.5430   C.3       1 RES1   0.0000
   250 C86      -6.3252   -1.1069   -2.8251   C.3       1 RES1   0.0000
   251 C87      -6.8477   -2.4934   -3.2484   C.3       1 RES1   0.0000
   252 C88      -6.1425   -3.6935   -2.6285   C.3       1 RES1   0.0000
   253 C89      -7.3995   -0.0718   -3.2260   C.3       1 RES1   0.0000
   254 C90      -7.2319    1.3424   -2.6680   C.3       1 RES1   0.0000
   255 C91      -8.2290    2.3291   -3.2860   C.3       1 RES1   0.0000
   256 C92      -7.9276    2.6695   -4.7427   C.3       1 RES1   0.0000
   257 C93      -3.1787   -0.5903   -1.8704   C.2       1 RES1   0.0000
   258 O7       -2.0263   -0.8579   -1.4633   O.2       1 RES1   0.0000
   259 C94      -4.0440    0.3025   -0.9984   C.3       1 RES1   0.0000
   260 C95      -3.3542    1.6100   -0.6159   C.3       1 RES1   0.0000
   261 O8       -2.2037    1.4218    0.2191   O.3       1 RES1   0.0000
   262 C96      -2.0395    2.4838    1.1716   C.3       1 RES1   0.0000
   263 C97      -2.3629    2.0534    2.6097   C.3       1 RES1   0.0000
   264 C98      -1.2216    1.2421    3.2029   C.2       1 RES1   0.0000
   265 O9       -0.5971    0.4892    2.4242   O.2       1 RES1   0.0000
   266 N6       -0.9464    1.2863    4.5109   N.am      1 RES1   0.0000
   267 C99      -1.4914    2.2615    5.4550   C.3       1 RES1   0.0000
   268 C100     -0.4883    2.8203    6.4866   C.3       1 RES1   0.0000
   269 C101      0.7570    3.4004    5.8025   C.3       1 RES1   0.0000
   270 C102      1.6524    4.2191    6.7312   C.3       1 RES1   0.0000
   271 C103     -1.2187    3.8256    7.3991   C.3       1 RES1   0.0000
   272 C104     -1.7766    5.0726    6.7093   C.3       1 RES1   0.0000
   273 C105     -2.1279    6.1961    7.6930   C.3       1 RES1   0.0000
   274 C106     -3.2607    5.8551    8.6539   C.3       1 RES1   0.0000
   275 C107     -0.0512    0.2554    5.0428   C.3       1 RES1   0.0000
   276 C108     -0.5259   -0.4651    6.3179   C.3       1 RES1   0.0000
   277 C109     -1.4848   -1.6162    6.0115   C.3       1 RES1   0.0000
   278 C110     -2.8528   -1.1592    5.5204   C.3       1 RES1   0.0000
   279 C111      0.6986   -0.9433    7.1233   C.3       1 RES1   0.0000
   280 C112      1.6622   -1.8290    6.3361   C.3       1 RES1   0.0000
   281 C113      2.8005   -2.4192    7.1744   C.3       1 RES1   0.0000
   282 C114      3.8412   -1.3992    7.6238   C.3       1 RES1   0.0000
   283 H153     -4.3315   -6.1866   -4.9645   H         1 RES1   0.0000
   284 H154     -2.9142   -6.2657   -6.0062   H         1 RES1   0.0000
   285 H155     -2.8917   -5.2560   -4.5579   H         1 RES1   0.0000
   286 H156     -4.7484   -4.8579   -6.9545   H         1 RES1   0.0000
   287 H157     -4.6413   -3.7790   -5.5744   H         1 RES1   0.0000
   288 H158     -2.3615   -4.3655   -7.5141   H         1 RES1   0.0000
   289 H159     -3.4490   -2.9954   -7.6700   H         1 RES1   0.0000
   290 H160     -1.5875   -3.4891   -5.3065   H         1 RES1   0.0000
   291 H161     -1.2718   -2.4166   -6.6600   H         1 RES1   0.0000
   292 H162     -3.7980   -1.6278   -5.7681   H         1 RES1   0.0000
   293 H163     -2.5269    0.4061   -4.8745   H         1 RES1   0.0000
   294 H164     -1.0605   -0.4184   -5.4459   H         1 RES1   0.0000
   295 H165     -3.4615    0.3707   -7.1546   H         1 RES1   0.0000
   296 H166     -1.8642    1.1065   -7.1839   H         1 RES1   0.0000
   297 H167     -2.0784   -0.5469   -7.7403   H         1 RES1   0.0000
   298 H168     -3.3924   -2.9973   -3.7543   H         1 RES1   0.0000
   299 H169     -1.9486   -2.0608   -3.3536   H         1 RES1   0.0000
   300 H170     -5.0217    0.3868   -3.6835   H         1 RES1   0.0000
   301 H171     -5.0816   -1.1355   -4.5368   H         1 RES1   0.0000
   302 H172     -6.1956   -1.1180   -1.7391   H         1 RES1   0.0000
   303 H173     -7.8969   -2.5470   -2.9552   H         1 RES1   0.0000
   304 H174     -6.8219   -2.5768   -4.3365   H         1 RES1   0.0000
   305 H175     -6.0899   -3.5936   -1.5465   H         1 RES1   0.0000
   306 H176     -6.7068   -4.5954   -2.8532   H         1 RES1   0.0000
   307 H177     -5.1389   -3.8260   -3.0217   H         1 RES1   0.0000
   308 H178     -7.4322   -0.0311   -4.3161   H         1 RES1   0.0000
   309 H179     -8.3713   -0.4364   -2.8956   H         1 RES1   0.0000
   310 H180     -7.3859    1.3188   -1.5856   H         1 RES1   0.0000
   311 H181     -6.2266    1.7294   -2.8573   H         1 RES1   0.0000
   312 H182     -9.2362    1.9177   -3.2160   H         1 RES1   0.0000
   313 H183     -8.2017    3.2523   -2.7043   H         1 RES1   0.0000
   314 H184     -8.0737    1.8115   -5.3944   H         1 RES1   0.0000
   315 H185     -8.5969    3.4556   -5.0821   H         1 RES1   0.0000
   316 H186     -6.9035    3.0234   -4.8591   H         1 RES1   0.0000
   317 H187     -4.9855    0.5591   -1.4691   H         1 RES1   0.0000
   318 H188     -4.2567   -0.2538   -0.0817   H         1 RES1   0.0000
   319 H189     -3.0522    2.1598   -1.5192   H         1 RES1   0.0000
   320 H190     -4.0908    2.2182   -0.0806   H         1 RES1   0.0000
   321 H191     -0.9944    2.8012    1.1073   H         1 RES1   0.0000
   322 H192     -2.6702    3.3332    0.8925   H         1 RES1   0.0000
   323 H193     -2.6144    2.9342    3.1951   H         1 RES1   0.0000
   324 H194     -3.2352    1.3916    2.6049   H         1 RES1   0.0000
   325 H195     -1.8791    3.1118    4.8964   H         1 RES1   0.0000
   326 H196     -2.3298    1.8087    5.9928   H         1 RES1   0.0000
   327 H197     -0.1516    2.0186    7.1460   H         1 RES1   0.0000
   328 H198      1.3547    2.5792    5.4009   H         1 RES1   0.0000
   329 H199      0.4531    4.0074    4.9526   H         1 RES1   0.0000
   330 H200      1.8506    3.6788    7.6545   H         1 RES1   0.0000
   331 H201      2.6124    4.4111    6.2537   H         1 RES1   0.0000
   332 H202      1.2012    5.1769    6.9770   H         1 RES1   0.0000
   333 H203     -2.0335    3.3044    7.9042   H         1 RES1   0.0000
   334 H204     -0.5230    4.1409    8.1755   H         1 RES1   0.0000
   335 H205     -1.0292    5.4665    6.0167   H         1 RES1   0.0000
   336 H206     -2.6732    4.8125    6.1401   H         1 RES1   0.0000
   337 H207     -1.2371    6.4644    8.2652   H         1 RES1   0.0000
   338 H208     -2.4198    7.0728    7.1106   H         1 RES1   0.0000
   339 H209     -2.9651    5.0866    9.3621   H         1 RES1   0.0000
   340 H210     -3.5411    6.7396    9.2191   H         1 RES1   0.0000
   341 H211     -4.1358    5.5080    8.1093   H         1 RES1   0.0000
   342 H212      0.0719   -0.4744    4.2383   H         1 RES1   0.0000
   343 H213      0.9224    0.7105    5.2420   H         1 RES1   0.0000
   344 H214     -1.0689    0.2270    6.9612   H         1 RES1   0.0000
   345 H215     -1.0374   -2.2731    5.2654   H         1 RES1   0.0000
   346 H216     -1.6251   -2.1856    6.9299   H         1 RES1   0.0000
   347 H217     -2.7813   -0.6716    4.5514   H         1 RES1   0.0000
   348 H218     -3.5157   -2.0151    5.4234   H         1 RES1   0.0000
   349 H219     -3.3071   -0.4709    6.2286   H         1 RES1   0.0000
   350 H220      1.2366   -0.0736    7.5045   H         1 RES1   0.0000
   351 H221      0.3403   -1.5022    7.9875   H         1 RES1   0.0000
   352 H222      1.0948   -2.6578    5.9059   H         1 RES1   0.0000
   353 H223      2.1035   -1.2498    5.5210   H         1 RES1   0.0000
   354 H224      2.3850   -2.9107    8.0548   H         1 RES1   0.0000
   355 H225      3.3027   -3.1804    6.5713   H         1 RES1   0.0000
   356 H226      3.4252   -0.6937    8.3372   H         1 RES1   0.0000
   357 H227      4.6692   -1.9116    8.1066   H         1 RES1   0.0000
   358 H228      4.2375   -0.8434    6.7759   H         1 RES1   0.0000
@<TRIPOS>BOND
     1     1    20    1
     2     1    23    1
     3     1    27    1
     4     1   139    1
     5     1   142    1
     6     1   146    1
     7     1   258    1
     8     1   261    1
     9     1   265    1
    10     2     3    1
    11     2    45    1
    12     2    46    1
    13     2    47    1
    14     3     4    1
    15     3    48    1
    16     3    49    1
    17     4     5    1
    18     4    50    1
    19     4    51    1
    20     5     6    1
    21     5    52    1
    22     5    53    1
    23     6     7    1
    24     6     9    1
    25     6    54    1
    26     7     8    1
    27     7    55    1
    28     7    56    1
    29     8    57    1
    30     8    58    1
    31     8    59    1
    32     9    10    1
    33     9    60    1
    34     9    61    1
    35    10    11    1
    36    10    19    1
    37    11    12    1
    38    11    62    1
    39    11    63    1
    40    12    13    1
    41    12    15    1
    42    12    64    1
    43    13    14    1
    44    13    65    1
    45    13    66    1
    46    14    67    1
    47    14    68    1
    48    14    69    1
    49    15    16    1
    50    15    70    1
    51    15    71    1
    52    16    17    1
    53    16    72    1
    54    16    73    1
    55    17    18    1
    56    17    74    1
    57    17    75    1
    58    18    76    1
    59    18    77    1
    60    18    78    1
    61    19    20    2
    62    19    21    1
    63    21    22    1
    64    21    79    1
    65    21    80    1
    66    22    23    1
    67    22    81    1
    68    22    82    1
    69    23    24    1
    70    24    25    1
    71    24    83    1
    72    24    84    1
    73    25    26    1
    74    25    85    1
    75    25    86    1
    76    26    27    2
    77    26    28    1
    78    28    29    1
    79    28    37    1
    80    29    30    1
    81    29    87    1
    82    29    88    1
    83    30    31    1
    84    30    33    1
    85    30    89    1
    86    31    32    1
    87    31    90    1
    88    31    91    1
    89    32    92    1
    90    32    93    1
    91    32    94    1
    92    33    34    1
    93    33    95    1
    94    33    96    1
    95    34    35    1
    96    34    97    1
    97    34    98    1
    98    35    36    1
    99    35    99    1
   100    35   100    1
   101    36   101    1
   102    36   102    1
   103    36   103    1
   104    37    38    1
   105    37   104    1
   106    37   105    1
   107    38    39    1
   108    38    41    1
   109    38   106    1
   110    39    40    1
   111    39   107    1
   112    39   108    1
   113    40   109    1
   114    40   110    1
   115    40   111    1
   116    41    42    1
   117    41   112    1
   118    41   113    1
   119    42    43    1
   120    42   114    1
   121    42   115    1
   122    43    44    1
   123    43   116    1
   124    43   117    1
   125    44   118    1
   126    44   119    1
   127    44   120    1
   128   121   122    1
   129   121   164    1
   130   121   165    1
   131   121   166    1
   132   122   123    1
   133   122   167    1
   134   122   168    1
   135   123   124    1
   136   123   169    1
   137   123   170    1
   138   124   125    1
   139   124   171    1
   140   124   172    1
   141   125   126    1
   142   125   128    1
   143   125   173    1
   144   126   127    1
   145   126   174    1
   146   126   175    1
   147   127   176    1
   148   127   177    1
   149   127   178    1
   150   128   129    1
   151   128   179    1
   152   128   180    1
   153   129   130    1
   154   129   138    1
   155   130   131    1
   156   130   181    1
   157   130   182    1
   158   131   132    1
   159   131   134    1
   160   131   183    1
   161   132   133    1
   162   132   184    1
   163   132   185    1
   164   133   186    1
   165   133   187    1
   166   133   188    1
   167   134   135    1
   168   134   189    1
   169   134   190    1
   170   135   136    1
   171   135   191    1
   172   135   192    1
   173   136   137    1
   174   136   193    1
   175   136   194    1
   176   137   195    1
   177   137   196    1
   178   137   197    1
   179   138   139    2
   180   138   140    1
   181   140   141    1
   182   140   198    1
   183   140   199    1
   184   141   142    1
   185   141   200    1
   186   141   201    1
   187   142   143    1
   188   143   144    1
   189   143   202    1
   190   143   203    1
   191   144   145    1
   192   144   204    1
   193   144   205    1
   194   145   146    2
   195   145   147    1
   196   147   148    1
   197   147   156    1
   198   148   149    1
   199   148   206    1
   200   148   207    1
   201   149   150    1
   202   149   152    1
   203   149   208    1
   204   150   151    1
   205   150   209    1
   206   150   210    1
   207   151   211    1
   208   151   212    1
   209   151   213    1
   210   152   153    1
   211   152   214    1
   212   152   215    1
   213   153   154    1
   214   153   216    1
   215   153   217    1
   216   154   155    1
   217   154   218    1
   218   154   219    1
   219   155   220    1
   220   155   221    1
   221   155   222    1
   222   156   157    1
   223   156   223    1
   224   156   224    1
   225   157   158    1
   226   157   160    1
   227   157   225    1
   228   158   159    1
   229   158   226    1
   230   158   227    1
   231   159   228    1
   232   159   229    1
   233   159   230    1
   234   160   161    1
   235   160   231    1
   236   160   232    1
   237   161   162    1
   238   161   233    1
   239   161   234    1
   240   162   163    1
   241   162   235    1
   242   162   236    1
   243   163   237    1
   244   163   238    1
   245   163   239    1
   246   240   241    1
   247   240   283    1
   248   240   284    1
   249   240   285    1
   250   241   242    1
   251   241   286    1
   252   241   287    1
   253   242   243    1
   254   242   288    1
   255   242   289    1
   256   243   244    1
   257   243   290    1
   258   243   291    1
   259   244   245    1
   260   244   247    1
   261   244   292    1
   262   245   246    1
   263   245   293    1
   264   245   294    1
   265   246   295    1
   266   246   296    1
   267   246   297    1
   268   247   248    1
   269   247   298    1
   270   247   299    1
   271   248   249    1
   272   248   257    1
   273   249   250    1
   274   249   300    1
   275   249   301    1
   276   250   251    1
   277   250   253    1
   278   250   302    1
   279   251   252    1
   280   251   303    1
   281   251   304    1
   282   252   305    1
   283   252   306    1
   284   252   307    1
   285   253   254    1
   286   253   308    1
   287   253   309    1
   288   254   255    1
   289   254   310    1
   290   254   311    1
   291   255   256    1
   292   255   312    1
   293   255   313    1
   294   256   314    1
   295   256   315    1
   296   256   316    1
   297   257   258    2
   298   257   259    1
   299   259   260    1
   300   259   317    1
   301   259   318    1
   302   260   261    1
   303   260   319    1
   304   260   320    1
   305   261   262    1
   306   262   263    1
   307   262   321    1
   308   262   322    1
   309   263   264    1
   310   263   323    1
   311   263   324    1
   312   264   265    2
   313   264   266    1
   314   266   267    1
   315   266   275    1
   316   267   268    1
   317   267   325    1
   318   267   326    1
   319   268   269    1
   320   268   271    1
   321   268   327    1
   322   269   270    1
   323   269   328    1
   324   269   329    1
   325   270   330    1
   326   270   331    1
   327   270   332    1
   328   271   272    1
   329   271   333    1
   330   271   334    1
   331   272   273    1
   332   272   335    1
   333   272   336    1
   334   273   274    1
   335   273   337    1
   336   273   338    1
   337   274   339    1
   338   274   340    1
   339   274   341    1
   340   275   276    1
   341   275   342    1
   342   275   343    1
   343   276   277    1
   344   276   279    1
   345   276   344    1
   346   277   278    1
   347   277   345    1
   348   277   346    1
   349   278   347    1
   350   278   348    1
   351   278   349    1
   352   279   280    1
   353   279   350    1
   354   279   351    1
   355   280   281    1
   356   280   352    1
   357   280   353    1
   358   281   282    1
   359   281   354    1
   360   281   355    1
   361   282   356    1
   362   282   357    1
   363   282   358    1
@<TRIPOS>SUBSTRUCTURE
     1 RES1      358 GROUP             0 ****  ****    0  
