@<TRIPOS>MOLECULE
capped_square_antiprismatic_0_nunpairedes_0_charge_3 Charge: 3 Unpaired_Electrons: 6 XTB_Unpaired_Electrons: 0 XTB_Charge: 3
   448   453     1     0     0
SMALL
NoCharges
****
Generated from Architector

@<TRIPOS>ATOM
     1 Eu1      -0.0644   -0.1866    0.2766   Eu        1 RES1   0.0000
     2 C1       -1.1752    8.9644    2.7988   C.3       1 RES1   0.0000
     3 C2       -2.5645    9.4834    3.1645   C.3       1 RES1   0.0000
     4 C3       -3.6714    8.4688    2.8701   C.3       1 RES1   0.0000
     5 C4       -3.6071    7.2707    3.8192   C.3       1 RES1   0.0000
     6 C5       -4.4664    6.0734    3.4100   C.3       1 RES1   0.0000
     7 C6       -4.4628    4.9784    4.4793   C.3       1 RES1   0.0000
     8 C7       -3.1430    4.1974    4.6245   C.3       1 RES1   0.0000
     9 C8       -3.1967    2.8295    3.9218   C.3       1 RES1   0.0000
    10 N1       -2.1102    1.9186    4.2975   N.am      1 RES1   0.0000
    11 C9       -1.8954    1.7849    5.7429   C.3       1 RES1   0.0000
    12 C10      -3.1331    1.3542    6.5427   C.3       1 RES1   0.0000
    13 C11      -3.4351   -0.1321    6.3715   C.3       1 RES1   0.0000
    14 C12      -4.5645   -0.6467    7.2900   C.3       1 RES1   0.0000
    15 C13      -5.6848   -1.2845    6.4521   C.3       1 RES1   0.0000
    16 C14      -6.3936   -0.3214    5.4956   C.3       1 RES1   0.0000
    17 C15      -7.4114   -1.0670    4.6339   C.3       1 RES1   0.0000
    18 C16      -8.0711   -0.1734    3.5913   C.3       1 RES1   0.0000
    19 C17      -4.0358   -1.6858    8.2957   C.3       1 RES1   0.0000
    20 C18      -2.9156   -1.2329    9.2432   C.3       1 RES1   0.0000
    21 C19      -3.3640   -0.4354   10.4739   C.3       1 RES1   0.0000
    22 C20      -3.3859    1.0861   10.3082   C.3       1 RES1   0.0000
    23 C21      -2.0049    1.7449   10.2036   C.3       1 RES1   0.0000
    24 C22      -1.2049    1.6722   11.5005   C.3       1 RES1   0.0000
    25 C23      -1.3429    1.3348    3.3753   C.2       1 RES1   0.0000
    26 O1       -1.5182    1.3849    2.1432   O.2       1 RES1   0.0000
    27 C24      -0.1197    0.5644    3.8762   C.3       1 RES1   0.0000
    28 O2        0.6276    0.1148    2.7559   O.3       1 RES1   0.0000
    29 C25       1.8618   -0.4369    3.1846   C.3       1 RES1   0.0000
    30 C26       2.2641   -1.5459    2.2252   C.2       1 RES1   0.0000
    31 O3        1.6523   -1.6726    1.1445   O.2       1 RES1   0.0000
    32 N2        3.2180   -2.3733    2.6223   N.am      1 RES1   0.0000
    33 C27       3.6213   -3.4446    1.7291   C.3       1 RES1   0.0000
    34 C28       4.7097   -2.9831    0.7467   C.3       1 RES1   0.0000
    35 C29       5.8647   -3.9778    0.7721   C.3       1 RES1   0.0000
    36 C30       6.9111   -3.7709   -0.3135   C.3       1 RES1   0.0000
    37 C31       7.9382   -4.9004   -0.2586   C.3       1 RES1   0.0000
    38 C32       7.3943   -6.2060   -0.8485   C.3       1 RES1   0.0000
    39 C33       8.0376   -7.4270   -0.1947   C.3       1 RES1   0.0000
    40 C34       7.7594   -8.6917   -0.9950   C.3       1 RES1   0.0000
    41 C35       4.0790   -2.1705    3.7841   C.3       1 RES1   0.0000
    42 C36       3.7969   -3.1147    4.9595   C.3       1 RES1   0.0000
    43 C37       4.8717   -3.0583    6.0684   C.3       1 RES1   0.0000
    44 C38       4.9240   -1.8636    7.0559   C.3       1 RES1   0.0000
    45 C39       6.0630   -0.8652    6.7570   C.3       1 RES1   0.0000
    46 C40       6.2111   -0.3271    5.3355   C.3       1 RES1   0.0000
    47 C41       7.3777    0.6605    5.2319   C.3       1 RES1   0.0000
    48 C42       7.8960    0.8101    3.8059   C.3       1 RES1   0.0000
    49 C43       3.5656   -1.2052    7.3303   C.3       1 RES1   0.0000
    50 C44       2.6956   -2.1150    8.2063   C.3       1 RES1   0.0000
    51 C45       1.2722   -1.6001    8.4230   C.3       1 RES1   0.0000
    52 C46       0.3768   -1.7269    7.1903   C.3       1 RES1   0.0000
    53 C47      -0.0243   -3.1586    6.8345   C.3       1 RES1   0.0000
    54 C48      -0.8426   -3.2009    5.5463   C.3       1 RES1   0.0000
    55 H1       -0.4552    9.7786    2.8252   H         1 RES1   0.0000
    56 H2       -1.1767    8.5321    1.7973   H         1 RES1   0.0000
    57 H3       -0.8345    8.2026    3.4972   H         1 RES1   0.0000
    58 H4       -2.7601   10.3978    2.6027   H         1 RES1   0.0000
    59 H5       -2.5912    9.7450    4.2226   H         1 RES1   0.0000
    60 H6       -3.5834    8.1460    1.8297   H         1 RES1   0.0000
    61 H7       -4.6412    8.9596    2.9775   H         1 RES1   0.0000
    62 H8       -3.9283    7.6128    4.8041   H         1 RES1   0.0000
    63 H9       -2.5730    6.9361    3.9117   H         1 RES1   0.0000
    64 H10      -4.1094    5.6609    2.4644   H         1 RES1   0.0000
    65 H11      -5.4984    6.4005    3.2672   H         1 RES1   0.0000
    66 H12      -5.2689    4.2751    4.2706   H         1 RES1   0.0000
    67 H13      -4.6882    5.4566    5.4319   H         1 RES1   0.0000
    68 H14      -2.9663    4.0662    5.6889   H         1 RES1   0.0000
    69 H15      -2.3163    4.7798    4.2139   H         1 RES1   0.0000
    70 H16      -3.1388    2.9759    2.8437   H         1 RES1   0.0000
    71 H17      -4.1441    2.3337    4.1502   H         1 RES1   0.0000
    72 H18      -1.5289    2.7415    6.1267   H         1 RES1   0.0000
    73 H19      -1.1221    1.0489    5.9297   H         1 RES1   0.0000
    74 H20      -4.0028    1.9530    6.2826   H         1 RES1   0.0000
    75 H21      -2.9053    1.5499    7.5913   H         1 RES1   0.0000
    76 H22      -2.5258   -0.6900    6.5919   H         1 RES1   0.0000
    77 H23      -3.6784   -0.3290    5.3237   H         1 RES1   0.0000
    78 H24      -5.0002    0.1843    7.8448   H         1 RES1   0.0000
    79 H25      -6.4377   -1.7058    7.1219   H         1 RES1   0.0000
    80 H26      -5.2603   -2.1120    5.8713   H         1 RES1   0.0000
    81 H27      -5.6678    0.1720    4.8425   H         1 RES1   0.0000
    82 H28      -6.8978    0.4582    6.0685   H         1 RES1   0.0000
    83 H29      -8.1772   -1.4916    5.2834   H         1 RES1   0.0000
    84 H30      -6.9068   -1.8972    4.1311   H         1 RES1   0.0000
    85 H31      -8.6328    0.6236    4.0699   H         1 RES1   0.0000
    86 H32      -8.7634   -0.7537    2.9883   H         1 RES1   0.0000
    87 H33      -7.3284    0.2761    2.9317   H         1 RES1   0.0000
    88 H34      -3.6751   -2.5446    7.7190   H         1 RES1   0.0000
    89 H35      -4.8730   -2.0381    8.9022   H         1 RES1   0.0000
    90 H36      -2.1646   -0.6603    8.7007   H         1 RES1   0.0000
    91 H37      -2.4230   -2.1395    9.5991   H         1 RES1   0.0000
    92 H38      -2.6971   -0.6737   11.3030   H         1 RES1   0.0000
    93 H39      -4.3623   -0.7646   10.7628   H         1 RES1   0.0000
    94 H40      -3.8926    1.5147   11.1747   H         1 RES1   0.0000
    95 H41      -3.9814    1.3465    9.4318   H         1 RES1   0.0000
    96 H42      -2.1482    2.7978    9.9429   H         1 RES1   0.0000
    97 H43      -1.4200    1.2869    9.4001   H         1 RES1   0.0000
    98 H44      -1.7591    2.1360   12.3112   H         1 RES1   0.0000
    99 H45      -0.2574    2.1960   11.3937   H         1 RES1   0.0000
   100 H46      -0.9917    0.6424   11.7742   H         1 RES1   0.0000
   101 H47      -0.4249   -0.3026    4.4725   H         1 RES1   0.0000
   102 H48       0.5024    1.2392    4.4778   H         1 RES1   0.0000
   103 H49       1.7643   -0.8669    4.1850   H         1 RES1   0.0000
   104 H50       2.6301    0.3524    3.2042   H         1 RES1   0.0000
   105 H51       2.7364   -3.7965    1.2015   H         1 RES1   0.0000
   106 H52       3.9964   -4.2582    2.3488   H         1 RES1   0.0000
   107 H53       5.0670   -1.9940    1.0444   H         1 RES1   0.0000
   108 H54       4.2954   -2.8847   -0.2605   H         1 RES1   0.0000
   109 H55       5.4514   -4.9832    0.6866   H         1 RES1   0.0000
   110 H56       6.3609   -3.9110    1.7422   H         1 RES1   0.0000
   111 H57       7.4007   -2.8073   -0.1694   H         1 RES1   0.0000
   112 H58       6.4373   -3.7605   -1.2974   H         1 RES1   0.0000
   113 H59       8.2303   -5.0654    0.7822   H         1 RES1   0.0000
   114 H60       8.8369   -4.6105   -0.8010   H         1 RES1   0.0000
   115 H61       7.5933   -6.2309   -1.9206   H         1 RES1   0.0000
   116 H62       6.3091   -6.2705   -0.7270   H         1 RES1   0.0000
   117 H63       7.6587   -7.5305    0.8262   H         1 RES1   0.0000
   118 H64       9.1163   -7.2787   -0.1320   H         1 RES1   0.0000
   119 H65       6.6856   -8.8447   -1.1118   H         1 RES1   0.0000
   120 H66       8.1844   -9.5652   -0.5052   H         1 RES1   0.0000
   121 H67       8.2059   -8.6100   -1.9841   H         1 RES1   0.0000
   122 H68       4.0156   -1.1380    4.1184   H         1 RES1   0.0000
   123 H69       5.0993   -2.3569    3.4413   H         1 RES1   0.0000
   124 H70       3.7957   -4.1413    4.5819   H         1 RES1   0.0000
   125 H71       2.8034   -2.9261    5.3720   H         1 RES1   0.0000
   126 H72       5.8571   -3.1511    5.6083   H         1 RES1   0.0000
   127 H73       4.7354   -3.9643    6.6605   H         1 RES1   0.0000
   128 H74       5.2136   -2.2963    8.0194   H         1 RES1   0.0000
   129 H75       7.0007   -1.3659    7.0067   H         1 RES1   0.0000
   130 H76       5.9642   -0.0208    7.4415   H         1 RES1   0.0000
   131 H77       5.2907    0.1708    5.0161   H         1 RES1   0.0000
   132 H78       6.4104   -1.1563    4.6552   H         1 RES1   0.0000
   133 H79       8.1971    0.3092    5.8593   H         1 RES1   0.0000
   134 H80       7.0684    1.6358    5.6110   H         1 RES1   0.0000
   135 H81       8.2848   -0.1358    3.4361   H         1 RES1   0.0000
   136 H82       8.7040    1.5343    3.7799   H         1 RES1   0.0000
   137 H83       7.1132    1.1476    3.1286   H         1 RES1   0.0000
   138 H84       3.0559   -0.9420    6.4009   H         1 RES1   0.0000
   139 H85       3.7301   -0.2763    7.8792   H         1 RES1   0.0000
   140 H86       3.1802   -2.2056    9.1799   H         1 RES1   0.0000
   141 H87       2.6614   -3.1158    7.7781   H         1 RES1   0.0000
   142 H88       1.3150   -0.5512    8.7273   H         1 RES1   0.0000
   143 H89       0.8129   -2.1519    9.2435   H         1 RES1   0.0000
   144 H90       0.8888   -1.2712    6.3360   H         1 RES1   0.0000
   145 H91      -0.5358   -1.1559    7.3728   H         1 RES1   0.0000
   146 H92      -0.6153   -3.5804    7.6489   H         1 RES1   0.0000
   147 H93       0.8614   -3.7856    6.7149   H         1 RES1   0.0000
   148 H94      -1.7782   -2.6572    5.6645   H         1 RES1   0.0000
   149 H95      -1.0804   -4.2275    5.2802   H         1 RES1   0.0000
   150 H96      -0.2872   -2.7590    4.7160   H         1 RES1   0.0000
   151 C49      -0.4642   -6.3286   -5.2122   C.3       1 RES1   0.0000
   152 C50      -1.6839   -6.4856   -4.3146   C.3       1 RES1   0.0000
   153 C51      -1.3126   -6.5849   -2.8354   C.3       1 RES1   0.0000
   154 C52      -2.5506   -6.4825   -1.9498   C.3       1 RES1   0.0000
   155 C53      -2.2410   -6.6776   -0.4661   C.3       1 RES1   0.0000
   156 C54      -3.4184   -6.3403    0.4653   C.3       1 RES1   0.0000
   157 C55      -3.3734   -4.9490    1.1183   C.3       1 RES1   0.0000
   158 C56      -3.8109   -3.8154    0.1702   C.3       1 RES1   0.0000
   159 N3       -3.1905   -2.5170    0.4477   N.am      1 RES1   0.0000
   160 C57      -4.1159   -1.4210    0.8171   C.3       1 RES1   0.0000
   161 C58      -3.6674    0.0511    0.6161   C.3       1 RES1   0.0000
   162 C59      -4.3176    0.7843   -0.5782   C.3       1 RES1   0.0000
   163 C60      -3.6052    2.1101   -1.0162   C.3       1 RES1   0.0000
   164 C61      -3.9918    2.4421   -2.5006   C.3       1 RES1   0.0000
   165 C62      -3.0888    2.8955   -3.6938   C.3       1 RES1   0.0000
   166 C63      -3.6789    2.9269   -5.1230   C.3       1 RES1   0.0000
   167 C64      -2.7057    3.5814   -6.0972   C.3       1 RES1   0.0000
   168 C65      -4.0419    3.2515   -0.0747   C.3       1 RES1   0.0000
   169 C66      -3.4700    4.6172   -0.4562   C.3       1 RES1   0.0000
   170 C67      -1.9566    4.7555   -0.2766   C.3       1 RES1   0.0000
   171 C68      -1.5736    5.2431    1.1161   C.3       1 RES1   0.0000
   172 C69      -0.0614    5.1712    1.3530   C.3       1 RES1   0.0000
   173 C70       0.3252    3.9370    2.1554   C.3       1 RES1   0.0000
   174 C71      -1.8783   -2.4188    0.6023   C.2       1 RES1   0.0000
   175 O4       -1.3481   -1.5296    1.3011   O.2       1 RES1   0.0000
   176 C72      -0.9060   -3.3494   -0.1519   C.3       1 RES1   0.0000
   177 O5       -0.0644   -2.4299   -0.8403   O.3       1 RES1   0.0000
   178 C73       0.9866   -2.9693   -1.6394   C.3       1 RES1   0.0000
   179 C74       1.4719   -1.7571   -2.4627   C.2       1 RES1   0.0000
   180 O6        1.0982   -0.6388   -2.0790   O.2       1 RES1   0.0000
   181 N4        2.1711   -1.9374   -3.5864   N.am      1 RES1   0.0000
   182 C75       2.2855   -0.8046   -4.5093   C.3       1 RES1   0.0000
   183 C76       0.9781   -0.5546   -5.2759   C.3       1 RES1   0.0000
   184 C77       0.5778   -1.6730   -6.2415   C.3       1 RES1   0.0000
   185 C78      -0.7548   -1.3833   -6.9496   C.3       1 RES1   0.0000
   186 C79      -1.5268   -2.6656   -7.2658   C.3       1 RES1   0.0000
   187 C80      -2.9635   -2.4136   -7.7206   C.3       1 RES1   0.0000
   188 C81      -3.7977   -3.6936   -7.6846   C.3       1 RES1   0.0000
   189 C82      -5.2744   -3.4249   -7.9412   C.3       1 RES1   0.0000
   190 C83       3.1408   -3.0193   -3.7510   C.3       1 RES1   0.0000
   191 C84       2.9808   -3.8819   -5.0062   C.3       1 RES1   0.0000
   192 C85       4.1054   -4.9192   -5.1875   C.3       1 RES1   0.0000
   193 C86       3.8581   -6.3007   -4.5477   C.3       1 RES1   0.0000
   194 C87       3.6154   -6.0963   -3.0517   C.3       1 RES1   0.0000
   195 C88       3.4810   -7.3181   -2.1517   C.3       1 RES1   0.0000
   196 C89       3.0037   -6.8342   -0.7828   C.3       1 RES1   0.0000
   197 C90       2.7989   -7.9538    0.2230   C.3       1 RES1   0.0000
   198 C91       5.0511   -7.2153   -4.8710   C.3       1 RES1   0.0000
   199 C92       4.7932   -8.7283   -4.8499   C.3       1 RES1   0.0000
   200 C93       3.6932   -9.2075   -5.7965   C.3       1 RES1   0.0000
   201 C94       3.5704  -10.7336   -5.8509   C.3       1 RES1   0.0000
   202 C95       3.1542  -11.3650   -4.5226   C.3       1 RES1   0.0000
   203 C96       2.8227  -12.8438   -4.6780   C.3       1 RES1   0.0000
   204 H97      -0.7597   -6.2952   -6.2579   H         1 RES1   0.0000
   205 H98       0.2184   -7.1629   -5.0735   H         1 RES1   0.0000
   206 H99       0.0690   -5.4063   -4.9792   H         1 RES1   0.0000
   207 H100     -2.2307   -7.3815   -4.6084   H         1 RES1   0.0000
   208 H101     -2.3519   -5.6324   -4.4645   H         1 RES1   0.0000
   209 H102     -0.6075   -5.7833   -2.5816   H         1 RES1   0.0000
   210 H103     -0.8057   -7.5327   -2.6515   H         1 RES1   0.0000
   211 H104     -3.2667   -7.2440   -2.2556   H         1 RES1   0.0000
   212 H105     -3.0272   -5.5164   -2.1242   H         1 RES1   0.0000
   213 H106     -1.3610   -6.0940   -0.1840   H         1 RES1   0.0000
   214 H107     -1.9651   -7.7238   -0.3279   H         1 RES1   0.0000
   215 H108     -3.4322   -7.0693    1.2727   H         1 RES1   0.0000
   216 H109     -4.3559   -6.4602   -0.0770   H         1 RES1   0.0000
   217 H110     -2.3646   -4.7603    1.4882   H         1 RES1   0.0000
   218 H111     -4.0314   -4.9603    1.9882   H         1 RES1   0.0000
   219 H112     -4.8866   -3.6785    0.2671   H         1 RES1   0.0000
   220 H113     -3.6017   -4.1131   -0.8539   H         1 RES1   0.0000
   221 H114     -4.3977   -1.5699    1.8636   H         1 RES1   0.0000
   222 H115     -5.0054   -1.5881    0.2041   H         1 RES1   0.0000
   223 H116     -2.5752    0.0999    0.4962   H         1 RES1   0.0000
   224 H117     -3.8963    0.5886    1.5374   H         1 RES1   0.0000
   225 H118     -5.3659    1.0014   -0.3485   H         1 RES1   0.0000
   226 H119     -4.3146    0.0937   -1.4178   H         1 RES1   0.0000
   227 H120     -2.5363    1.9616   -0.8511   H         1 RES1   0.0000
   228 H121     -4.7716    3.1828   -2.3894   H         1 RES1   0.0000
   229 H122     -4.4574    1.5451   -2.8481   H         1 RES1   0.0000
   230 H123     -2.3278    2.1795   -3.9358   H         1 RES1   0.0000
   231 H124     -2.6277    3.8619   -3.4782   H         1 RES1   0.0000
   232 H125     -4.6448    3.3967   -5.1992   H         1 RES1   0.0000
   233 H126     -3.7388    1.8956   -5.4621   H         1 RES1   0.0000
   234 H127     -2.4872    4.6014   -5.8135   H         1 RES1   0.0000
   235 H128     -3.1493    3.5907   -7.0894   H         1 RES1   0.0000
   236 H129     -1.7754    3.0161   -6.1470   H         1 RES1   0.0000
   237 H130     -3.7473    2.9977    0.9453   H         1 RES1   0.0000
   238 H131     -5.1320    3.3295   -0.0779   H         1 RES1   0.0000
   239 H132     -3.9574    5.3874    0.1435   H         1 RES1   0.0000
   240 H133     -3.7344    4.8289   -1.4899   H         1 RES1   0.0000
   241 H134     -1.5736    5.4711   -1.0073   H         1 RES1   0.0000
   242 H135     -1.4789    3.7895   -0.4444   H         1 RES1   0.0000
   243 H136     -2.0855    4.6301    1.8596   H         1 RES1   0.0000
   244 H137     -1.9236    6.2681    1.2411   H         1 RES1   0.0000
   245 H138      0.2853    6.0648    1.8724   H         1 RES1   0.0000
   246 H139      0.4250    5.1533    0.3778   H         1 RES1   0.0000
   247 H140     -0.1316    3.9730    3.1429   H         1 RES1   0.0000
   248 H141      1.3954    3.8750    2.2962   H         1 RES1   0.0000
   249 H142     -0.0176    3.0301    1.6514   H         1 RES1   0.0000
   250 H143     -1.4126   -4.0151   -0.8559   H         1 RES1   0.0000
   251 H144     -0.3186   -3.9331    0.5732   H         1 RES1   0.0000
   252 H145      0.6095   -3.7550   -2.3050   H         1 RES1   0.0000
   253 H146      1.7914   -3.3626   -1.0059   H         1 RES1   0.0000
   254 H147      3.0918   -1.0170   -5.2092   H         1 RES1   0.0000
   255 H148      2.5540    0.0918   -3.9380   H         1 RES1   0.0000
   256 H149      1.0863    0.3792   -5.8316   H         1 RES1   0.0000
   257 H150      0.1701   -0.4274   -4.5516   H         1 RES1   0.0000
   258 H151      0.4793   -2.6041   -5.6813   H         1 RES1   0.0000
   259 H152      1.3612   -1.8135   -6.9838   H         1 RES1   0.0000
   260 H153     -0.5809   -0.8318   -7.8732   H         1 RES1   0.0000
   261 H154     -1.3675   -0.7439   -6.3095   H         1 RES1   0.0000
   262 H155     -1.5508   -3.2976   -6.3736   H         1 RES1   0.0000
   263 H156     -1.0039   -3.2220   -8.0417   H         1 RES1   0.0000
   264 H157     -2.9731   -2.0071   -8.7314   H         1 RES1   0.0000
   265 H158     -3.4303   -1.6625   -7.0749   H         1 RES1   0.0000
   266 H159     -3.6783   -4.1760   -6.7102   H         1 RES1   0.0000
   267 H160     -3.4254   -4.3889   -8.4362   H         1 RES1   0.0000
   268 H161     -5.6718   -2.7228   -7.2098   H         1 RES1   0.0000
   269 H162     -5.8495   -4.3447   -7.8858   H         1 RES1   0.0000
   270 H163     -5.4206   -2.9993   -8.9295   H         1 RES1   0.0000
   271 H164      3.1072   -3.6285   -2.8541   H         1 RES1   0.0000
   272 H165      4.1263   -2.5468   -3.7946   H         1 RES1   0.0000
   273 H166      2.9882   -3.2275   -5.8766   H         1 RES1   0.0000
   274 H167      2.0258   -4.4052   -4.9933   H         1 RES1   0.0000
   275 H168      5.0475   -4.5187   -4.8048   H         1 RES1   0.0000
   276 H169      4.2372   -5.0722   -6.2589   H         1 RES1   0.0000
   277 H170      2.9564   -6.7286   -4.9933   H         1 RES1   0.0000
   278 H171      2.6711   -5.5531   -2.9610   H         1 RES1   0.0000
   279 H172      4.4199   -5.4698   -2.6535   H         1 RES1   0.0000
   280 H173      4.4397   -7.8204   -2.0369   H         1 RES1   0.0000
   281 H174      2.7605   -8.0183   -2.5746   H         1 RES1   0.0000
   282 H175      2.0618   -6.2900   -0.9115   H         1 RES1   0.0000
   283 H176      3.7390   -6.1201   -0.3985   H         1 RES1   0.0000
   284 H177      1.9829   -8.5978   -0.0838   H         1 RES1   0.0000
   285 H178      2.5604   -7.5443    1.2003   H         1 RES1   0.0000
   286 H179      3.6928   -8.5608    0.3089   H         1 RES1   0.0000
   287 H180      5.8565   -6.9970   -4.1678   H         1 RES1   0.0000
   288 H181      5.4178   -6.9584   -5.8668   H         1 RES1   0.0000
   289 H182      4.5539   -9.0548   -3.8407   H         1 RES1   0.0000
   290 H183      5.7262   -9.2202   -5.1350   H         1 RES1   0.0000
   291 H184      3.8954   -8.8372   -6.8043   H         1 RES1   0.0000
   292 H185      2.7305   -8.7983   -5.4809   H         1 RES1   0.0000
   293 H186      4.5174  -11.1651   -6.1786   H         1 RES1   0.0000
   294 H187      2.8225  -10.9861   -6.6061   H         1 RES1   0.0000
   295 H188      2.2771  -10.8412   -4.1334   H         1 RES1   0.0000
   296 H189      3.9582  -11.2599   -3.7930   H         1 RES1   0.0000
   297 H190      1.9914  -12.9844   -5.3644   H         1 RES1   0.0000
   298 H191      2.5465  -13.2750   -3.7192   H         1 RES1   0.0000
   299 H192      3.6785  -13.3889   -5.0664   H         1 RES1   0.0000
   300 C97       0.8271    5.8240    6.0811   C.3       1 RES1   0.0000
   301 C98       1.5106    4.6270    6.7365   C.3       1 RES1   0.0000
   302 C99       2.0353    3.5906    5.7423   C.3       1 RES1   0.0000
   303 C100      3.1307    4.1436    4.8318   C.3       1 RES1   0.0000
   304 C101      3.7968    3.0424    4.0071   C.3       1 RES1   0.0000
   305 C102      4.7887    3.5912    2.9779   C.3       1 RES1   0.0000
   306 C103      4.1034    4.1174    1.7111   C.3       1 RES1   0.0000
   307 C104      3.6966    2.9618    0.7949   C.3       1 RES1   0.0000
   308 N5        2.6308    3.2336   -0.1786   N.am      1 RES1   0.0000
   309 C105      2.6189    4.5630   -0.7729   C.3       1 RES1   0.0000
   310 C106      3.8628    4.9243   -1.5862   C.3       1 RES1   0.0000
   311 C107      3.7457    4.6088   -3.0741   C.3       1 RES1   0.0000
   312 C108      4.8077    5.3809   -3.8785   C.3       1 RES1   0.0000
   313 C109      5.9914    4.4787   -4.2520   C.3       1 RES1   0.0000
   314 C110      6.7194    3.8753   -3.0483   C.3       1 RES1   0.0000
   315 C111      8.0072    3.1755   -3.4821   C.3       1 RES1   0.0000
   316 C112      8.6744    2.4163   -2.3420   C.3       1 RES1   0.0000
   317 C113      4.1965    6.0241   -5.1294   C.3       1 RES1   0.0000
   318 C114      3.1368    7.1081   -4.8907   C.3       1 RES1   0.0000
   319 C115      3.6493    8.4164   -4.2678   C.3       1 RES1   0.0000
   320 C116      3.5117    8.5744   -2.7477   C.3       1 RES1   0.0000
   321 C117      2.1089    8.3741   -2.1655   C.3       1 RES1   0.0000
   322 C118      1.0653    9.3067   -2.7686   C.3       1 RES1   0.0000
   323 C119      1.7561    2.2613   -0.3941   C.2       1 RES1   0.0000
   324 O7        1.7419    1.2004    0.2749   O.2       1 RES1   0.0000
   325 C120      0.7577    2.3640   -1.5482   C.3       1 RES1   0.0000
   326 O8       -0.2683    1.3880   -1.3651   O.3       1 RES1   0.0000
   327 C121     -1.0727    1.3567   -2.5652   C.3       1 RES1   0.0000
   328 C122     -2.1253    0.1949   -2.5499   C.2       1 RES1   0.0000
   329 O9       -1.8450   -0.6236   -1.6564   O.2       1 RES1   0.0000
   330 N6       -3.0026   -0.1665   -3.5832   N.am      1 RES1   0.0000
   331 C123     -2.7619   -1.6166   -3.8514   C.3       1 RES1   0.0000
   332 C124     -3.5618   -2.6329   -3.0164   C.3       1 RES1   0.0000
   333 C125     -4.6155   -3.4519   -3.7871   C.3       1 RES1   0.0000
   334 C126     -5.8516   -3.7710   -2.9419   C.3       1 RES1   0.0000
   335 C127     -6.8475   -4.7185   -3.6242   C.3       1 RES1   0.0000
   336 C128     -6.4769   -6.2099   -3.5235   C.3       1 RES1   0.0000
   337 C129     -5.9770   -6.8292   -4.8278   C.3       1 RES1   0.0000
   338 C130     -5.4838   -8.2563   -4.6213   C.3       1 RES1   0.0000
   339 C131     -4.5431   -0.0195   -4.0701   C.3       1 RES1   0.0000
   340 C132     -5.7180    0.9734   -4.5378   C.3       1 RES1   0.0000
   341 C133     -6.5941    1.9562   -3.6881   C.3       1 RES1   0.0000
   342 C134     -6.9197    3.4572   -4.0760   C.3       1 RES1   0.0000
   343 C135     -8.2049    3.7837   -3.2739   C.3       1 RES1   0.0000
   344 C136     -7.9818    3.7745   -1.7559   C.3       1 RES1   0.0000
   345 C137     -9.1685    4.3009   -0.9491   C.3       1 RES1   0.0000
   346 C138     -8.8006    4.4573    0.5245   C.3       1 RES1   0.0000
   347 C139     -5.9867    4.7016   -3.8661   C.3       1 RES1   0.0000
   348 C140     -5.7451    5.6672   -5.0465   C.3       1 RES1   0.0000
   349 C141     -4.9800    6.9426   -4.6015   C.3       1 RES1   0.0000
   350 C142     -3.6331    6.7600   -3.8698   C.3       1 RES1   0.0000
   351 C143     -2.3864    7.0453   -4.7165   C.3       1 RES1   0.0000
   352 C144     -1.1004    6.5767   -4.0297   C.3       1 RES1   0.0000
   353 H193      0.3762    6.4480    6.8484   H         1 RES1   0.0000
   354 H194      0.0454    5.5039    5.3912   H         1 RES1   0.0000
   355 H195      1.5405    6.4364    5.5341   H         1 RES1   0.0000
   356 H196      0.8056    4.1342    7.4106   H         1 RES1   0.0000
   357 H197      2.3424    4.9823    7.3458   H         1 RES1   0.0000
   358 H198      1.2040    3.2258    5.1291   H         1 RES1   0.0000
   359 H199      2.4336    2.7411    6.3033   H         1 RES1   0.0000
   360 H200      2.7002    4.8968    4.1701   H         1 RES1   0.0000
   361 H201      3.8892    4.6380    5.4416   H         1 RES1   0.0000
   362 H202      4.3156    2.3679    4.6908   H         1 RES1   0.0000
   363 H203      3.0208    2.4612    3.4968   H         1 RES1   0.0000
   364 H204      5.5008    2.8130    2.7006   H         1 RES1   0.0000
   365 H205      5.3497    4.4023    3.4425   H         1 RES1   0.0000
   366 H206      4.7834    4.7915    1.1929   H         1 RES1   0.0000
   367 H207      3.2311    4.6880    2.0203   H         1 RES1   0.0000
   368 H208      3.3249    2.1286    1.3936   H         1 RES1   0.0000
   369 H209      4.5739    2.6074    0.2450   H         1 RES1   0.0000
   370 H210      2.5446    5.2788    0.0500   H         1 RES1   0.0000
   371 H211      1.7511    4.6928   -1.4173   H         1 RES1   0.0000
   372 H212      4.7495    4.4569   -1.1638   H         1 RES1   0.0000
   373 H213      3.9853    6.0046   -1.4948   H         1 RES1   0.0000
   374 H214      2.7531    4.9089   -3.4158   H         1 RES1   0.0000
   375 H215      3.8416    3.5375   -3.2621   H         1 RES1   0.0000
   376 H216      5.2039    6.1855   -3.2548   H         1 RES1   0.0000
   377 H217      6.7133    5.0672   -4.8185   H         1 RES1   0.0000
   378 H218      5.6497    3.6737   -4.9082   H         1 RES1   0.0000
   379 H219      6.0733    3.1518   -2.5407   H         1 RES1   0.0000
   380 H220      6.9698    4.6676   -2.3378   H         1 RES1   0.0000
   381 H221      8.6969    3.9262   -3.8700   H         1 RES1   0.0000
   382 H222      7.7820    2.4825   -4.2958   H         1 RES1   0.0000
   383 H223      8.9066    3.0848   -1.5169   H         1 RES1   0.0000
   384 H224      9.6004    1.9687   -2.6886   H         1 RES1   0.0000
   385 H225      8.0289    1.6212   -1.9712   H         1 RES1   0.0000
   386 H226      3.7500    5.2347   -5.7394   H         1 RES1   0.0000
   387 H227      5.0035    6.4670   -5.7129   H         1 RES1   0.0000
   388 H228      2.3110    6.7162   -4.2954   H         1 RES1   0.0000
   389 H229      2.7268    7.3488   -5.8738   H         1 RES1   0.0000
   390 H230      3.1204    9.2484   -4.7331   H         1 RES1   0.0000
   391 H231      4.7050    8.5343   -4.5177   H         1 RES1   0.0000
   392 H232      3.8382    9.5861   -2.4980   H         1 RES1   0.0000
   393 H233      4.1980    7.8931   -2.2408   H         1 RES1   0.0000
   394 H234      2.1641    8.5553   -1.0875   H         1 RES1   0.0000
   395 H235      1.7906    7.3355   -2.2994   H         1 RES1   0.0000
   396 H236      1.3647   10.3433   -2.6451   H         1 RES1   0.0000
   397 H237      0.1050    9.1730   -2.2737   H         1 RES1   0.0000
   398 H238      0.9343    9.1097   -3.8287   H         1 RES1   0.0000
   399 H239      1.3177    2.1565   -2.4730   H         1 RES1   0.0000
   400 H240      0.2961    3.3555   -1.6198   H         1 RES1   0.0000
   401 H241     -0.4073    1.1180   -3.4081   H         1 RES1   0.0000
   402 H242     -1.4148    2.3775   -2.6402   H         1 RES1   0.0000
   403 H243     -1.6930   -1.7864   -3.7058   H         1 RES1   0.0000
   404 H244     -2.9589   -1.7890   -4.9084   H         1 RES1   0.0000
   405 H245     -4.0423   -2.1042   -2.1948   H         1 RES1   0.0000
   406 H246     -2.8415   -3.3196   -2.5765   H         1 RES1   0.0000
   407 H247     -4.1768   -4.3902   -4.1279   H         1 RES1   0.0000
   408 H248     -4.9426   -2.9080   -4.6733   H         1 RES1   0.0000
   409 H249     -6.3666   -2.8322   -2.7105   H         1 RES1   0.0000
   410 H250     -5.5509   -4.2238   -1.9947   H         1 RES1   0.0000
   411 H251     -6.9743   -4.4333   -4.6715   H         1 RES1   0.0000
   412 H252     -7.8105   -4.5634   -3.1367   H         1 RES1   0.0000
   413 H253     -7.3552   -6.7708   -3.2039   H         1 RES1   0.0000
   414 H254     -5.7092   -6.3528   -2.7590   H         1 RES1   0.0000
   415 H255     -5.1643   -6.2277   -5.2409   H         1 RES1   0.0000
   416 H256     -6.7869   -6.8395   -5.5578   H         1 RES1   0.0000
   417 H257     -4.6845   -8.2796   -3.8837   H         1 RES1   0.0000
   418 H258     -5.1099   -8.6659   -5.5552   H         1 RES1   0.0000
   419 H259     -6.2838   -8.9007   -4.2705   H         1 RES1   0.0000
   420 H260     -5.0366   -0.6654   -3.3452   H         1 RES1   0.0000
   421 H261     -4.4303   -0.5778   -4.9977   H         1 RES1   0.0000
   422 H262     -6.4174    0.1680   -4.7967   H         1 RES1   0.0000
   423 H263     -5.4858    1.4398   -5.4879   H         1 RES1   0.0000
   424 H264     -6.3595    1.8741   -2.6343   H         1 RES1   0.0000
   425 H265     -7.5895    1.5167   -3.7808   H         1 RES1   0.0000
   426 H266     -7.1879    3.4345   -5.1365   H         1 RES1   0.0000
   427 H267     -8.9970    3.0751   -3.5200   H         1 RES1   0.0000
   428 H268     -8.5460    4.7752   -3.5756   H         1 RES1   0.0000
   429 H269     -7.1105    4.3834   -1.5034   H         1 RES1   0.0000
   430 H270     -7.7750    2.7579   -1.4158   H         1 RES1   0.0000
   431 H271    -10.0111    3.6145   -1.0445   H         1 RES1   0.0000
   432 H272     -9.4868    5.2673   -1.3419   H         1 RES1   0.0000
   433 H273     -8.4511    3.5119    0.9366   H         1 RES1   0.0000
   434 H274     -9.6621    4.7799    1.1029   H         1 RES1   0.0000
   435 H275     -8.0137    5.2014    0.6447   H         1 RES1   0.0000
   436 H276     -5.0056    4.4323   -3.5139   H         1 RES1   0.0000
   437 H277     -6.4363    5.3240   -3.0915   H         1 RES1   0.0000
   438 H278     -6.7010    5.9993   -5.4576   H         1 RES1   0.0000
   439 H279     -5.1942    5.1821   -5.8547   H         1 RES1   0.0000
   440 H280     -5.6479    7.5161   -3.9561   H         1 RES1   0.0000
   441 H281     -4.8048    7.5634   -5.4827   H         1 RES1   0.0000
   442 H282     -3.5583    5.7417   -3.4948   H         1 RES1   0.0000
   443 H283     -3.6135    7.4180   -2.9984   H         1 RES1   0.0000
   444 H284     -2.3016    8.1188   -4.8943   H         1 RES1   0.0000
   445 H285     -2.4766    6.5576   -5.6916   H         1 RES1   0.0000
   446 H286     -0.9120    7.1548   -3.1276   H         1 RES1   0.0000
   447 H287     -0.2454    6.6990   -4.6915   H         1 RES1   0.0000
   448 H288     -1.1549    5.5217   -3.7558   H         1 RES1   0.0000
@<TRIPOS>BOND
     1     1    26    1
     2     1    28    1
     3     1    31    1
     4     1   175    1
     5     1   177    1
     6     1   180    1
     7     1   324    1
     8     1   326    1
     9     1   329    1
    10     2     3    1
    11     2    55    1
    12     2    56    1
    13     2    57    1
    14     3     4    1
    15     3    58    1
    16     3    59    1
    17     4     5    1
    18     4    60    1
    19     4    61    1
    20     5     6    1
    21     5    62    1
    22     5    63    1
    23     6     7    1
    24     6    64    1
    25     6    65    1
    26     7     8    1
    27     7    66    1
    28     7    67    1
    29     8     9    1
    30     8    68    1
    31     8    69    1
    32     9    10    1
    33     9    70    1
    34     9    71    1
    35    10    11    1
    36    10    25    1
    37    11    12    1
    38    11    72    1
    39    11    73    1
    40    12    13    1
    41    12    74    1
    42    12    75    1
    43    13    14    1
    44    13    76    1
    45    13    77    1
    46    14    15    1
    47    14    19    1
    48    14    78    1
    49    15    16    1
    50    15    79    1
    51    15    80    1
    52    16    17    1
    53    16    81    1
    54    16    82    1
    55    17    18    1
    56    17    83    1
    57    17    84    1
    58    18    85    1
    59    18    86    1
    60    18    87    1
    61    19    20    1
    62    19    88    1
    63    19    89    1
    64    20    21    1
    65    20    90    1
    66    20    91    1
    67    21    22    1
    68    21    92    1
    69    21    93    1
    70    22    23    1
    71    22    94    1
    72    22    95    1
    73    23    24    1
    74    23    96    1
    75    23    97    1
    76    24    98    1
    77    24    99    1
    78    24   100    1
    79    25    26    2
    80    25    27    1
    81    27    28    1
    82    27   101    1
    83    27   102    1
    84    28    29    1
    85    29    30    1
    86    29   103    1
    87    29   104    1
    88    30    31    2
    89    30    32    1
    90    32    33    1
    91    32    41    1
    92    33    34    1
    93    33   105    1
    94    33   106    1
    95    34    35    1
    96    34   107    1
    97    34   108    1
    98    35    36    1
    99    35   109    1
   100    35   110    1
   101    36    37    1
   102    36   111    1
   103    36   112    1
   104    37    38    1
   105    37   113    1
   106    37   114    1
   107    38    39    1
   108    38   115    1
   109    38   116    1
   110    39    40    1
   111    39   117    1
   112    39   118    1
   113    40   119    1
   114    40   120    1
   115    40   121    1
   116    41    42    1
   117    41   122    1
   118    41   123    1
   119    42    43    1
   120    42   124    1
   121    42   125    1
   122    43    44    1
   123    43   126    1
   124    43   127    1
   125    44    45    1
   126    44    49    1
   127    44   128    1
   128    45    46    1
   129    45   129    1
   130    45   130    1
   131    46    47    1
   132    46   131    1
   133    46   132    1
   134    47    48    1
   135    47   133    1
   136    47   134    1
   137    48   135    1
   138    48   136    1
   139    48   137    1
   140    49    50    1
   141    49   138    1
   142    49   139    1
   143    50    51    1
   144    50   140    1
   145    50   141    1
   146    51    52    1
   147    51   142    1
   148    51   143    1
   149    52    53    1
   150    52   144    1
   151    52   145    1
   152    53    54    1
   153    53   146    1
   154    53   147    1
   155    54   148    1
   156    54   149    1
   157    54   150    1
   158   151   152    1
   159   151   204    1
   160   151   205    1
   161   151   206    1
   162   152   153    1
   163   152   207    1
   164   152   208    1
   165   153   154    1
   166   153   209    1
   167   153   210    1
   168   154   155    1
   169   154   211    1
   170   154   212    1
   171   155   156    1
   172   155   213    1
   173   155   214    1
   174   156   157    1
   175   156   215    1
   176   156   216    1
   177   157   158    1
   178   157   217    1
   179   157   218    1
   180   158   159    1
   181   158   219    1
   182   158   220    1
   183   159   160    1
   184   159   174    1
   185   160   161    1
   186   160   221    1
   187   160   222    1
   188   161   162    1
   189   161   223    1
   190   161   224    1
   191   162   163    1
   192   162   225    1
   193   162   226    1
   194   163   164    1
   195   163   168    1
   196   163   227    1
   197   164   165    1
   198   164   228    1
   199   164   229    1
   200   165   166    1
   201   165   230    1
   202   165   231    1
   203   166   167    1
   204   166   232    1
   205   166   233    1
   206   167   234    1
   207   167   235    1
   208   167   236    1
   209   168   169    1
   210   168   237    1
   211   168   238    1
   212   169   170    1
   213   169   239    1
   214   169   240    1
   215   170   171    1
   216   170   241    1
   217   170   242    1
   218   171   172    1
   219   171   243    1
   220   171   244    1
   221   172   173    1
   222   172   245    1
   223   172   246    1
   224   173   247    1
   225   173   248    1
   226   173   249    1
   227   174   175    2
   228   174   176    1
   229   176   177    1
   230   176   250    1
   231   176   251    1
   232   177   178    1
   233   178   179    1
   234   178   252    1
   235   178   253    1
   236   179   180    2
   237   179   181    1
   238   181   182    1
   239   181   190    1
   240   182   183    1
   241   182   254    1
   242   182   255    1
   243   183   184    1
   244   183   256    1
   245   183   257    1
   246   184   185    1
   247   184   258    1
   248   184   259    1
   249   185   186    1
   250   185   260    1
   251   185   261    1
   252   186   187    1
   253   186   262    1
   254   186   263    1
   255   187   188    1
   256   187   264    1
   257   187   265    1
   258   188   189    1
   259   188   266    1
   260   188   267    1
   261   189   268    1
   262   189   269    1
   263   189   270    1
   264   190   191    1
   265   190   271    1
   266   190   272    1
   267   191   192    1
   268   191   273    1
   269   191   274    1
   270   192   193    1
   271   192   275    1
   272   192   276    1
   273   193   194    1
   274   193   198    1
   275   193   277    1
   276   194   195    1
   277   194   278    1
   278   194   279    1
   279   195   196    1
   280   195   280    1
   281   195   281    1
   282   196   197    1
   283   196   282    1
   284   196   283    1
   285   197   284    1
   286   197   285    1
   287   197   286    1
   288   198   199    1
   289   198   287    1
   290   198   288    1
   291   199   200    1
   292   199   289    1
   293   199   290    1
   294   200   201    1
   295   200   291    1
   296   200   292    1
   297   201   202    1
   298   201   293    1
   299   201   294    1
   300   202   203    1
   301   202   295    1
   302   202   296    1
   303   203   297    1
   304   203   298    1
   305   203   299    1
   306   300   301    1
   307   300   353    1
   308   300   354    1
   309   300   355    1
   310   301   302    1
   311   301   356    1
   312   301   357    1
   313   302   303    1
   314   302   358    1
   315   302   359    1
   316   303   304    1
   317   303   360    1
   318   303   361    1
   319   304   305    1
   320   304   362    1
   321   304   363    1
   322   305   306    1
   323   305   364    1
   324   305   365    1
   325   306   307    1
   326   306   366    1
   327   306   367    1
   328   307   308    1
   329   307   368    1
   330   307   369    1
   331   308   309    1
   332   308   323    1
   333   309   310    1
   334   309   370    1
   335   309   371    1
   336   310   311    1
   337   310   372    1
   338   310   373    1
   339   311   312    1
   340   311   374    1
   341   311   375    1
   342   312   313    1
   343   312   317    1
   344   312   376    1
   345   313   314    1
   346   313   377    1
   347   313   378    1
   348   314   315    1
   349   314   379    1
   350   314   380    1
   351   315   316    1
   352   315   381    1
   353   315   382    1
   354   316   383    1
   355   316   384    1
   356   316   385    1
   357   317   318    1
   358   317   386    1
   359   317   387    1
   360   318   319    1
   361   318   388    1
   362   318   389    1
   363   319   320    1
   364   319   390    1
   365   319   391    1
   366   320   321    1
   367   320   392    1
   368   320   393    1
   369   321   322    1
   370   321   394    1
   371   321   395    1
   372   322   396    1
   373   322   397    1
   374   322   398    1
   375   323   324    2
   376   323   325    1
   377   325   326    1
   378   325   399    1
   379   325   400    1
   380   326   327    1
   381   327   328    1
   382   327   401    1
   383   327   402    1
   384   328   329    2
   385   328   330    1
   386   330   331    1
   387   330   339    1
   388   331   332    1
   389   331   403    1
   390   331   404    1
   391   332   333    1
   392   332   405    1
   393   332   406    1
   394   333   334    1
   395   333   407    1
   396   333   408    1
   397   334   335    1
   398   334   409    1
   399   334   410    1
   400   335   336    1
   401   335   411    1
   402   335   412    1
   403   336   337    1
   404   336   413    1
   405   336   414    1
   406   337   338    1
   407   337   415    1
   408   337   416    1
   409   338   417    1
   410   338   418    1
   411   338   419    1
   412   339   340    1
   413   339   420    1
   414   339   421    1
   415   340   341    1
   416   340   422    1
   417   340   423    1
   418   341   342    1
   419   341   424    1
   420   341   425    1
   421   342   343    1
   422   342   347    1
   423   342   426    1
   424   343   344    1
   425   343   427    1
   426   343   428    1
   427   344   345    1
   428   344   429    1
   429   344   430    1
   430   345   346    1
   431   345   431    1
   432   345   432    1
   433   346   433    1
   434   346   434    1
   435   346   435    1
   436   347   348    1
   437   347   436    1
   438   347   437    1
   439   348   349    1
   440   348   438    1
   441   348   439    1
   442   349   350    1
   443   349   440    1
   444   349   441    1
   445   350   351    1
   446   350   442    1
   447   350   443    1
   448   351   352    1
   449   351   444    1
   450   351   445    1
   451   352   446    1
   452   352   447    1
   453   352   448    1
@<TRIPOS>SUBSTRUCTURE
     1 RES1      448 GROUP             0 ****  ****    0  
