@<TRIPOS>MOLECULE
capped_square_antiprismatic_0_nunpairedes_0_charge_3 Charge: 3 Unpaired_Electrons: 6 XTB_Unpaired_Electrons: 0 XTB_Charge: 3
   340   345     1     0     0
SMALL
NoCharges
****
Generated from Architector

@<TRIPOS>ATOM
     1 Eu1      -0.2997   -0.2691   -0.1590   Eu        1 RES1   0.0000
     2 C1       -1.6411   -2.1442    7.5814   C.3       1 RES1   0.0000
     3 C2       -1.2706   -1.8294    6.1382   C.3       1 RES1   0.0000
     4 C3       -2.2155   -0.8177    5.4857   C.3       1 RES1   0.0000
     5 C4       -1.9287   -0.6790    3.9874   C.3       1 RES1   0.0000
     6 C5       -2.5967    0.5223    3.3015   C.3       1 RES1   0.0000
     7 C6       -3.9125    0.2261    2.5817   C.3       1 RES1   0.0000
     8 C7       -3.7645   -0.5647    1.2720   C.3       1 RES1   0.0000
     9 C8       -5.0286   -0.4336    0.3947   C.3       1 RES1   0.0000
    10 C9       -5.6018   -1.7244   -0.2195   C.3       1 RES1   0.0000
    11 C10      -5.1834   -2.0314   -1.6630   C.3       1 RES1   0.0000
    12 C11      -3.7653   -2.5883   -1.8179   C.3       1 RES1   0.0000
    13 C12      -3.2278   -2.5179   -3.2668   C.3       1 RES1   0.0000
    14 N1       -1.8566   -2.0388   -3.2804   N.am      1 RES1   0.0000
    15 C13      -0.7024   -2.8742   -3.6208   C.3       1 RES1   0.0000
    16 C14      -0.0005   -2.3207   -4.8796   C.3       1 RES1   0.0000
    17 C15       1.5369   -2.3826   -4.8580   C.3       1 RES1   0.0000
    18 C16       2.2422   -1.0654   -5.2340   C.3       1 RES1   0.0000
    19 C17       2.0656   -0.5473   -6.6633   C.3       1 RES1   0.0000
    20 C18       3.1001    0.5092   -7.0750   C.3       1 RES1   0.0000
    21 C19       2.6755    1.2356   -8.3628   C.3       1 RES1   0.0000
    22 C20       1.8898    2.5195   -8.0773   C.3       1 RES1   0.0000
    23 C21       1.4196    3.2366   -9.3465   C.3       1 RES1   0.0000
    24 C22       0.5393    4.4617   -9.0430   C.3       1 RES1   0.0000
    25 C23      -0.9545    4.1383   -8.9930   C.3       1 RES1   0.0000
    26 C24      -1.7923    5.3212   -8.5183   C.3       1 RES1   0.0000
    27 C25      -1.5657   -0.8751   -2.7259   C.2       1 RES1   0.0000
    28 O1       -0.3981   -0.6048   -2.3667   O.2       1 RES1   0.0000
    29 C26      -2.5885    0.2415   -2.5428   C.3       1 RES1   0.0000
    30 O2       -2.3029    0.8548   -1.2841   O.3       1 RES1   0.0000
    31 C27      -2.7800    2.2043   -1.2255   C.3       1 RES1   0.0000
    32 C28      -2.8095    2.6781    0.2275   C.3       1 RES1   0.0000
    33 O3       -1.4990    2.6075    0.7773   O.3       1 RES1   0.0000
    34 C29      -1.1107    3.8015    1.4560   C.3       1 RES1   0.0000
    35 C30       0.4088    3.8414    1.5143   C.2       1 RES1   0.0000
    36 O4        1.0131    2.7595    1.4076   O.2       1 RES1   0.0000
    37 N2        1.0233    4.9972    1.7084   N.am      1 RES1   0.0000
    38 C31       0.3025    6.2603    1.7310   C.3       1 RES1   0.0000
    39 C32      -0.0909    6.7974    0.3456   C.3       1 RES1   0.0000
    40 C33       1.0770    7.4098   -0.4474   C.3       1 RES1   0.0000
    41 C34       1.4979    6.5587   -1.6455   C.3       1 RES1   0.0000
    42 C35       2.6356    7.2077   -2.4312   C.3       1 RES1   0.0000
    43 C36       2.9871    6.3746   -3.6596   C.3       1 RES1   0.0000
    44 C37       4.3157    6.7673   -4.2976   C.3       1 RES1   0.0000
    45 C38       4.6931    5.8108   -5.4396   C.3       1 RES1   0.0000
    46 C39       6.1870    5.4926   -5.4107   C.3       1 RES1   0.0000
    47 C40       6.6270    4.5452   -6.5264   C.3       1 RES1   0.0000
    48 C41       6.3125    3.0823   -6.2187   C.3       1 RES1   0.0000
    49 C42       6.7869    2.1590   -7.3364   C.3       1 RES1   0.0000
    50 C43       2.4857    5.0021    1.7860   C.3       1 RES1   0.0000
    51 C44       3.0871    5.6138    3.0592   C.3       1 RES1   0.0000
    52 C45       3.5167    4.5885    4.1141   C.3       1 RES1   0.0000
    53 C46       4.7159    3.7107    3.7232   C.3       1 RES1   0.0000
    54 C47       6.0740    4.3538    3.9942   C.3       1 RES1   0.0000
    55 C48       7.2881    3.4503    3.7387   C.3       1 RES1   0.0000
    56 C49       7.4959    2.2226    4.6441   C.3       1 RES1   0.0000
    57 C50       6.7586    0.9647    4.1726   C.3       1 RES1   0.0000
    58 C51       7.4734   -0.3687    4.4267   C.3       1 RES1   0.0000
    59 C52       6.7202   -1.4979    3.7128   C.3       1 RES1   0.0000
    60 C53       7.3593   -2.8860    3.7603   C.3       1 RES1   0.0000
    61 C54       6.5036   -3.8996    2.9972   C.3       1 RES1   0.0000
    62 H1       -0.8823   -2.7751    8.0348   H         1 RES1   0.0000
    63 H2       -2.5876   -2.6717    7.6452   H         1 RES1   0.0000
    64 H3       -1.7200   -1.2314    8.1633   H         1 RES1   0.0000
    65 H4       -1.2720   -2.7554    5.5582   H         1 RES1   0.0000
    66 H5       -0.2542   -1.4265    6.1185   H         1 RES1   0.0000
    67 H6       -2.0785    0.1412    5.9883   H         1 RES1   0.0000
    68 H7       -3.2493   -1.1257    5.6394   H         1 RES1   0.0000
    69 H8       -2.2142   -1.6050    3.4882   H         1 RES1   0.0000
    70 H9       -0.8486   -0.5819    3.8734   H         1 RES1   0.0000
    71 H10      -1.9049    0.9588    2.5697   H         1 RES1   0.0000
    72 H11      -2.7889    1.2798    4.0622   H         1 RES1   0.0000
    73 H12      -4.4080    1.1800    2.3839   H         1 RES1   0.0000
    74 H13      -4.5758   -0.3230    3.2459   H         1 RES1   0.0000
    75 H14      -3.6006   -1.6132    1.5146   H         1 RES1   0.0000
    76 H15      -2.8377   -0.2282    0.7469   H         1 RES1   0.0000
    77 H16      -4.8661    0.3039   -0.3934   H         1 RES1   0.0000
    78 H17      -5.8145   -0.0248    1.0341   H         1 RES1   0.0000
    79 H18      -6.6880   -1.6120   -0.2358   H         1 RES1   0.0000
    80 H19      -5.3713   -2.5722    0.4256   H         1 RES1   0.0000
    81 H20      -5.2942   -1.1185   -2.2541   H         1 RES1   0.0000
    82 H21      -5.8929   -2.7514   -2.0748   H         1 RES1   0.0000
    83 H22      -3.7519   -3.6181   -1.4619   H         1 RES1   0.0000
    84 H23      -3.0839   -2.0340   -1.1645   H         1 RES1   0.0000
    85 H24      -3.8498   -1.8601   -3.8743   H         1 RES1   0.0000
    86 H25      -3.2470   -3.4921   -3.7462   H         1 RES1   0.0000
    87 H26      -1.0354   -3.8979   -3.7605   H         1 RES1   0.0000
    88 H27      -0.0186   -2.8500   -2.7616   H         1 RES1   0.0000
    89 H28      -0.2961   -1.2756   -4.9754   H         1 RES1   0.0000
    90 H29      -0.3776   -2.8378   -5.7612   H         1 RES1   0.0000
    91 H30       1.8868   -3.1810   -5.5124   H         1 RES1   0.0000
    92 H31       1.8605   -2.6306   -3.8443   H         1 RES1   0.0000
    93 H32       3.3143   -1.2163   -5.0671   H         1 RES1   0.0000
    94 H33       1.8734   -0.2873   -4.5583   H         1 RES1   0.0000
    95 H34       1.0665   -0.1206   -6.7726   H         1 RES1   0.0000
    96 H35       2.1647   -1.3749   -7.3644   H         1 RES1   0.0000
    97 H36       4.0653    0.0199   -7.2251   H         1 RES1   0.0000
    98 H37       3.2353    1.2604   -6.2939   H         1 RES1   0.0000
    99 H38       2.0679    0.5586   -8.9671   H         1 RES1   0.0000
   100 H39       3.5599    1.4963   -8.9455   H         1 RES1   0.0000
   101 H40       2.5327    3.1990   -7.5083   H         1 RES1   0.0000
   102 H41       1.0192    2.2887   -7.4583   H         1 RES1   0.0000
   103 H42       0.8676    2.5368   -9.9795   H         1 RES1   0.0000
   104 H43       2.3012    3.5531   -9.9065   H         1 RES1   0.0000
   105 H44       0.6975    5.2204   -9.8099   H         1 RES1   0.0000
   106 H45       0.8496    4.9017   -8.0901   H         1 RES1   0.0000
   107 H46      -1.1228    3.2851   -8.3350   H         1 RES1   0.0000
   108 H47      -1.2917    3.8504   -9.9897   H         1 RES1   0.0000
   109 H48      -1.5485    5.5964   -7.4925   H         1 RES1   0.0000
   110 H49      -2.8516    5.0778   -8.5679   H         1 RES1   0.0000
   111 H50      -1.6187    6.1906   -9.1469   H         1 RES1   0.0000
   112 H51      -3.6374   -0.0593   -2.5793   H         1 RES1   0.0000
   113 H52      -2.4044    0.9617   -3.3590   H         1 RES1   0.0000
   114 H53      -3.7984    2.2598   -1.6266   H         1 RES1   0.0000
   115 H54      -2.1085    2.8428   -1.8182   H         1 RES1   0.0000
   116 H55      -3.4809    2.0548    0.8271   H         1 RES1   0.0000
   117 H56      -3.1918    3.7035    0.2290   H         1 RES1   0.0000
   118 H57      -1.5086    3.8151    2.4881   H         1 RES1   0.0000
   119 H58      -1.5125    4.6568    0.9162   H         1 RES1   0.0000
   120 H59       0.9406    7.0043    2.2041   H         1 RES1   0.0000
   121 H60      -0.5892    6.1517    2.3512   H         1 RES1   0.0000
   122 H61      -0.8517    7.5598    0.5175   H         1 RES1   0.0000
   123 H62      -0.5444    6.0104   -0.2630   H         1 RES1   0.0000
   124 H63       1.9375    7.5667    0.2061   H         1 RES1   0.0000
   125 H64       0.7834    8.3926   -0.8161   H         1 RES1   0.0000
   126 H65       0.6491    6.4267   -2.3230   H         1 RES1   0.0000
   127 H66       1.8085    5.5637   -1.3050   H         1 RES1   0.0000
   128 H67       3.5121    7.3036   -1.7884   H         1 RES1   0.0000
   129 H68       2.3400    8.2111   -2.7391   H         1 RES1   0.0000
   130 H69       2.1757    6.4503   -4.3885   H         1 RES1   0.0000
   131 H70       3.0734    5.3265   -3.3491   H         1 RES1   0.0000
   132 H71       5.0914    6.7215   -3.5272   H         1 RES1   0.0000
   133 H72       4.2759    7.7973   -4.6572   H         1 RES1   0.0000
   134 H73       4.4317    6.2549   -6.4020   H         1 RES1   0.0000
   135 H74       4.1216    4.8783   -5.3460   H         1 RES1   0.0000
   136 H75       6.7380    6.4284   -5.4962   H         1 RES1   0.0000
   137 H76       6.4386    5.0483   -4.4423   H         1 RES1   0.0000
   138 H77       7.7052    4.6346   -6.6686   H         1 RES1   0.0000
   139 H78       6.1452    4.8303   -7.4631   H         1 RES1   0.0000
   140 H79       5.2349    2.9513   -6.0734   H         1 RES1   0.0000
   141 H80       6.8220    2.8042   -5.2895   H         1 RES1   0.0000
   142 H81       6.2483    2.3618   -8.2610   H         1 RES1   0.0000
   143 H82       6.6317    1.1138   -7.0676   H         1 RES1   0.0000
   144 H83       7.8488    2.3160   -7.5173   H         1 RES1   0.0000
   145 H84       2.8709    5.5199    0.9048   H         1 RES1   0.0000
   146 H85       2.7747    3.9529    1.7183   H         1 RES1   0.0000
   147 H86       2.3700    6.2948    3.5152   H         1 RES1   0.0000
   148 H87       3.9620    6.1988    2.7828   H         1 RES1   0.0000
   149 H88       2.6572    3.9591    4.3657   H         1 RES1   0.0000
   150 H89       3.7858    5.1435    5.0133   H         1 RES1   0.0000
   151 H90       4.6433    3.4339    2.6691   H         1 RES1   0.0000
   152 H91       4.6660    2.7909    4.2997   H         1 RES1   0.0000
   153 H92       6.0918    4.6951    5.0303   H         1 RES1   0.0000
   154 H93       6.1814    5.2364    3.3570   H         1 RES1   0.0000
   155 H94       8.1589    4.0926    3.8613   H         1 RES1   0.0000
   156 H95       7.2745    3.1227    2.6966   H         1 RES1   0.0000
   157 H96       7.2162    2.4579    5.6716   H         1 RES1   0.0000
   158 H97       8.5631    1.9976    4.6503   H         1 RES1   0.0000
   159 H98       6.6063    1.0444    3.0936   H         1 RES1   0.0000
   160 H99       5.7821    0.9115    4.6556   H         1 RES1   0.0000
   161 H100      7.5317   -0.5660    5.4971   H         1 RES1   0.0000
   162 H101      8.4919   -0.3192    4.0424   H         1 RES1   0.0000
   163 H102      6.6255   -1.2132    2.6595   H         1 RES1   0.0000
   164 H103      5.7123   -1.5720    4.1319   H         1 RES1   0.0000
   165 H104      7.4724   -3.2176    4.7935   H         1 RES1   0.0000
   166 H105      8.3514   -2.8478    3.3080   H         1 RES1   0.0000
   167 H106      5.5190   -3.9997    3.4571   H         1 RES1   0.0000
   168 H107      6.9826   -4.8758    2.9934   H         1 RES1   0.0000
   169 H108      6.3689   -3.5862    1.9602   H         1 RES1   0.0000
   170 C55       1.6197    2.5683    7.4533   C.3       1 RES1   0.0000
   171 C56       1.2618    1.8956    6.1354   C.3       1 RES1   0.0000
   172 C57       2.3820    1.0156    5.5635   C.3       1 RES1   0.0000
   173 C58       1.9308    0.4846    4.1987   C.3       1 RES1   0.0000
   174 C59       2.8805   -0.4365    3.4136   C.3       1 RES1   0.0000
   175 C60       3.9430    0.2286    2.5332   C.3       1 RES1   0.0000
   176 C61       3.4492    0.9162    1.2634   C.3       1 RES1   0.0000
   177 C62       4.6065    1.5204    0.4391   C.3       1 RES1   0.0000
   178 C63       4.1061    2.7211   -0.3815   C.3       1 RES1   0.0000
   179 C64       4.8370    3.0584   -1.6874   C.3       1 RES1   0.0000
   180 C65       4.7016    2.0714   -2.8480   C.3       1 RES1   0.0000
   181 C66       3.3651    2.0878   -3.6044   C.3       1 RES1   0.0000
   182 N3        2.1400    2.1106   -2.8170   N.am      1 RES1   0.0000
   183 C67       1.0919    3.0447   -3.2224   C.3       1 RES1   0.0000
   184 C68       0.3154    2.3935   -4.3764   C.3       1 RES1   0.0000
   185 C69      -0.7406    3.2953   -5.0302   C.3       1 RES1   0.0000
   186 C70      -1.9689    2.5277   -5.5374   C.3       1 RES1   0.0000
   187 C71      -1.6189    1.2900   -6.3649   C.3       1 RES1   0.0000
   188 C72      -2.8143    0.6652   -7.0855   C.3       1 RES1   0.0000
   189 C73      -2.4138   -0.2122   -8.2779   C.3       1 RES1   0.0000
   190 C74      -1.6177   -1.4737   -7.9402   C.3       1 RES1   0.0000
   191 C75      -1.3399   -2.2842   -9.2100   C.3       1 RES1   0.0000
   192 C76      -0.5950   -3.6015   -8.9565   C.3       1 RES1   0.0000
   193 C77       0.9154   -3.3941   -8.8880   C.3       1 RES1   0.0000
   194 C78       1.6726   -4.6227   -8.4014   C.3       1 RES1   0.0000
   195 C79       1.8302    1.1762   -1.9326   C.2       1 RES1   0.0000
   196 O5        0.8697    1.2822   -1.1386   O.2       1 RES1   0.0000
   197 C80       2.6904   -0.0747   -1.9026   C.3       1 RES1   0.0000
   198 O6        2.0136   -1.0565   -1.1322   O.3       1 RES1   0.0000
   199 C81       2.7644   -2.2620   -0.9728   C.3       1 RES1   0.0000
   200 C82       2.6096   -2.6499    0.4996   C.3       1 RES1   0.0000
   201 O7        1.2302   -2.4922    0.8548   O.3       1 RES1   0.0000
   202 C83       0.6023   -3.6738    1.3233   C.3       1 RES1   0.0000
   203 C84      -0.8895   -3.5538    1.0236   C.2       1 RES1   0.0000
   204 O8       -1.2964   -2.4669    0.5340   O.2       1 RES1   0.0000
   205 N4       -1.6686   -4.5744    1.3471   N.am      1 RES1   0.0000
   206 C85      -1.1127   -5.8719    1.7111   C.3       1 RES1   0.0000
   207 C86      -0.7076   -6.7317    0.5042   C.3       1 RES1   0.0000
   208 C87      -1.8869   -7.2636   -0.3289   C.3       1 RES1   0.0000
   209 C88      -2.1411   -6.4858   -1.6188   C.3       1 RES1   0.0000
   210 C89      -3.3167   -7.0592   -2.4151   C.3       1 RES1   0.0000
   211 C90      -3.7042   -6.0896   -3.5302   C.3       1 RES1   0.0000
   212 C91      -4.7325   -6.6292   -4.5241   C.3       1 RES1   0.0000
   213 C92      -5.0953   -5.5857   -5.5902   C.3       1 RES1   0.0000
   214 C93      -5.9763   -4.4538   -5.0510   C.3       1 RES1   0.0000
   215 C94      -5.9479   -3.2143   -5.9443   C.3       1 RES1   0.0000
   216 C95      -6.7832   -2.0736   -5.3654   C.3       1 RES1   0.0000
   217 C96      -6.6809   -0.8091   -6.2110   C.3       1 RES1   0.0000
   218 C97      -3.1276   -4.4458    1.2782   C.3       1 RES1   0.0000
   219 C98      -3.9446   -5.0954    2.4022   C.3       1 RES1   0.0000
   220 C99      -3.8077   -4.4862    3.8014   C.3       1 RES1   0.0000
   221 C100     -4.6303   -3.2072    4.0081   C.3       1 RES1   0.0000
   222 C101     -6.1430   -3.3840    3.8795   C.3       1 RES1   0.0000
   223 C102     -6.9055   -2.0534    3.9203   C.3       1 RES1   0.0000
   224 C103     -7.0139   -1.3527    5.2880   C.3       1 RES1   0.0000
   225 C104     -6.3524    0.0267    5.3827   C.3       1 RES1   0.0000
   226 C105     -7.0019    1.0688    4.4752   C.3       1 RES1   0.0000
   227 C106     -6.3669    2.4477    4.6360   C.3       1 RES1   0.0000
   228 C107     -7.0309    3.5052    3.7528   C.3       1 RES1   0.0000
   229 C108     -6.4752    3.5242    2.3331   C.3       1 RES1   0.0000
   230 H109      0.7687    3.1341    7.8233   H         1 RES1   0.0000
   231 H110      2.4493    3.2580    7.3283   H         1 RES1   0.0000
   232 H111      1.8924    1.8336    8.2038   H         1 RES1   0.0000
   233 H112      1.0108    2.6750    5.4091   H         1 RES1   0.0000
   234 H113      0.3655    1.2834    6.2774   H         1 RES1   0.0000
   235 H114      2.5677    0.1879    6.2498   H         1 RES1   0.0000
   236 H115      3.3051    1.5890    5.4749   H         1 RES1   0.0000
   237 H116      1.6675    1.3632    3.6034   H         1 RES1   0.0000
   238 H117      1.0346   -0.1078    4.4162   H         1 RES1   0.0000
   239 H118      2.2707   -1.0975    2.7836   H         1 RES1   0.0000
   240 H119      3.3917   -1.0698    4.1390   H         1 RES1   0.0000
   241 H120      4.6723   -0.5348    2.2670   H         1 RES1   0.0000
   242 H121      4.4632    0.9750    3.1163   H         1 RES1   0.0000
   243 H122      2.7932    1.7288    1.5584   H         1 RES1   0.0000
   244 H123      2.8410    0.2265    0.6626   H         1 RES1   0.0000
   245 H124      5.0901    0.7720   -0.1941   H         1 RES1   0.0000
   246 H125      5.3857    1.8476    1.1310   H         1 RES1   0.0000
   247 H126      4.2036    3.6061    0.2459   H         1 RES1   0.0000
   248 H127      3.0404    2.5869   -0.5751   H         1 RES1   0.0000
   249 H128      5.9011    3.1715   -1.4740   H         1 RES1   0.0000
   250 H129      4.4755    4.0317   -2.0241   H         1 RES1   0.0000
   251 H130      4.9669    1.0681   -2.5212   H         1 RES1   0.0000
   252 H131      5.4440    2.3394   -3.6061   H         1 RES1   0.0000
   253 H132      3.3582    1.2238   -4.2726   H         1 RES1   0.0000
   254 H133      3.3280    2.9832   -4.2237   H         1 RES1   0.0000
   255 H134      1.5441    3.9823   -3.5426   H         1 RES1   0.0000
   256 H135      0.4481    3.2299   -2.3603   H         1 RES1   0.0000
   257 H136     -0.1513    1.4796   -3.9996   H         1 RES1   0.0000
   258 H137      1.0318    2.0931   -5.1364   H         1 RES1   0.0000
   259 H138     -0.2918    3.8197   -5.8754   H         1 RES1   0.0000
   260 H139     -1.0731    4.0499   -4.3143   H         1 RES1   0.0000
   261 H140     -2.5682    3.2119   -6.1428   H         1 RES1   0.0000
   262 H141     -2.5925    2.2394   -4.6861   H         1 RES1   0.0000
   263 H142     -1.1513    0.5298   -5.7340   H         1 RES1   0.0000
   264 H143     -0.8883    1.5810   -7.1169   H         1 RES1   0.0000
   265 H144     -3.4490    1.4638   -7.4720   H         1 RES1   0.0000
   266 H145     -3.4093    0.0767   -6.3808   H         1 RES1   0.0000
   267 H146     -1.8274    0.3892   -8.9747   H         1 RES1   0.0000
   268 H147     -3.3260   -0.5123   -8.7990   H         1 RES1   0.0000
   269 H148     -2.1899   -2.0911   -7.2400   H         1 RES1   0.0000
   270 H149     -0.6717   -1.2022   -7.4703   H         1 RES1   0.0000
   271 H150     -0.7582   -1.6712   -9.9037   H         1 RES1   0.0000
   272 H151     -2.2954   -2.4989   -9.6890   H         1 RES1   0.0000
   273 H152     -0.8213   -4.3067   -9.7575   H         1 RES1   0.0000
   274 H153     -0.9470   -4.0520   -8.0226   H         1 RES1   0.0000
   275 H154      1.1112   -2.5605   -8.2152   H         1 RES1   0.0000
   276 H155      1.2843   -3.1153   -9.8759   H         1 RES1   0.0000
   277 H156      1.3114   -4.9429   -7.4241   H         1 RES1   0.0000
   278 H157      2.7362   -4.4052   -8.3271   H         1 RES1   0.0000
   279 H158      1.5480   -5.4506   -9.0929   H         1 RES1   0.0000
   280 H159      3.6531    0.1448   -1.4426   H         1 RES1   0.0000
   281 H160      2.8531   -0.4406   -2.9206   H         1 RES1   0.0000
   282 H161      3.8249   -2.1084   -1.1950   H         1 RES1   0.0000
   283 H162      2.3647   -3.0357   -1.6446   H         1 RES1   0.0000
   284 H163      3.1804   -1.9391    1.1064   H         1 RES1   0.0000
   285 H164      2.9705   -3.6657    0.6860   H         1 RES1   0.0000
   286 H165      0.7348   -3.7532    2.4150   H         1 RES1   0.0000
   287 H166      1.0609   -4.5478    0.8560   H         1 RES1   0.0000
   288 H167     -1.8575   -6.4144    2.2880   H         1 RES1   0.0000
   289 H168     -0.2578   -5.7310    2.3724   H         1 RES1   0.0000
   290 H169     -0.1449   -7.5765    0.9055   H         1 RES1   0.0000
   291 H170     -0.0409   -6.1583   -0.1434   H         1 RES1   0.0000
   292 H171     -2.8004   -7.2633    0.2674   H         1 RES1   0.0000
   293 H172     -1.6946   -8.3023   -0.5970   H         1 RES1   0.0000
   294 H173     -1.2556   -6.5175   -2.2574   H         1 RES1   0.0000
   295 H174     -2.3387   -5.4316   -1.3926   H         1 RES1   0.0000
   296 H175     -4.1725   -7.2233   -1.7583   H         1 RES1   0.0000
   297 H176     -3.0409   -8.0256   -2.8387   H         1 RES1   0.0000
   298 H177     -2.7950   -5.8097   -4.0762   H         1 RES1   0.0000
   299 H178     -4.1202   -5.1954   -3.0592   H         1 RES1   0.0000
   300 H179     -5.6355   -6.9251   -3.9846   H         1 RES1   0.0000
   301 H180     -4.3171   -7.5128   -5.0136   H         1 RES1   0.0000
   302 H181     -5.6235   -6.0845   -6.4036   H         1 RES1   0.0000
   303 H182     -4.1717   -5.1714   -6.0099   H         1 RES1   0.0000
   304 H183     -5.6407   -4.1682   -4.0497   H         1 RES1   0.0000
   305 H184     -7.0038   -4.8098   -4.9589   H         1 RES1   0.0000
   306 H185     -6.3136   -3.4645   -6.9410   H         1 RES1   0.0000
   307 H186     -4.9139   -2.8704   -6.0554   H         1 RES1   0.0000
   308 H187     -6.4384   -1.8634   -4.3474   H         1 RES1   0.0000
   309 H188     -7.8271   -2.3830   -5.3011   H         1 RES1   0.0000
   310 H189     -5.6403   -0.5096   -6.3356   H         1 RES1   0.0000
   311 H190     -7.2242    0.0102   -5.7450   H         1 RES1   0.0000
   312 H191     -7.1018   -0.9788   -7.1979   H         1 RES1   0.0000
   313 H192     -3.4774   -4.8799    0.3391   H         1 RES1   0.0000
   314 H193     -3.3278   -3.3737    1.2608   H         1 RES1   0.0000
   315 H194     -3.7628   -6.1697    2.4477   H         1 RES1   0.0000
   316 H195     -4.9919   -4.9972    2.1157   H         1 RES1   0.0000
   317 H196     -2.7556   -4.2852    4.0238   H         1 RES1   0.0000
   318 H197     -4.1515   -5.2271    4.5249   H         1 RES1   0.0000
   319 H198     -4.3134   -2.4437    3.3011   H         1 RES1   0.0000
   320 H199     -4.4174   -2.8273    5.0040   H         1 RES1   0.0000
   321 H200     -6.5048   -4.0538    4.6590   H         1 RES1   0.0000
   322 H201     -6.3834   -3.8500    2.9201   H         1 RES1   0.0000
   323 H202     -7.9141   -2.2499    3.5574   H         1 RES1   0.0000
   324 H203     -6.4337   -1.3868    3.1979   H         1 RES1   0.0000
   325 H204     -6.6007   -1.9918    6.0695   H         1 RES1   0.0000
   326 H205     -8.0691   -1.2064    5.5256   H         1 RES1   0.0000
   327 H206     -5.2837   -0.0372    5.1702   H         1 RES1   0.0000
   328 H207     -6.4445    0.3773    6.4136   H         1 RES1   0.0000
   329 H208     -8.0570    1.1475    4.7354   H         1 RES1   0.0000
   330 H209     -6.9555    0.7519    3.4326   H         1 RES1   0.0000
   331 H210     -6.4609    2.7422    5.6795   H         1 RES1   0.0000
   332 H211     -5.2989    2.4049    4.4120   H         1 RES1   0.0000
   333 H212     -6.8915    4.4936    4.1917   H         1 RES1   0.0000
   334 H213     -8.1014    3.3106    3.7199   H         1 RES1   0.0000
   335 H214     -5.4276    3.8305    2.3387   H         1 RES1   0.0000
   336 H215     -7.0307    4.2272    1.7162   H         1 RES1   0.0000
   337 H216     -6.5476    2.5400    1.8712   H         1 RES1   0.0000
   338 O9        0.1885    0.3698    1.8027   O.3       1 RES1   0.0000
   339 H217      0.6899    0.1130    2.5949   H         1 RES1   0.0000
   340 H218      0.4232    1.3554    1.7123   H         1 RES1   0.0000
@<TRIPOS>BOND
     1     1    28    1
     2     1    30    1
     3     1    33    1
     4     1    36    1
     5     1   196    1
     6     1   198    1
     7     1   201    1
     8     1   204    1
     9     1   338    1
    10     2     3    1
    11     2    62    1
    12     2    63    1
    13     2    64    1
    14     3     4    1
    15     3    65    1
    16     3    66    1
    17     4     5    1
    18     4    67    1
    19     4    68    1
    20     5     6    1
    21     5    69    1
    22     5    70    1
    23     6     7    1
    24     6    71    1
    25     6    72    1
    26     7     8    1
    27     7    73    1
    28     7    74    1
    29     8     9    1
    30     8    75    1
    31     8    76    1
    32     9    10    1
    33     9    77    1
    34     9    78    1
    35    10    11    1
    36    10    79    1
    37    10    80    1
    38    11    12    1
    39    11    81    1
    40    11    82    1
    41    12    13    1
    42    12    83    1
    43    12    84    1
    44    13    14    1
    45    13    85    1
    46    13    86    1
    47    14    15    1
    48    14    27    1
    49    15    16    1
    50    15    87    1
    51    15    88    1
    52    16    17    1
    53    16    89    1
    54    16    90    1
    55    17    18    1
    56    17    91    1
    57    17    92    1
    58    18    19    1
    59    18    93    1
    60    18    94    1
    61    19    20    1
    62    19    95    1
    63    19    96    1
    64    20    21    1
    65    20    97    1
    66    20    98    1
    67    21    22    1
    68    21    99    1
    69    21   100    1
    70    22    23    1
    71    22   101    1
    72    22   102    1
    73    23    24    1
    74    23   103    1
    75    23   104    1
    76    24    25    1
    77    24   105    1
    78    24   106    1
    79    25    26    1
    80    25   107    1
    81    25   108    1
    82    26   109    1
    83    26   110    1
    84    26   111    1
    85    27    28    2
    86    27    29    1
    87    29    30    1
    88    29   112    1
    89    29   113    1
    90    30    31    1
    91    31    32    1
    92    31   114    1
    93    31   115    1
    94    32    33    1
    95    32   116    1
    96    32   117    1
    97    33    34    1
    98    34    35    1
    99    34   118    1
   100    34   119    1
   101    35    36    2
   102    35    37    1
   103    37    38    1
   104    37    50    1
   105    38    39    1
   106    38   120    1
   107    38   121    1
   108    39    40    1
   109    39   122    1
   110    39   123    1
   111    40    41    1
   112    40   124    1
   113    40   125    1
   114    41    42    1
   115    41   126    1
   116    41   127    1
   117    42    43    1
   118    42   128    1
   119    42   129    1
   120    43    44    1
   121    43   130    1
   122    43   131    1
   123    44    45    1
   124    44   132    1
   125    44   133    1
   126    45    46    1
   127    45   134    1
   128    45   135    1
   129    46    47    1
   130    46   136    1
   131    46   137    1
   132    47    48    1
   133    47   138    1
   134    47   139    1
   135    48    49    1
   136    48   140    1
   137    48   141    1
   138    49   142    1
   139    49   143    1
   140    49   144    1
   141    50    51    1
   142    50   145    1
   143    50   146    1
   144    51    52    1
   145    51   147    1
   146    51   148    1
   147    52    53    1
   148    52   149    1
   149    52   150    1
   150    53    54    1
   151    53   151    1
   152    53   152    1
   153    54    55    1
   154    54   153    1
   155    54   154    1
   156    55    56    1
   157    55   155    1
   158    55   156    1
   159    56    57    1
   160    56   157    1
   161    56   158    1
   162    57    58    1
   163    57   159    1
   164    57   160    1
   165    58    59    1
   166    58   161    1
   167    58   162    1
   168    59    60    1
   169    59   163    1
   170    59   164    1
   171    60    61    1
   172    60   165    1
   173    60   166    1
   174    61   167    1
   175    61   168    1
   176    61   169    1
   177   170   171    1
   178   170   230    1
   179   170   231    1
   180   170   232    1
   181   171   172    1
   182   171   233    1
   183   171   234    1
   184   172   173    1
   185   172   235    1
   186   172   236    1
   187   173   174    1
   188   173   237    1
   189   173   238    1
   190   174   175    1
   191   174   239    1
   192   174   240    1
   193   175   176    1
   194   175   241    1
   195   175   242    1
   196   176   177    1
   197   176   243    1
   198   176   244    1
   199   177   178    1
   200   177   245    1
   201   177   246    1
   202   178   179    1
   203   178   247    1
   204   178   248    1
   205   179   180    1
   206   179   249    1
   207   179   250    1
   208   180   181    1
   209   180   251    1
   210   180   252    1
   211   181   182    1
   212   181   253    1
   213   181   254    1
   214   182   183    1
   215   182   195    1
   216   183   184    1
   217   183   255    1
   218   183   256    1
   219   184   185    1
   220   184   257    1
   221   184   258    1
   222   185   186    1
   223   185   259    1
   224   185   260    1
   225   186   187    1
   226   186   261    1
   227   186   262    1
   228   187   188    1
   229   187   263    1
   230   187   264    1
   231   188   189    1
   232   188   265    1
   233   188   266    1
   234   189   190    1
   235   189   267    1
   236   189   268    1
   237   190   191    1
   238   190   269    1
   239   190   270    1
   240   191   192    1
   241   191   271    1
   242   191   272    1
   243   192   193    1
   244   192   273    1
   245   192   274    1
   246   193   194    1
   247   193   275    1
   248   193   276    1
   249   194   277    1
   250   194   278    1
   251   194   279    1
   252   195   196    2
   253   195   197    1
   254   197   198    1
   255   197   280    1
   256   197   281    1
   257   198   199    1
   258   199   200    1
   259   199   282    1
   260   199   283    1
   261   200   201    1
   262   200   284    1
   263   200   285    1
   264   201   202    1
   265   202   203    1
   266   202   286    1
   267   202   287    1
   268   203   204    2
   269   203   205    1
   270   205   206    1
   271   205   218    1
   272   206   207    1
   273   206   288    1
   274   206   289    1
   275   207   208    1
   276   207   290    1
   277   207   291    1
   278   208   209    1
   279   208   292    1
   280   208   293    1
   281   209   210    1
   282   209   294    1
   283   209   295    1
   284   210   211    1
   285   210   296    1
   286   210   297    1
   287   211   212    1
   288   211   298    1
   289   211   299    1
   290   212   213    1
   291   212   300    1
   292   212   301    1
   293   213   214    1
   294   213   302    1
   295   213   303    1
   296   214   215    1
   297   214   304    1
   298   214   305    1
   299   215   216    1
   300   215   306    1
   301   215   307    1
   302   216   217    1
   303   216   308    1
   304   216   309    1
   305   217   310    1
   306   217   311    1
   307   217   312    1
   308   218   219    1
   309   218   313    1
   310   218   314    1
   311   219   220    1
   312   219   315    1
   313   219   316    1
   314   220   221    1
   315   220   317    1
   316   220   318    1
   317   221   222    1
   318   221   319    1
   319   221   320    1
   320   222   223    1
   321   222   321    1
   322   222   322    1
   323   223   224    1
   324   223   323    1
   325   223   324    1
   326   224   225    1
   327   224   325    1
   328   224   326    1
   329   225   226    1
   330   225   327    1
   331   225   328    1
   332   226   227    1
   333   226   329    1
   334   226   330    1
   335   227   228    1
   336   227   331    1
   337   227   332    1
   338   228   229    1
   339   228   333    1
   340   228   334    1
   341   229   335    1
   342   229   336    1
   343   229   337    1
   344   338   339    1
   345   338   340    1
@<TRIPOS>SUBSTRUCTURE
     1 RES1      340 GROUP             0 ****  ****    0  
