@<TRIPOS>MOLECULE
am_c3_9H2O_c0_0_nunpairedes_0_charge_3 Charge: 3 Unpaired_Electrons: 6 XTB_Unpaired_Electrons: 0 XTB_Charge: 3
   352   360     1     0     0
SMALL
NoCharges
****
Generated from Architector

@<TRIPOS>ATOM
     1 Eu1       0.0414    0.0501   -0.1936   Eu        1 RES1   0.0000
     2 C1       -8.6170    0.4161    4.0084   C.3       1 RES1   0.0000
     3 C2       -7.4408   -0.3640    3.4327   C.3       1 RES1   0.0000
     4 C3       -7.0388   -1.5622    4.2949   C.3       1 RES1   0.0000
     5 C4       -6.5446   -1.2636    5.7123   C.3       1 RES1   0.0000
     6 C5       -5.1469   -0.6403    5.7729   C.3       1 RES1   0.0000
     7 C6       -5.1356    0.8892    5.7658   C.3       1 RES1   0.0000
     8 C7       -3.7611    1.4126    5.3305   C.3       1 RES1   0.0000
     9 C8       -3.6450    1.3905    3.8041   C.3       1 RES1   0.0000
    10 N1       -2.2839    1.2511    3.2993   N.am      1 RES1   0.0000
    11 C9       -1.1756    1.8068    4.0786   C.3       1 RES1   0.0000
    12 C10      -0.3100    0.8257    4.8656   C.3       1 RES1   0.0000
    13 C11       0.8597    1.5591    5.5448   C.3       1 RES1   0.0000
    14 C12       0.6141    2.0983    6.9596   C.3       1 RES1   0.0000
    15 C13      -0.2007    3.3996    7.0886   C.3       1 RES1   0.0000
    16 C14      -1.4907    3.2096    7.8904   C.3       1 RES1   0.0000
    17 C15      -2.2155    4.5220    8.2011   C.3       1 RES1   0.0000
    18 C16      -2.6722    5.2872    6.9669   C.3       1 RES1   0.0000
    19 C17      -1.9833    0.8227    2.0736   C.2       1 RES1   0.0000
    20 O1       -0.7918    0.6705    1.7406   O.2       1 RES1   0.0000
    21 C18      -3.0997    0.6340    1.0333   C.3       1 RES1   0.0000
    22 C19      -3.6182    1.9996    0.5846   C.3       1 RES1   0.0000
    23 C20      -4.1754    1.7037   -0.8048   C.3       1 RES1   0.0000
    24 C21      -3.2155    0.6316   -1.3391   C.3       1 RES1   0.0000
    25 C22      -2.0698    1.1704   -2.2350   C.2       1 RES1   0.0000
    26 O2       -0.9377    1.1591   -1.7225   O.2       1 RES1   0.0000
    27 N2       -2.2491    1.6066   -3.4760   N.am      1 RES1   0.0000
    28 C23      -1.0407    2.1043   -4.1580   C.3       1 RES1   0.0000
    29 C24      -0.7825    1.6254   -5.5883   C.3       1 RES1   0.0000
    30 C25       0.1643    0.4288   -5.6538   C.3       1 RES1   0.0000
    31 C26       0.5421    0.0974   -7.1025   C.3       1 RES1   0.0000
    32 C27       1.6383    0.9864   -7.7059   C.3       1 RES1   0.0000
    33 C28       3.0500    0.7290   -7.1554   C.3       1 RES1   0.0000
    34 C29       3.5165    1.6854   -6.0540   C.3       1 RES1   0.0000
    35 C30       3.7987    3.0960   -6.5515   C.3       1 RES1   0.0000
    36 C31      -3.5431    1.8478   -4.1013   C.3       1 RES1   0.0000
    37 C32      -4.0167    3.3112   -4.0013   C.3       1 RES1   0.0000
    38 C33      -3.5424    4.2420   -5.1336   C.3       1 RES1   0.0000
    39 C34      -3.2166    5.6536   -4.6241   C.3       1 RES1   0.0000
    40 C35      -2.0300    5.5981   -3.6695   C.3       1 RES1   0.0000
    41 C36      -1.4195    6.9288   -3.2416   C.3       1 RES1   0.0000
    42 C37      -0.5817    6.7149   -1.9718   C.3       1 RES1   0.0000
    43 C38       0.2629    5.4378   -2.0282   C.3       1 RES1   0.0000
    44 O3       -2.5920    0.0394   -0.1715   O.3       1 RES1   0.0000
    45 H1       -8.9537    1.1738    3.3033   H         1 RES1   0.0000
    46 H2       -8.3462    0.9133    4.9360   H         1 RES1   0.0000
    47 H3       -9.4462   -0.2568    4.2130   H         1 RES1   0.0000
    48 H4       -6.5911    0.3095    3.2855   H         1 RES1   0.0000
    49 H5       -7.7270   -0.7433    2.4472   H         1 RES1   0.0000
    50 H6       -6.2613   -2.1230    3.7696   H         1 RES1   0.0000
    51 H7       -7.9070   -2.2170    4.3789   H         1 RES1   0.0000
    52 H8       -6.5190   -2.2146    6.2447   H         1 RES1   0.0000
    53 H9       -7.2565   -0.6260    6.2350   H         1 RES1   0.0000
    54 H10      -4.5583   -1.0126    4.9271   H         1 RES1   0.0000
    55 H11      -4.6428   -0.9769    6.6823   H         1 RES1   0.0000
    56 H12      -5.3571    1.2528    6.7692   H         1 RES1   0.0000
    57 H13      -5.9079    1.2793    5.1026   H         1 RES1   0.0000
    58 H14      -3.0020    0.7701    5.7740   H         1 RES1   0.0000
    59 H15      -3.6201    2.4246    5.7049   H         1 RES1   0.0000
    60 H16      -4.0939    2.3077    3.4108   H         1 RES1   0.0000
    61 H17      -4.2204    0.5430    3.4336   H         1 RES1   0.0000
    62 H18      -1.5980    2.5304    4.7678   H         1 RES1   0.0000
    63 H19      -0.5218    2.3141    3.3596   H         1 RES1   0.0000
    64 H20       0.0951    0.0942    4.1655   H         1 RES1   0.0000
    65 H21      -0.8988    0.2970    5.6165   H         1 RES1   0.0000
    66 H22       1.1952    2.3742    4.8976   H         1 RES1   0.0000
    67 H23       1.6921    0.8566    5.6216   H         1 RES1   0.0000
    68 H24       1.5997    2.2706    7.3935   H         1 RES1   0.0000
    69 H25       0.1416    1.3135    7.5510   H         1 RES1   0.0000
    70 H26      -0.4256    3.8074    6.1016   H         1 RES1   0.0000
    71 H27       0.4005    4.1423    7.6123   H         1 RES1   0.0000
    72 H28      -1.2378    2.7347    8.8414   H         1 RES1   0.0000
    73 H29      -2.1675    2.5360    7.3589   H         1 RES1   0.0000
    74 H30      -1.5599    5.1610    8.7922   H         1 RES1   0.0000
    75 H31      -3.0868    4.2937    8.8162   H         1 RES1   0.0000
    76 H32      -1.8244    5.6476    6.3915   H         1 RES1   0.0000
    77 H33      -3.2644    6.1461    7.2641   H         1 RES1   0.0000
    78 H34      -3.2898    4.6620    6.3262   H         1 RES1   0.0000
    79 H35      -3.9153   -0.0016    1.4117   H         1 RES1   0.0000
    80 H36      -2.7545    2.6637    0.5089   H         1 RES1   0.0000
    81 H37      -4.3720    2.4228    1.2446   H         1 RES1   0.0000
    82 H38      -4.1832    2.5925   -1.4254   H         1 RES1   0.0000
    83 H39      -5.1910    1.3149   -0.7340   H         1 RES1   0.0000
    84 H40      -3.7503   -0.1633   -1.8744   H         1 RES1   0.0000
    85 H41      -0.1917    1.8050   -3.5379   H         1 RES1   0.0000
    86 H42      -1.0980    3.1924   -4.1388   H         1 RES1   0.0000
    87 H43      -0.3225    2.4539   -6.1279   H         1 RES1   0.0000
    88 H44      -1.7103    1.3813   -6.1046   H         1 RES1   0.0000
    89 H45      -0.3053   -0.4384   -5.1823   H         1 RES1   0.0000
    90 H46       1.0627    0.6474   -5.0767   H         1 RES1   0.0000
    91 H47       0.8648   -0.9442   -7.1681   H         1 RES1   0.0000
    92 H48      -0.3576    0.1945   -7.7162   H         1 RES1   0.0000
    93 H49       1.3728    2.0357   -7.5813   H         1 RES1   0.0000
    94 H50       1.6461    0.7884   -8.7783   H         1 RES1   0.0000
    95 H51       3.7683    0.7928   -7.9734   H         1 RES1   0.0000
    96 H52       3.0911   -0.2963   -6.7815   H         1 RES1   0.0000
    97 H53       4.4354    1.2807   -5.6225   H         1 RES1   0.0000
    98 H54       2.7729    1.7331   -5.2559   H         1 RES1   0.0000
    99 H55       4.5661    3.0837   -7.3175   H         1 RES1   0.0000
   100 H56       4.1467    3.7187   -5.7320   H         1 RES1   0.0000
   101 H57       2.9104    3.5544   -6.9745   H         1 RES1   0.0000
   102 H58      -4.2707    1.1938   -3.6210   H         1 RES1   0.0000
   103 H59      -3.4746    1.5628   -5.1499   H         1 RES1   0.0000
   104 H60      -3.6757    3.7147   -3.0500   H         1 RES1   0.0000
   105 H61      -5.1057    3.3157   -3.9844   H         1 RES1   0.0000
   106 H62      -4.3177    4.3029   -5.8986   H         1 RES1   0.0000
   107 H63      -2.6505    3.8364   -5.6121   H         1 RES1   0.0000
   108 H64      -4.0876    6.0818   -4.1244   H         1 RES1   0.0000
   109 H65      -2.9685    6.2934   -5.4719   H         1 RES1   0.0000
   110 H66      -1.2389    5.0273   -4.1539   H         1 RES1   0.0000
   111 H67      -2.3248    5.0752   -2.7565   H         1 RES1   0.0000
   112 H68      -2.2050    7.6577   -3.0420   H         1 RES1   0.0000
   113 H69      -0.7895    7.3282   -4.0393   H         1 RES1   0.0000
   114 H70      -1.2525    6.6600   -1.1092   H         1 RES1   0.0000
   115 H71       0.0720    7.5766   -1.8221   H         1 RES1   0.0000
   116 H72      -0.3490    4.5367   -1.9871   H         1 RES1   0.0000
   117 H73       0.9382    5.3896   -1.1778   H         1 RES1   0.0000
   118 H74       0.8614    5.4207   -2.9365   H         1 RES1   0.0000
   119 C39       9.6640   -2.2353    2.8487   C.3       1 RES1   0.0000
   120 C40       8.1432   -2.2573    2.7585   C.3       1 RES1   0.0000
   121 C41       7.5759   -3.6439    2.4429   C.3       1 RES1   0.0000
   122 C42       7.8000   -4.1207    1.0015   C.3       1 RES1   0.0000
   123 C43       6.6074   -3.9166    0.0632   C.3       1 RES1   0.0000
   124 C44       6.3858   -2.4557   -0.3240   C.3       1 RES1   0.0000
   125 C45       5.2257   -2.3008   -1.3051   C.3       1 RES1   0.0000
   126 C46       5.0773   -0.8539   -1.8046   C.3       1 RES1   0.0000
   127 N3        3.7107   -0.5749   -2.2139   N.am      1 RES1   0.0000
   128 C47       3.2847   -1.1432   -3.4951   C.3       1 RES1   0.0000
   129 C48       2.5538   -2.4812   -3.4030   C.3       1 RES1   0.0000
   130 C49       1.9771   -2.8864   -4.7667   C.3       1 RES1   0.0000
   131 C50       2.8534   -3.7704   -5.6619   C.3       1 RES1   0.0000
   132 C51       4.1844   -3.1829   -6.1522   C.3       1 RES1   0.0000
   133 C52       5.3843   -3.6167   -5.3088   C.3       1 RES1   0.0000
   134 C53       6.7166   -3.0787   -5.8347   C.3       1 RES1   0.0000
   135 C54       6.8656   -1.5702   -5.6844   C.3       1 RES1   0.0000
   136 C55       2.7913    0.0513   -1.4927   C.2       1 RES1   0.0000
   137 O4        1.5828    0.0286   -1.8121   O.2       1 RES1   0.0000
   138 C56       3.1968    1.0225   -0.3872   C.3       1 RES1   0.0000
   139 C57       3.3936    2.3983   -1.0272   C.3       1 RES1   0.0000
   140 C58       3.2192    3.3153    0.1765   C.3       1 RES1   0.0000
   141 C59       2.2274    2.5639    1.0852   C.3       1 RES1   0.0000
   142 C60       0.8501    3.2433    1.0329   C.2       1 RES1   0.0000
   143 O5       -0.0168    2.7234    0.3151   O.2       1 RES1   0.0000
   144 N4        0.6674    4.3853    1.7148   N.am      1 RES1   0.0000
   145 C61      -0.4845    5.2341    1.3619   C.3       1 RES1   0.0000
   146 C62      -1.4328    5.7388    2.4552   C.3       1 RES1   0.0000
   147 C63      -2.5673    4.7836    2.8134   C.3       1 RES1   0.0000
   148 C64      -3.7503    5.5228    3.4500   C.3       1 RES1   0.0000
   149 C65      -4.6637    6.2127    2.4305   C.3       1 RES1   0.0000
   150 C66      -5.5358    5.2334    1.6258   C.3       1 RES1   0.0000
   151 C67      -5.1288    5.0928    0.1566   C.3       1 RES1   0.0000
   152 C68      -5.4959    6.3047   -0.6891   C.3       1 RES1   0.0000
   153 C69       1.5644    4.8944    2.7521   C.3       1 RES1   0.0000
   154 C70       2.8348    5.6588    2.3297   C.3       1 RES1   0.0000
   155 C71       2.6000    6.7462    1.2773   C.3       1 RES1   0.0000
   156 C72       3.8426    7.0702    0.4224   C.3       1 RES1   0.0000
   157 C73       3.5553    6.8729   -1.0702   C.3       1 RES1   0.0000
   158 C74       4.8036    6.8009   -1.9532   C.3       1 RES1   0.0000
   159 C75       4.5420    6.0499   -3.2647   C.3       1 RES1   0.0000
   160 C76       3.5152    6.7208   -4.1711   C.3       1 RES1   0.0000
   161 O6        2.1236    1.2258    0.5465   O.3       1 RES1   0.0000
   162 H75      10.0082   -1.2443    3.1348   H         1 RES1   0.0000
   163 H76      10.1218   -2.4917    1.8980   H         1 RES1   0.0000
   164 H77      10.0120   -2.9438    3.5951   H         1 RES1   0.0000
   165 H78       7.8232   -1.5393    2.0003   H         1 RES1   0.0000
   166 H79       7.7437   -1.9363    3.7245   H         1 RES1   0.0000
   167 H80       6.5032   -3.6502    2.6599   H         1 RES1   0.0000
   168 H81       8.0414   -4.3535    3.1276   H         1 RES1   0.0000
   169 H82       8.0269   -5.1855    1.0159   H         1 RES1   0.0000
   170 H83       8.6689   -3.6183    0.5773   H         1 RES1   0.0000
   171 H84       5.7016   -4.3125    0.5338   H         1 RES1   0.0000
   172 H85       6.7816   -4.5016   -0.8442   H         1 RES1   0.0000
   173 H86       7.2992   -2.0694   -0.7782   H         1 RES1   0.0000
   174 H87       6.1753   -1.8712    0.5733   H         1 RES1   0.0000
   175 H88       4.2940   -2.5993   -0.8202   H         1 RES1   0.0000
   176 H89       5.3875   -2.9651   -2.1560   H         1 RES1   0.0000
   177 H90       5.7315   -0.6795   -2.6601   H         1 RES1   0.0000
   178 H91       5.3848   -0.1678   -1.0174   H         1 RES1   0.0000
   179 H92       4.1669   -1.2244   -4.1248   H         1 RES1   0.0000
   180 H93       2.5999   -0.4175   -3.9405   H         1 RES1   0.0000
   181 H94       1.7378   -2.3567   -2.6827   H         1 RES1   0.0000
   182 H95       3.2197   -3.2623   -3.0407   H         1 RES1   0.0000
   183 H96       1.7042   -1.9831   -5.3135   H         1 RES1   0.0000
   184 H97       1.0541   -3.4445   -4.5906   H         1 RES1   0.0000
   185 H98       2.2434   -4.0127   -6.5345   H         1 RES1   0.0000
   186 H99       3.0520   -4.7114   -5.1477   H         1 RES1   0.0000
   187 H100      4.1192   -2.0956   -6.1942   H         1 RES1   0.0000
   188 H101      4.3626   -3.5305   -7.1708   H         1 RES1   0.0000
   189 H102      5.4293   -4.7090   -5.3152   H         1 RES1   0.0000
   190 H103      5.2556   -3.2992   -4.2706   H         1 RES1   0.0000
   191 H104      6.8192   -3.3481   -6.8858   H         1 RES1   0.0000
   192 H105      7.5271   -3.5695   -5.2923   H         1 RES1   0.0000
   193 H106      6.1359   -1.0402   -6.2896   H         1 RES1   0.0000
   194 H107      7.8544   -1.2615   -6.0068   H         1 RES1   0.0000
   195 H108      6.7447   -1.2733   -4.6429   H         1 RES1   0.0000
   196 H109      4.0887    0.7076    0.1714   H         1 RES1   0.0000
   197 H110      2.6016    2.5643   -1.7643   H         1 RES1   0.0000
   198 H111      4.3725    2.5110   -1.4888   H         1 RES1   0.0000
   199 H112      2.8350    4.2874   -0.1168   H         1 RES1   0.0000
   200 H113      4.1793    3.4398    0.6716   H         1 RES1   0.0000
   201 H114      2.5860    2.4914    2.1175   H         1 RES1   0.0000
   202 H115     -1.0614    4.6648    0.6322   H         1 RES1   0.0000
   203 H116     -0.0759    6.1183    0.8703   H         1 RES1   0.0000
   204 H117     -1.8722    6.6563    2.0641   H         1 RES1   0.0000
   205 H118     -0.9016    6.0232    3.3637   H         1 RES1   0.0000
   206 H119     -2.1971    4.0304    3.5048   H         1 RES1   0.0000
   207 H120     -2.9067    4.2754    1.9123   H         1 RES1   0.0000
   208 H121     -3.3627    6.2680    4.1474   H         1 RES1   0.0000
   209 H122     -4.3503    4.8194    4.0324   H         1 RES1   0.0000
   210 H123     -4.0583    6.8094    1.7495   H         1 RES1   0.0000
   211 H124     -5.3038    6.9050    2.9756   H         1 RES1   0.0000
   212 H125     -6.5761    5.5525    1.6623   H         1 RES1   0.0000
   213 H126     -5.4952    4.2497    2.1024   H         1 RES1   0.0000
   214 H127     -5.6340    4.2179   -0.2596   H         1 RES1   0.0000
   215 H128     -4.0506    4.9242    0.0910   H         1 RES1   0.0000
   216 H129     -6.5728    6.4376   -0.7159   H         1 RES1   0.0000
   217 H130     -5.1447    6.1721   -1.7095   H         1 RES1   0.0000
   218 H131     -5.0539    7.2130   -0.2919   H         1 RES1   0.0000
   219 H132      1.8562    4.0591    3.3949   H         1 RES1   0.0000
   220 H133      0.9607    5.5626    3.3657   H         1 RES1   0.0000
   221 H134      3.5837    4.9599    1.9686   H         1 RES1   0.0000
   222 H135      3.2412    6.1075    3.2377   H         1 RES1   0.0000
   223 H136      2.2274    7.6441    1.7698   H         1 RES1   0.0000
   224 H137      1.8221    6.4003    0.6036   H         1 RES1   0.0000
   225 H138      4.6731    6.4226    0.7137   H         1 RES1   0.0000
   226 H139      4.1644    8.0948    0.5936   H         1 RES1   0.0000
   227 H140      2.9018    7.6710   -1.4210   H         1 RES1   0.0000
   228 H141      3.0123    5.9347   -1.1967   H         1 RES1   0.0000
   229 H142      5.5952    6.2752   -1.4104   H         1 RES1   0.0000
   230 H143      5.1589    7.8062   -2.1770   H         1 RES1   0.0000
   231 H144      4.2069    5.0318   -3.0338   H         1 RES1   0.0000
   232 H145      5.4840    5.9715   -3.8088   H         1 RES1   0.0000
   233 H146      2.5465    6.7888   -3.6840   H         1 RES1   0.0000
   234 H147      3.3949    6.1498   -5.0905   H         1 RES1   0.0000
   235 H148      3.8370    7.7256   -4.4308   H         1 RES1   0.0000
   236 C77      -6.2844   -7.3216    2.0971   C.3       1 RES1   0.0000
   237 C78      -5.3294   -6.1819    2.4308   C.3       1 RES1   0.0000
   238 C79      -6.0490   -4.8740    2.7609   C.3       1 RES1   0.0000
   239 C80      -6.8536   -4.2455    1.6203   C.3       1 RES1   0.0000
   240 C81      -5.9949   -3.7071    0.4682   C.3       1 RES1   0.0000
   241 C82      -5.8473   -4.6788   -0.7028   C.3       1 RES1   0.0000
   242 C83      -4.8095   -4.1904   -1.7211   C.3       1 RES1   0.0000
   243 C84      -3.3712   -4.4990   -1.2772   C.3       1 RES1   0.0000
   244 N5       -2.3935   -3.5076   -1.7088   N.am      1 RES1   0.0000
   245 C85      -2.1753   -3.3857   -3.1538   C.3       1 RES1   0.0000
   246 C86      -2.8034   -2.1327   -3.7726   C.3       1 RES1   0.0000
   247 C87      -2.6693   -2.1217   -5.3100   C.3       1 RES1   0.0000
   248 C88      -3.9669   -1.9389   -6.1118   C.3       1 RES1   0.0000
   249 C89      -4.7664   -3.2169   -6.3959   C.3       1 RES1   0.0000
   250 C90      -5.7273   -3.5905   -5.2710   C.3       1 RES1   0.0000
   251 C91      -6.4387   -4.9281   -5.4766   C.3       1 RES1   0.0000
   252 C92      -5.4932   -6.1232   -5.4621   C.3       1 RES1   0.0000
   253 C93      -1.6864   -2.7309   -0.8916   C.2       1 RES1   0.0000
   254 O7       -0.8833   -1.8717   -1.3051   O.2       1 RES1   0.0000
   255 C94      -1.8446   -2.9061    0.6287   C.3       1 RES1   0.0000
   256 C95      -1.2881   -4.2150    1.2031   C.3       1 RES1   0.0000
   257 C96      -0.9062   -3.7792    2.6130   C.3       1 RES1   0.0000
   258 C97      -0.3060   -2.3973    2.3554   C.3       1 RES1   0.0000
   259 C98       1.1737   -2.2182    1.9244   C.2       1 RES1   0.0000
   260 O8        1.3685   -1.5362    0.8912   O.2       1 RES1   0.0000
   261 N6        2.1857   -2.6442    2.6730   N.am      1 RES1   0.0000
   262 C99       3.5436   -2.2390    2.3102   C.3       1 RES1   0.0000
   263 C100      4.2137   -1.3090    3.3282   C.3       1 RES1   0.0000
   264 C101      3.7908    0.1570    3.1829   C.3       1 RES1   0.0000
   265 C102      4.8618    1.1659    3.6285   C.3       1 RES1   0.0000
   266 C103      6.1814    0.9875    2.8686   C.3       1 RES1   0.0000
   267 C104      7.1163    2.2033    2.8746   C.3       1 RES1   0.0000
   268 C105      6.8534    3.2364    1.7773   C.3       1 RES1   0.0000
   269 C106      7.1161    2.7015    0.3723   C.3       1 RES1   0.0000
   270 C107      2.1015   -3.6156    3.7572   C.3       1 RES1   0.0000
   271 C108      2.0217   -5.0676    3.2496   C.3       1 RES1   0.0000
   272 C109      3.3510   -5.7594    2.9209   C.3       1 RES1   0.0000
   273 C110      3.1428   -6.7711    1.7890   C.3       1 RES1   0.0000
   274 C111      3.0024   -6.1007    0.4197   C.3       1 RES1   0.0000
   275 C112      2.4933   -7.0680   -0.6479   C.3       1 RES1   0.0000
   276 C113      2.4963   -6.4561   -2.0509   C.3       1 RES1   0.0000
   277 C114      3.9058   -6.2139   -2.5833   C.3       1 RES1   0.0000
   278 O9       -1.1166   -1.8617    1.2950   O.3       1 RES1   0.0000
   279 H149     -5.7368   -8.2554    1.9942   H         1 RES1   0.0000
   280 H150     -6.8159   -7.1369    1.1677   H         1 RES1   0.0000
   281 H151     -7.0181   -7.4408    2.8898   H         1 RES1   0.0000
   282 H152     -4.6305   -6.0340    1.6021   H         1 RES1   0.0000
   283 H153     -4.7410   -6.4692    3.3055   H         1 RES1   0.0000
   284 H154     -5.3088   -4.1495    3.1185   H         1 RES1   0.0000
   285 H155     -6.7339   -5.0637    3.5882   H         1 RES1   0.0000
   286 H156     -7.4256   -3.4189    2.0425   H         1 RES1   0.0000
   287 H157     -7.5747   -4.9655    1.2350   H         1 RES1   0.0000
   288 H158     -5.0061   -3.4381    0.8575   H         1 RES1   0.0000
   289 H159     -6.4460   -2.7878    0.0814   H         1 RES1   0.0000
   290 H160     -6.8149   -4.7598   -1.2030   H         1 RES1   0.0000
   291 H161     -5.5756   -5.6745   -0.3534   H         1 RES1   0.0000
   292 H162     -4.9266   -3.1110   -1.8366   H         1 RES1   0.0000
   293 H163     -5.0137   -4.6611   -2.6784   H         1 RES1   0.0000
   294 H164     -3.0651   -5.4735   -1.6736   H         1 RES1   0.0000
   295 H165     -3.3647   -4.5657   -0.1970   H         1 RES1   0.0000
   296 H166     -2.5895   -4.2778   -3.6235   H         1 RES1   0.0000
   297 H167     -1.0953   -3.3577   -3.3326   H         1 RES1   0.0000
   298 H168     -2.2880   -1.2668   -3.3503   H         1 RES1   0.0000
   299 H169     -3.8566   -2.0760   -3.4961   H         1 RES1   0.0000
   300 H170     -2.1747   -3.0343   -5.6475   H         1 RES1   0.0000
   301 H171     -2.0157   -1.2978   -5.5866   H         1 RES1   0.0000
   302 H172     -3.6804   -1.5120   -7.0742   H         1 RES1   0.0000
   303 H173     -4.6150   -1.2123   -5.6162   H         1 RES1   0.0000
   304 H174     -4.0748   -4.0382   -6.5862   H         1 RES1   0.0000
   305 H175     -5.3484   -3.0624   -7.3050   H         1 RES1   0.0000
   306 H176     -6.4825   -2.8061   -5.1777   H         1 RES1   0.0000
   307 H177     -5.1734   -3.6318   -4.3358   H         1 RES1   0.0000
   308 H178     -6.9819   -4.9121   -6.4205   H         1 RES1   0.0000
   309 H179     -7.1756   -5.0522   -4.6799   H         1 RES1   0.0000
   310 H180     -4.8389   -6.1176   -6.3282   H         1 RES1   0.0000
   311 H181     -6.0598   -7.0489   -5.4815   H         1 RES1   0.0000
   312 H182     -4.8743   -6.1239   -4.5651   H         1 RES1   0.0000
   313 H183     -2.9019   -2.7751    0.9015   H         1 RES1   0.0000
   314 H184     -0.4079   -4.5224    0.6350   H         1 RES1   0.0000
   315 H185     -2.0029   -5.0352    1.2235   H         1 RES1   0.0000
   316 H186     -0.2594   -4.4798    3.1147   H         1 RES1   0.0000
   317 H187     -1.8073   -3.6610    3.2194   H         1 RES1   0.0000
   318 H188     -0.4351   -1.7438    3.2306   H         1 RES1   0.0000
   319 H189      3.4886   -1.7468    1.3377   H         1 RES1   0.0000
   320 H190      4.1337   -3.1496    2.2013   H         1 RES1   0.0000
   321 H191      5.2853   -1.3950    3.1635   H         1 RES1   0.0000
   322 H192      4.0229   -1.6427    4.3483   H         1 RES1   0.0000
   323 H193      2.8702    0.3256    3.7464   H         1 RES1   0.0000
   324 H194      3.5596    0.3369    2.1355   H         1 RES1   0.0000
   325 H195      5.0392    1.0610    4.6994   H         1 RES1   0.0000
   326 H196      4.4819    2.1787    3.4632   H         1 RES1   0.0000
   327 H197      5.9622    0.7117    1.8350   H         1 RES1   0.0000
   328 H198      6.7244    0.1590    3.3187   H         1 RES1   0.0000
   329 H199      8.1403    1.8489    2.7528   H         1 RES1   0.0000
   330 H200      7.0626    2.6909    3.8487   H         1 RES1   0.0000
   331 H201      7.5184    4.0831    1.9447   H         1 RES1   0.0000
   332 H202      5.8292    3.6114    1.8560   H         1 RES1   0.0000
   333 H203      8.1331    2.3248    0.3037   H         1 RES1   0.0000
   334 H204      6.9978    3.4870   -0.3704   H         1 RES1   0.0000
   335 H205      6.4393    1.8884    0.1144   H         1 RES1   0.0000
   336 H206      1.2378   -3.3835    4.3825   H         1 RES1   0.0000
   337 H207      2.9898   -3.5097    4.3806   H         1 RES1   0.0000
   338 H208      1.4294   -5.0788    2.3360   H         1 RES1   0.0000
   339 H209      1.5052   -5.6627    4.0042   H         1 RES1   0.0000
   340 H210      3.7308   -6.2679    3.8067   H         1 RES1   0.0000
   341 H211      4.1061   -5.0382    2.6134   H         1 RES1   0.0000
   342 H212      2.2499   -7.3615    2.0050   H         1 RES1   0.0000
   343 H213      3.9891   -7.4558    1.7536   H         1 RES1   0.0000
   344 H214      3.9752   -5.7161    0.1126   H         1 RES1   0.0000
   345 H215      2.3194   -5.2452    0.4754   H         1 RES1   0.0000
   346 H216      1.4777   -7.3858   -0.3955   H         1 RES1   0.0000
   347 H217      3.1227   -7.9586   -0.6495   H         1 RES1   0.0000
   348 H218      1.9376   -5.5134   -2.0445   H         1 RES1   0.0000
   349 H219      1.9822   -7.1397   -2.7284   H         1 RES1   0.0000
   350 H220      4.4061   -5.4176   -2.0355   H         1 RES1   0.0000
   351 H221      4.5039   -7.1172   -2.4944   H         1 RES1   0.0000
   352 H222      3.8712   -5.9364   -3.6341   H         1 RES1   0.0000
@<TRIPOS>BOND
     1     1    20    1
     2     1    26    1
     3     1    44    1
     4     1   137    1
     5     1   143    1
     6     1   161    1
     7     1   254    1
     8     1   260    1
     9     1   278    1
    10     2     3    1
    11     2    45    1
    12     2    46    1
    13     2    47    1
    14     3     4    1
    15     3    48    1
    16     3    49    1
    17     4     5    1
    18     4    50    1
    19     4    51    1
    20     5     6    1
    21     5    52    1
    22     5    53    1
    23     6     7    1
    24     6    54    1
    25     6    55    1
    26     7     8    1
    27     7    56    1
    28     7    57    1
    29     8     9    1
    30     8    58    1
    31     8    59    1
    32     9    10    1
    33     9    60    1
    34     9    61    1
    35    10    11    1
    36    10    19    1
    37    11    12    1
    38    11    62    1
    39    11    63    1
    40    12    13    1
    41    12    64    1
    42    12    65    1
    43    13    14    1
    44    13    66    1
    45    13    67    1
    46    14    15    1
    47    14    68    1
    48    14    69    1
    49    15    16    1
    50    15    70    1
    51    15    71    1
    52    16    17    1
    53    16    72    1
    54    16    73    1
    55    17    18    1
    56    17    74    1
    57    17    75    1
    58    18    76    1
    59    18    77    1
    60    18    78    1
    61    19    20    2
    62    19    21    1
    63    21    22    1
    64    21    44    1
    65    21    79    1
    66    22    23    1
    67    22    80    1
    68    22    81    1
    69    23    24    1
    70    23    82    1
    71    23    83    1
    72    24    25    1
    73    24    44    1
    74    24    84    1
    75    25    26    2
    76    25    27    1
    77    27    28    1
    78    27    36    1
    79    28    29    1
    80    28    85    1
    81    28    86    1
    82    29    30    1
    83    29    87    1
    84    29    88    1
    85    30    31    1
    86    30    89    1
    87    30    90    1
    88    31    32    1
    89    31    91    1
    90    31    92    1
    91    32    33    1
    92    32    93    1
    93    32    94    1
    94    33    34    1
    95    33    95    1
    96    33    96    1
    97    34    35    1
    98    34    97    1
    99    34    98    1
   100    35    99    1
   101    35   100    1
   102    35   101    1
   103    36    37    1
   104    36   102    1
   105    36   103    1
   106    37    38    1
   107    37   104    1
   108    37   105    1
   109    38    39    1
   110    38   106    1
   111    38   107    1
   112    39    40    1
   113    39   108    1
   114    39   109    1
   115    40    41    1
   116    40   110    1
   117    40   111    1
   118    41    42    1
   119    41   112    1
   120    41   113    1
   121    42    43    1
   122    42   114    1
   123    42   115    1
   124    43   116    1
   125    43   117    1
   126    43   118    1
   127   119   120    1
   128   119   162    1
   129   119   163    1
   130   119   164    1
   131   120   121    1
   132   120   165    1
   133   120   166    1
   134   121   122    1
   135   121   167    1
   136   121   168    1
   137   122   123    1
   138   122   169    1
   139   122   170    1
   140   123   124    1
   141   123   171    1
   142   123   172    1
   143   124   125    1
   144   124   173    1
   145   124   174    1
   146   125   126    1
   147   125   175    1
   148   125   176    1
   149   126   127    1
   150   126   177    1
   151   126   178    1
   152   127   128    1
   153   127   136    1
   154   128   129    1
   155   128   179    1
   156   128   180    1
   157   129   130    1
   158   129   181    1
   159   129   182    1
   160   130   131    1
   161   130   183    1
   162   130   184    1
   163   131   132    1
   164   131   185    1
   165   131   186    1
   166   132   133    1
   167   132   187    1
   168   132   188    1
   169   133   134    1
   170   133   189    1
   171   133   190    1
   172   134   135    1
   173   134   191    1
   174   134   192    1
   175   135   193    1
   176   135   194    1
   177   135   195    1
   178   136   137    2
   179   136   138    1
   180   138   139    1
   181   138   161    1
   182   138   196    1
   183   139   140    1
   184   139   197    1
   185   139   198    1
   186   140   141    1
   187   140   199    1
   188   140   200    1
   189   141   142    1
   190   141   161    1
   191   141   201    1
   192   142   143    2
   193   142   144    1
   194   144   145    1
   195   144   153    1
   196   145   146    1
   197   145   202    1
   198   145   203    1
   199   146   147    1
   200   146   204    1
   201   146   205    1
   202   147   148    1
   203   147   206    1
   204   147   207    1
   205   148   149    1
   206   148   208    1
   207   148   209    1
   208   149   150    1
   209   149   210    1
   210   149   211    1
   211   150   151    1
   212   150   212    1
   213   150   213    1
   214   151   152    1
   215   151   214    1
   216   151   215    1
   217   152   216    1
   218   152   217    1
   219   152   218    1
   220   153   154    1
   221   153   219    1
   222   153   220    1
   223   154   155    1
   224   154   221    1
   225   154   222    1
   226   155   156    1
   227   155   223    1
   228   155   224    1
   229   156   157    1
   230   156   225    1
   231   156   226    1
   232   157   158    1
   233   157   227    1
   234   157   228    1
   235   158   159    1
   236   158   229    1
   237   158   230    1
   238   159   160    1
   239   159   231    1
   240   159   232    1
   241   160   233    1
   242   160   234    1
   243   160   235    1
   244   236   237    1
   245   236   279    1
   246   236   280    1
   247   236   281    1
   248   237   238    1
   249   237   282    1
   250   237   283    1
   251   238   239    1
   252   238   284    1
   253   238   285    1
   254   239   240    1
   255   239   286    1
   256   239   287    1
   257   240   241    1
   258   240   288    1
   259   240   289    1
   260   241   242    1
   261   241   290    1
   262   241   291    1
   263   242   243    1
   264   242   292    1
   265   242   293    1
   266   243   244    1
   267   243   294    1
   268   243   295    1
   269   244   245    1
   270   244   253    1
   271   245   246    1
   272   245   296    1
   273   245   297    1
   274   246   247    1
   275   246   298    1
   276   246   299    1
   277   247   248    1
   278   247   300    1
   279   247   301    1
   280   248   249    1
   281   248   302    1
   282   248   303    1
   283   249   250    1
   284   249   304    1
   285   249   305    1
   286   250   251    1
   287   250   306    1
   288   250   307    1
   289   251   252    1
   290   251   308    1
   291   251   309    1
   292   252   310    1
   293   252   311    1
   294   252   312    1
   295   253   254    2
   296   253   255    1
   297   255   256    1
   298   255   278    1
   299   255   313    1
   300   256   257    1
   301   256   314    1
   302   256   315    1
   303   257   258    1
   304   257   316    1
   305   257   317    1
   306   258   259    1
   307   258   278    1
   308   258   318    1
   309   259   260    2
   310   259   261    1
   311   261   262    1
   312   261   270    1
   313   262   263    1
   314   262   319    1
   315   262   320    1
   316   263   264    1
   317   263   321    1
   318   263   322    1
   319   264   265    1
   320   264   323    1
   321   264   324    1
   322   265   266    1
   323   265   325    1
   324   265   326    1
   325   266   267    1
   326   266   327    1
   327   266   328    1
   328   267   268    1
   329   267   329    1
   330   267   330    1
   331   268   269    1
   332   268   331    1
   333   268   332    1
   334   269   333    1
   335   269   334    1
   336   269   335    1
   337   270   271    1
   338   270   336    1
   339   270   337    1
   340   271   272    1
   341   271   338    1
   342   271   339    1
   343   272   273    1
   344   272   340    1
   345   272   341    1
   346   273   274    1
   347   273   342    1
   348   273   343    1
   349   274   275    1
   350   274   344    1
   351   274   345    1
   352   275   276    1
   353   275   346    1
   354   275   347    1
   355   276   277    1
   356   276   348    1
   357   276   349    1
   358   277   350    1
   359   277   351    1
   360   277   352    1
@<TRIPOS>SUBSTRUCTURE
     1 RES1      352 GROUP             0 ****  ****    0  
