@<TRIPOS>MOLECULE
tri_tri_mer_capped_0_nunpairedes_0_charge_3 Charge: 3 Unpaired_Electrons: 6 XTB_Unpaired_Electrons: 0 XTB_Charge: 3
    91   104     1     0     0
SMALL
NoCharges
****
Generated from Architector

@<TRIPOS>ATOM
     1 Eu1      -0.1972   -0.1396    0.6635   Eu        1 RES1   0.0000
     2 C1       -0.9643    5.6072    1.6813   C.3       1 RES1   0.0000
     3 C2       -1.5973    4.8137    0.5288   C.3       1 RES1   0.0000
     4 C3       -2.8541    4.0751    1.0382   C.3       1 RES1   0.0000
     5 C4       -1.9370    5.7770   -0.6197   C.3       1 RES1   0.0000
     6 C5       -2.1477    5.0524   -1.9444   C.3       1 RES1   0.0000
     7 C6       -0.8861    4.3271   -2.4369   C.3       1 RES1   0.0000
     8 C7       -1.2735    3.2052   -3.4193   C.3       1 RES1   0.0000
     9 C8        0.0903    5.2802   -3.1583   C.3       1 RES1   0.0000
    10 C9       -0.1549    3.7030   -1.2975   C.ar      1 RES1   0.0000
    11 N1        0.8686    2.9036   -1.5771   N.ar      1 RES1   0.0000
    12 C10       1.3081    2.0953   -0.6343   C.ar      1 RES1   0.0000
    13 C11       2.1533    0.9281   -1.0342   C.ar      1 RES1   0.0000
    14 C12       3.4849    0.8549   -1.4003   C.ar      1 RES1   0.0000
    15 C13       3.9325   -0.3604   -1.9133   C.ar      1 RES1   0.0000
    16 C14       3.0495   -1.4235   -2.0905   C.ar      1 RES1   0.0000
    17 C15       1.7209   -1.2785   -1.6904   C.ar      1 RES1   0.0000
    18 C16       0.5647   -2.1996   -1.9000   C.ar      1 RES1   0.0000
    19 C17       0.4984   -3.1237   -2.9378   C.ar      1 RES1   0.0000
    20 C18      -0.7254   -3.7277   -3.2079   C.ar      1 RES1   0.0000
    21 C19      -1.8275   -3.4724   -2.3948   C.ar      1 RES1   0.0000
    22 C20      -1.6697   -2.6145   -1.3052   C.ar      1 RES1   0.0000
    23 C21      -2.6861   -2.3397   -0.2351   C.ar      1 RES1   0.0000
    24 C22      -3.9402   -2.9206   -0.0170   C.ar      1 RES1   0.0000
    25 C23      -4.6295   -2.5931    1.1511   C.ar      1 RES1   0.0000
    26 C24      -4.0572   -1.7679    2.1194   C.ar      1 RES1   0.0000
    27 C25      -2.8345   -1.2013    1.8185   C.ar      1 RES1   0.0000
    28 C26      -1.8751   -0.4196    2.6661   C.ar      1 RES1   0.0000
    29 N2       -0.6865   -1.0368    2.6210   N.ar      1 RES1   0.0000
    30 N3        0.3929   -0.3374    2.9427   N.ar      1 RES1   0.0000
    31 C27       0.2607    0.7842    3.6284   C.ar      1 RES1   0.0000
    32 C28      -1.0500    1.3186    3.8684   C.ar      1 RES1   0.0000
    33 N4       -2.0745    0.7848    3.1898   N.ar      1 RES1   0.0000
    34 C29      -1.2847    2.3595    4.8988   C.3       1 RES1   0.0000
    35 C30      -2.4198    3.3221    4.5588   C.3       1 RES1   0.0000
    36 C31      -1.7720    1.4509    6.0730   C.3       1 RES1   0.0000
    37 C32      -0.0080    3.1340    5.2955   C.3       1 RES1   0.0000
    38 C33       1.1899    2.9337    4.3625   C.3       1 RES1   0.0000
    39 C34       1.5056    1.4519    4.1216   C.3       1 RES1   0.0000
    40 C35       1.8904    0.7508    5.4395   C.3       1 RES1   0.0000
    41 C36       2.6548    1.2604    3.1204   C.3       1 RES1   0.0000
    42 N5       -2.2109   -1.4626    0.6577   N.ar      1 RES1   0.0000
    43 N6       -0.4955   -1.9727   -1.1061   N.ar      1 RES1   0.0000
    44 N7        1.3252   -0.1280   -1.1172   N.ar      1 RES1   0.0000
    45 N8        0.7171    1.9668    0.5630   N.ar      1 RES1   0.0000
    46 N9       -0.2030    2.8683    0.9121   N.ar      1 RES1   0.0000
    47 C37      -0.5910    3.8007    0.0617   C.ar      1 RES1   0.0000
    48 H1       -0.0983    6.1650    1.3352   H         1 RES1   0.0000
    49 H2       -0.6454    4.9515    2.4853   H         1 RES1   0.0000
    50 H3       -1.6963    6.3115    2.0624   H         1 RES1   0.0000
    51 H4       -3.4339    4.7448    1.6681   H         1 RES1   0.0000
    52 H5       -2.5844    3.1978    1.6258   H         1 RES1   0.0000
    53 H6       -3.4945    3.7705    0.2122   H         1 RES1   0.0000
    54 H7       -1.1328    6.5059   -0.7246   H         1 RES1   0.0000
    55 H8       -2.8461    6.3207   -0.3620   H         1 RES1   0.0000
    56 H9       -2.4656    5.7691   -2.7030   H         1 RES1   0.0000
    57 H10      -2.9577    4.3268   -1.8264   H         1 RES1   0.0000
    58 H11      -1.5557    3.6383   -4.3745   H         1 RES1   0.0000
    59 H12      -2.1273    2.6375   -3.0439   H         1 RES1   0.0000
    60 H13      -0.4362    2.5275   -3.5711   H         1 RES1   0.0000
    61 H14      -0.4491    5.8111   -3.9388   H         1 RES1   0.0000
    62 H15       0.8991    4.7070   -3.6052   H         1 RES1   0.0000
    63 H16       0.5157    6.0125   -2.4773   H         1 RES1   0.0000
    64 H17       4.1389    1.7102   -1.2960   H         1 RES1   0.0000
    65 H18       4.9629   -0.4629   -2.2316   H         1 RES1   0.0000
    66 H19       3.3999   -2.3361   -2.5436   H         1 RES1   0.0000
    67 H20       1.3732   -3.3383   -3.5281   H         1 RES1   0.0000
    68 H21      -0.8141   -4.3902   -4.0588   H         1 RES1   0.0000
    69 H22      -2.7733   -3.9445   -2.6112   H         1 RES1   0.0000
    70 H23      -4.3762   -3.5924   -0.7393   H         1 RES1   0.0000
    71 H24      -5.6121   -3.0027    1.3247   H         1 RES1   0.0000
    72 H25      -4.5218   -1.5755    3.0734   H         1 RES1   0.0000
    73 H26      -3.2393    2.7967    4.0836   H         1 RES1   0.0000
    74 H27      -2.0541    4.0986    3.8983   H         1 RES1   0.0000
    75 H28      -2.7830    3.7962    5.4660   H         1 RES1   0.0000
    76 H29      -2.7438    1.0276    5.8332   H         1 RES1   0.0000
    77 H30      -1.8648    2.0653    6.9658   H         1 RES1   0.0000
    78 H31      -1.0882    0.6322    6.2842   H         1 RES1   0.0000
    79 H32       0.2888    2.8708    6.3092   H         1 RES1   0.0000
    80 H33      -0.2404    4.2000    5.3191   H         1 RES1   0.0000
    81 H34       2.0595    3.4204    4.8086   H         1 RES1   0.0000
    82 H35       0.9951    3.4083    3.3955   H         1 RES1   0.0000
    83 H36       1.1100    0.8266    6.1898   H         1 RES1   0.0000
    84 H37       2.7913    1.2293    5.8168   H         1 RES1   0.0000
    85 H38       2.0864   -0.3052    5.2719   H         1 RES1   0.0000
    86 H39       2.4680    1.7903    2.1831   H         1 RES1   0.0000
    87 H40       2.8064    0.2004    2.9055   H         1 RES1   0.0000
    88 H41       3.5706    1.6520    3.5580   H         1 RES1   0.0000
    89 O1       -2.0232    1.1894   -0.6159   O.3       1 RES1   0.0000
    90 H42      -2.7891    1.6908   -0.2794   H         1 RES1   0.0000
    91 H43      -2.1178    1.1968   -1.5872   H         1 RES1   0.0000
@<TRIPOS>BOND
     1     1    11    1
     2     1    29    1
     3     1    30    1
     4     1    33    1
     5     1    42    1
     6     1    43    1
     7     1    44    1
     8     1    45    1
     9     1    89    1
    10     2     3    1
    11     2    48    1
    12     2    49    1
    13     2    50    1
    14     3     4    1
    15     3     5    1
    16     3    47    1
    17     4    51    1
    18     4    52    1
    19     4    53    1
    20     5     6    1
    21     5    54    1
    22     5    55    1
    23     6     7    1
    24     6    56    1
    25     6    57    1
    26     7     8    1
    27     7     9    1
    28     7    10    1
    29     8    58    1
    30     8    59    1
    31     8    60    1
    32     9    61    1
    33     9    62    1
    34     9    63    1
    35    10    11    1
    36    10    47    2
    37    11    12    2
    38    12    13    1
    39    12    45    1
    40    13    14    1
    41    13    44    2
    42    14    15    2
    43    14    64    1
    44    15    16    1
    45    15    65    1
    46    16    17    2
    47    16    66    1
    48    17    18    1
    49    17    44    1
    50    18    19    1
    51    18    43    2
    52    19    20    2
    53    19    67    1
    54    20    21    1
    55    20    68    1
    56    21    22    2
    57    21    69    1
    58    22    23    1
    59    22    43    1
    60    23    24    1
    61    23    42    2
    62    24    25    2
    63    24    70    1
    64    25    26    1
    65    25    71    1
    66    26    27    2
    67    26    72    1
    68    27    28    1
    69    27    42    1
    70    28    29    1
    71    28    33    2
    72    29    30    2
    73    30    31    1
    74    31    32    2
    75    31    39    1
    76    32    33    1
    77    32    34    1
    78    34    35    1
    79    34    36    1
    80    34    37    1
    81    35    73    1
    82    35    74    1
    83    35    75    1
    84    36    76    1
    85    36    77    1
    86    36    78    1
    87    37    38    1
    88    37    79    1
    89    37    80    1
    90    38    39    1
    91    38    81    1
    92    38    82    1
    93    39    40    1
    94    39    41    1
    95    40    83    1
    96    40    84    1
    97    40    85    1
    98    41    86    1
    99    41    87    1
   100    41    88    1
   101    45    46    2
   102    46    47    1
   103    89    90    1
   104    89    91    1
@<TRIPOS>SUBSTRUCTURE
     1 RES1       91 GROUP             0 ****  ****    0  
