@<TRIPOS>MOLECULE
am_c3_9H2O_c0_0_nunpairedes_0_charge_3 Charge: 3 Unpaired_Electrons: 6 XTB_Unpaired_Electrons: 0 XTB_Charge: 3
   265   270     1     0     0
SMALL
NoCharges
****
Generated from Architector

@<TRIPOS>ATOM
     1 Eu1      -0.1087    0.1272    0.0677   Eu        1 RES1   0.0000
     2 C1       -0.8271   -0.4248   -9.5591   C.3       1 RES1   0.0000
     3 C2       -0.9638   -1.8362   -8.9957   C.3       1 RES1   0.0000
     4 C3       -2.2303   -2.0865   -8.1696   C.3       1 RES1   0.0000
     5 C4       -2.3717   -1.2412   -6.8927   C.3       1 RES1   0.0000
     6 C5       -3.2081    0.0157   -7.1280   C.3       1 RES1   0.0000
     7 C6       -3.2812    0.9664   -5.9316   C.3       1 RES1   0.0000
     8 C7       -4.0821    0.4385   -4.7386   C.3       1 RES1   0.0000
     9 C8       -4.4673    1.5613   -3.7608   C.3       1 RES1   0.0000
    10 N1       -3.2965    2.1082   -3.0932   N.am      1 RES1   0.0000
    11 C9       -2.6942    3.4080   -3.4951   C.3       1 RES1   0.0000
    12 C10      -3.0985    4.1259   -4.7911   C.3       1 RES1   0.0000
    13 C11      -2.7242    5.6288   -4.6887   C.3       1 RES1   0.0000
    14 C12      -2.0063    6.2021   -5.9284   C.3       1 RES1   0.0000
    15 C13      -0.9566    7.2669   -5.5656   C.3       1 RES1   0.0000
    16 C14       0.0892    7.4494   -6.6683   C.3       1 RES1   0.0000
    17 C15       1.2708    8.3426   -6.2766   C.3       1 RES1   0.0000
    18 C16       2.2058    7.7415   -5.2285   C.3       1 RES1   0.0000
    19 C17      -2.7675    1.4635   -2.0525   C.2       1 RES1   0.0000
    20 O1       -1.5777    1.5707   -1.7003   O.2       1 RES1   0.0000
    21 C18      -3.6503    0.6084   -1.1254   C.3       1 RES1   0.0000
    22 O2       -2.8433    0.3419    0.0309   O.3       1 RES1   0.0000
    23 C19      -3.5180    0.4326    1.2766   C.3       1 RES1   0.0000
    24 P1       -2.2590    1.1186    2.5091   P.3       1 RES1   0.0000
    25 O3       -0.8843    0.7086    2.0460   O.2       1 RES1   0.0000
    26 C20      -2.5012    2.9220    2.3160   C.3       1 RES1   0.0000
    27 C21      -1.5673    3.8241    3.1245   C.3       1 RES1   0.0000
    28 C22      -2.1144    4.1965    4.5071   C.3       1 RES1   0.0000
    29 C23      -1.5346    5.5258    4.9849   C.3       1 RES1   0.0000
    30 C24      -2.4788    0.4428    4.2002   C.3       1 RES1   0.0000
    31 C25      -3.7293    0.7745    5.0020   C.3       1 RES1   0.0000
    32 C26      -4.9872    0.1442    4.4082   C.3       1 RES1   0.0000
    33 C27      -6.2154    0.3634    5.2844   C.3       1 RES1   0.0000
    34 H1        0.0458   -0.3715  -10.2079   H         1 RES1   0.0000
    35 H2       -1.7031   -0.1607  -10.1487   H         1 RES1   0.0000
    36 H3       -0.7010    0.3110   -8.7659   H         1 RES1   0.0000
    37 H4       -0.9726   -2.5397   -9.8309   H         1 RES1   0.0000
    38 H5       -0.0817   -2.0660   -8.3917   H         1 RES1   0.0000
    39 H6       -3.1016   -1.9209   -8.8049   H         1 RES1   0.0000
    40 H7       -2.2264   -3.1441   -7.9010   H         1 RES1   0.0000
    41 H8       -2.8556   -1.8452   -6.1229   H         1 RES1   0.0000
    42 H9       -1.3809   -0.9608   -6.5225   H         1 RES1   0.0000
    43 H10      -2.7839    0.5656   -7.9670   H         1 RES1   0.0000
    44 H11      -4.2213   -0.2738   -7.4198   H         1 RES1   0.0000
    45 H12      -2.2662    1.2261   -5.6146   H         1 RES1   0.0000
    46 H13      -3.7699    1.8722   -6.2849   H         1 RES1   0.0000
    47 H14      -5.0052   -0.0151   -5.1064   H         1 RES1   0.0000
    48 H15      -3.5097   -0.3278   -4.2109   H         1 RES1   0.0000
    49 H16      -4.9568    2.3578   -4.3188   H         1 RES1   0.0000
    50 H17      -5.1706    1.1870   -3.0128   H         1 RES1   0.0000
    51 H18      -2.9665    4.0953   -2.6879   H         1 RES1   0.0000
    52 H19      -1.6086    3.2838   -3.4926   H         1 RES1   0.0000
    53 H20      -2.5896    3.6924   -5.6474   H         1 RES1   0.0000
    54 H21      -4.1688    4.0684   -4.9710   H         1 RES1   0.0000
    55 H22      -3.6234    6.2163   -4.4978   H         1 RES1   0.0000
    56 H23      -2.0745    5.7817   -3.8231   H         1 RES1   0.0000
    57 H24      -1.5064    5.3981   -6.4729   H         1 RES1   0.0000
    58 H25      -2.7400    6.6297   -6.6134   H         1 RES1   0.0000
    59 H26      -1.4510    8.2178   -5.3660   H         1 RES1   0.0000
    60 H27      -0.4401    6.9712   -4.6488   H         1 RES1   0.0000
    61 H28       0.4686    6.4692   -6.9711   H         1 RES1   0.0000
    62 H29      -0.3961    7.8880   -7.5395   H         1 RES1   0.0000
    63 H30       1.8578    8.5422   -7.1739   H         1 RES1   0.0000
    64 H31       0.9050    9.3033   -5.9132   H         1 RES1   0.0000
    65 H32       2.6088    6.7892   -5.5736   H         1 RES1   0.0000
    66 H33       3.0433    8.4143   -5.0571   H         1 RES1   0.0000
    67 H34       1.7014    7.5918   -4.2737   H         1 RES1   0.0000
    68 H35      -4.5332    1.1927   -0.8430   H         1 RES1   0.0000
    69 H36      -3.9703   -0.3336   -1.5805   H         1 RES1   0.0000
    70 H37      -4.3438    1.1534    1.2059   H         1 RES1   0.0000
    71 H38      -3.9082   -0.5413    1.5849   H         1 RES1   0.0000
    72 H39      -2.3214    3.0717    1.2435   H         1 RES1   0.0000
    73 H40      -3.5407    3.1692    2.5373   H         1 RES1   0.0000
    74 H41      -0.5854    3.3535    3.2163   H         1 RES1   0.0000
    75 H42      -1.4299    4.7543    2.5693   H         1 RES1   0.0000
    76 H43      -3.2005    4.3097    4.4502   H         1 RES1   0.0000
    77 H44      -1.8922    3.4130    5.2354   H         1 RES1   0.0000
    78 H45      -1.8420    6.3356    4.3248   H         1 RES1   0.0000
    79 H46      -1.8870    5.7585    5.9866   H         1 RES1   0.0000
    80 H47      -0.4483    5.4922    5.0063   H         1 RES1   0.0000
    81 H48      -2.3910   -0.6410    4.0830   H         1 RES1   0.0000
    82 H49      -1.5873    0.7990    4.7243   H         1 RES1   0.0000
    83 H50      -3.5873    0.3830    6.0140   H         1 RES1   0.0000
    84 H51      -3.8591    1.8521    5.0887   H         1 RES1   0.0000
    85 H52      -5.1654    0.5725    3.4198   H         1 RES1   0.0000
    86 H53      -4.8253   -0.9282    4.2845   H         1 RES1   0.0000
    87 H54      -6.4175    1.4231    5.4194   H         1 RES1   0.0000
    88 H55      -7.0878   -0.1050    4.8354   H         1 RES1   0.0000
    89 H56      -6.0662   -0.0841    6.2631   H         1 RES1   0.0000
    90 C28       1.9149   -1.4166   -5.8132   C.3       1 RES1   0.0000
    91 C29       1.9239   -0.0673   -6.5245   C.3       1 RES1   0.0000
    92 C30       2.8867    0.8988   -5.8390   C.3       1 RES1   0.0000
    93 C31       2.9138    2.3176   -6.4226   C.3       1 RES1   0.0000
    94 C32       1.5573    2.9354   -6.7705   C.3       1 RES1   0.0000
    95 C33       0.5383    3.1566   -5.6427   C.3       1 RES1   0.0000
    96 C34       0.7523    4.4013   -4.7638   C.3       1 RES1   0.0000
    97 C35       1.5495    4.3533   -3.4511   C.3       1 RES1   0.0000
    98 N2        0.7846    4.0280   -2.2345   N.am      1 RES1   0.0000
    99 C36       0.2354    5.1778   -1.4991   C.3       1 RES1   0.0000
   100 C37      -1.0764    4.8997   -0.7375   C.3       1 RES1   0.0000
   101 C38      -1.9734    6.1514   -0.7398   C.3       1 RES1   0.0000
   102 C39      -3.2621    6.1035    0.0988   C.3       1 RES1   0.0000
   103 C40      -4.5360    5.5625   -0.5785   C.3       1 RES1   0.0000
   104 C41      -4.8817    4.1179   -0.2222   C.3       1 RES1   0.0000
   105 C42      -6.3611    3.7721   -0.4546   C.3       1 RES1   0.0000
   106 C43      -6.8579    3.9483   -1.8856   C.3       1 RES1   0.0000
   107 C44       0.7414    2.8021   -1.7275   C.2       1 RES1   0.0000
   108 O4        0.4834    2.5045   -0.5438   O.2       1 RES1   0.0000
   109 C45       1.0026    1.6634   -2.7164   C.3       1 RES1   0.0000
   110 O5        1.5757    0.5552   -2.0528   O.3       1 RES1   0.0000
   111 C46       2.9567    0.8218   -1.7865   C.3       1 RES1   0.0000
   112 P2        3.1424   -0.2232   -0.2831   P.3       1 RES1   0.0000
   113 O6        2.0207    0.2491    0.6018   O.2       1 RES1   0.0000
   114 C47       4.7533    0.2504    0.4656   C.3       1 RES1   0.0000
   115 C48       4.9297    1.7646    0.6219   C.3       1 RES1   0.0000
   116 C49       3.9351    2.4060    1.5826   C.3       1 RES1   0.0000
   117 C50       4.2692    3.8719    1.8283   C.3       1 RES1   0.0000
   118 C51       3.0378   -1.8697   -1.2284   C.3       1 RES1   0.0000
   119 C52       2.4346   -3.1736   -0.6978   C.3       1 RES1   0.0000
   120 C53       2.8484   -4.4008   -1.5319   C.3       1 RES1   0.0000
   121 C54       2.6953   -5.7145   -0.7645   C.3       1 RES1   0.0000
   122 H57       1.2600   -2.1171   -6.3243   H         1 RES1   0.0000
   123 H58       1.5605   -1.3062   -4.7859   H         1 RES1   0.0000
   124 H59       2.9147   -1.8445   -5.7883   H         1 RES1   0.0000
   125 H60       0.9116    0.3394   -6.5161   H         1 RES1   0.0000
   126 H61       2.2188   -0.2003   -7.5657   H         1 RES1   0.0000
   127 H62       2.6338    0.9300   -4.7765   H         1 RES1   0.0000
   128 H63       3.8970    0.4864   -5.9088   H         1 RES1   0.0000
   129 H64       3.4860    2.2817   -7.3537   H         1 RES1   0.0000
   130 H65       3.4630    2.9718   -5.7371   H         1 RES1   0.0000
   131 H66       1.0917    2.3031   -7.5259   H         1 RES1   0.0000
   132 H67       1.7532    3.8918   -7.2565   H         1 RES1   0.0000
   133 H68       0.4156    2.2455   -5.0647   H         1 RES1   0.0000
   134 H69      -0.4119    3.3212   -6.1532   H         1 RES1   0.0000
   135 H70      -0.2222    4.8113   -4.5172   H         1 RES1   0.0000
   136 H71       1.2544    5.1398   -5.3857   H         1 RES1   0.0000
   137 H72       1.9530    5.3508   -3.2752   H         1 RES1   0.0000
   138 H73       2.4139    3.6908   -3.5346   H         1 RES1   0.0000
   139 H74       0.0519    5.9517   -2.2495   H         1 RES1   0.0000
   140 H75       0.9876    5.5575   -0.8001   H         1 RES1   0.0000
   141 H76      -0.8348    4.6206    0.2899   H         1 RES1   0.0000
   142 H77      -1.5829    4.0488   -1.1942   H         1 RES1   0.0000
   143 H78      -1.3658    6.9716   -0.3610   H         1 RES1   0.0000
   144 H79      -2.2444    6.4114   -1.7622   H         1 RES1   0.0000
   145 H80      -3.4716    7.1318    0.3857   H         1 RES1   0.0000
   146 H81      -3.0828    5.5550    1.0252   H         1 RES1   0.0000
   147 H82      -4.4676    5.6662   -1.6598   H         1 RES1   0.0000
   148 H83      -5.3756    6.1770   -0.2579   H         1 RES1   0.0000
   149 H84      -4.6937    3.9687    0.8443   H         1 RES1   0.0000
   150 H85      -4.2370    3.4239   -0.7732   H         1 RES1   0.0000
   151 H86      -6.9641    4.4091    0.1948   H         1 RES1   0.0000
   152 H87      -6.5433    2.7355   -0.1419   H         1 RES1   0.0000
   153 H88      -6.8443    4.9936   -2.1766   H         1 RES1   0.0000
   154 H89      -7.8852    3.5981   -1.9560   H         1 RES1   0.0000
   155 H90      -6.2544    3.3806   -2.5891   H         1 RES1   0.0000
   156 H91       1.6470    1.9603   -3.5394   H         1 RES1   0.0000
   157 H92       0.0281    1.3217   -3.0847   H         1 RES1   0.0000
   158 H93       3.1180    1.8728   -1.5181   H         1 RES1   0.0000
   159 H94       3.5748    0.5568   -2.6497   H         1 RES1   0.0000
   160 H95       5.5517   -0.1308   -0.1698   H         1 RES1   0.0000
   161 H96       4.8202   -0.2060    1.4543   H         1 RES1   0.0000
   162 H97       4.8895    2.2646   -0.3457   H         1 RES1   0.0000
   163 H98       5.9354    1.9172    1.0200   H         1 RES1   0.0000
   164 H99       3.9746    1.8650    2.5274   H         1 RES1   0.0000
   165 H100      2.9152    2.3287    1.1974   H         1 RES1   0.0000
   166 H101      5.2669    3.9742    2.2498   H         1 RES1   0.0000
   167 H102      3.5525    4.3122    2.5176   H         1 RES1   0.0000
   168 H103      4.2366    4.4383    0.8998   H         1 RES1   0.0000
   169 H104      4.0774   -2.0436   -1.5200   H         1 RES1   0.0000
   170 H105      2.4914   -1.6112   -2.1417   H         1 RES1   0.0000
   171 H106      2.7437   -3.3658    0.3212   H         1 RES1   0.0000
   172 H107      1.3501   -3.0597   -0.6935   H         1 RES1   0.0000
   173 H108      3.8932   -4.3027   -1.8200   H         1 RES1   0.0000
   174 H109      2.2672   -4.4431   -2.4535   H         1 RES1   0.0000
   175 H110      3.4774   -5.8236   -0.0161   H         1 RES1   0.0000
   176 H111      2.7868   -6.5555   -1.4458   H         1 RES1   0.0000
   177 H112      1.7349   -5.7832   -0.2599   H         1 RES1   0.0000
   178 C55       7.1834   -0.7225    4.4225   C.3       1 RES1   0.0000
   179 C56       6.0634    0.2519    4.7695   C.3       1 RES1   0.0000
   180 C57       5.8798    0.4239    6.2879   C.3       1 RES1   0.0000
   181 C58       4.6126   -0.1860    6.9039   C.3       1 RES1   0.0000
   182 C59       4.6013   -1.7066    7.1131   C.3       1 RES1   0.0000
   183 C60       4.1761   -2.5274    5.8940   C.3       1 RES1   0.0000
   184 C61       2.7084   -2.3110    5.5133   C.3       1 RES1   0.0000
   185 C62       2.2053   -3.2732    4.4194   C.3       1 RES1   0.0000
   186 N3        2.1801   -2.6883    3.0845   N.am      1 RES1   0.0000
   187 C63       3.4981   -2.3548    2.5345   C.3       1 RES1   0.0000
   188 C64       4.4402   -3.5635    2.3412   C.3       1 RES1   0.0000
   189 C65       5.2859   -3.5612    1.0470   C.3       1 RES1   0.0000
   190 C66       6.7387   -3.0837    1.1457   C.3       1 RES1   0.0000
   191 C67       7.4192   -3.1614   -0.2353   C.3       1 RES1   0.0000
   192 C68       7.1396   -1.9279   -1.0920   C.3       1 RES1   0.0000
   193 C69       7.6169   -2.0258   -2.5442   C.3       1 RES1   0.0000
   194 C70       6.6685   -2.8082   -3.4494   C.3       1 RES1   0.0000
   195 C71       1.0663   -2.3278    2.4482   C.2       1 RES1   0.0000
   196 O7        1.0445   -1.8481    1.3022   O.2       1 RES1   0.0000
   197 C72      -0.3233   -2.5174    3.0754   C.3       1 RES1   0.0000
   198 O8       -1.2886   -2.3516    2.0438   O.3       1 RES1   0.0000
   199 C73      -1.3623   -3.4977    1.2108   C.3       1 RES1   0.0000
   200 P3       -1.6103   -3.0314   -0.5768   P.3       1 RES1   0.0000
   201 O9       -0.9550   -1.7172   -0.9349   O.2       1 RES1   0.0000
   202 C74      -0.8921   -4.4473   -1.4878   C.3       1 RES1   0.0000
   203 C75      -0.6918   -4.1834   -2.9788   C.3       1 RES1   0.0000
   204 C76      -1.9602   -4.4048   -3.7999   C.3       1 RES1   0.0000
   205 C77      -1.6116   -4.7029   -5.2529   C.3       1 RES1   0.0000
   206 C78      -3.4079   -2.8804   -0.9056   C.3       1 RES1   0.0000
   207 C79      -4.2907   -4.1297   -0.8932   C.3       1 RES1   0.0000
   208 C80      -4.7374   -4.6198    0.4856   C.3       1 RES1   0.0000
   209 C81      -5.9163   -5.5838    0.3704   C.3       1 RES1   0.0000
   210 H113      7.2304   -0.9077    3.3518   H         1 RES1   0.0000
   211 H114      8.1392   -0.3079    4.7296   H         1 RES1   0.0000
   212 H115      7.0556   -1.6736    4.9308   H         1 RES1   0.0000
   213 H116      6.3099    1.2172    4.3225   H         1 RES1   0.0000
   214 H117      5.1222   -0.0708    4.3132   H         1 RES1   0.0000
   215 H118      6.7553    0.0233    6.7993   H         1 RES1   0.0000
   216 H119      5.8524    1.4902    6.5105   H         1 RES1   0.0000
   217 H120      4.5042    0.2673    7.8892   H         1 RES1   0.0000
   218 H121      3.7434    0.1165    6.3149   H         1 RES1   0.0000
   219 H122      5.5978   -2.0285    7.4213   H         1 RES1   0.0000
   220 H123      3.9218   -1.9419    7.9371   H         1 RES1   0.0000
   221 H124      4.8317   -2.2900    5.0596   H         1 RES1   0.0000
   222 H125      4.3127   -3.5830    6.1282   H         1 RES1   0.0000
   223 H126      2.1096   -2.4684    6.4124   H         1 RES1   0.0000
   224 H127      2.5426   -1.2811    5.1880   H         1 RES1   0.0000
   225 H128      2.8523   -4.1508    4.3817   H         1 RES1   0.0000
   226 H129      1.2055   -3.6038    4.6728   H         1 RES1   0.0000
   227 H130      3.3135   -1.8359    1.5905   H         1 RES1   0.0000
   228 H131      3.9652   -1.6478    3.2223   H         1 RES1   0.0000
   229 H132      5.1128   -3.6354    3.1971   H         1 RES1   0.0000
   230 H133      3.8320   -4.4695    2.3355   H         1 RES1   0.0000
   231 H134      5.3231   -4.5828    0.6686   H         1 RES1   0.0000
   232 H135      4.7983   -2.9485    0.2956   H         1 RES1   0.0000
   233 H136      6.7805   -2.0549    1.5124   H         1 RES1   0.0000
   234 H137      7.2790   -3.7136    1.8528   H         1 RES1   0.0000
   235 H138      8.4959   -3.2608   -0.1104   H         1 RES1   0.0000
   236 H139      7.0690   -4.0562   -0.7530   H         1 RES1   0.0000
   237 H140      6.0640   -1.7419   -1.1075   H         1 RES1   0.0000
   238 H141      7.6222   -1.0685   -0.6203   H         1 RES1   0.0000
   239 H142      7.7196   -1.0138   -2.9431   H         1 RES1   0.0000
   240 H143      8.6011   -2.4920   -2.5750   H         1 RES1   0.0000
   241 H144      5.6749   -2.3562   -3.4609   H         1 RES1   0.0000
   242 H145      7.0511   -2.8070   -4.4672   H         1 RES1   0.0000
   243 H146      6.5756   -3.8440   -3.1317   H         1 RES1   0.0000
   244 H147     -0.4523   -3.4900    3.5658   H         1 RES1   0.0000
   245 H148     -0.5022   -1.7176    3.7918   H         1 RES1   0.0000
   246 H149     -0.4380   -4.0823    1.2617   H         1 RES1   0.0000
   247 H150     -2.1853   -4.1450    1.5291   H         1 RES1   0.0000
   248 H151      0.0717   -4.6622   -1.0268   H         1 RES1   0.0000
   249 H152     -1.5249   -5.3233   -1.3361   H         1 RES1   0.0000
   250 H153     -0.3203   -3.1649   -3.1354   H         1 RES1   0.0000
   251 H154      0.0699   -4.8747   -3.3451   H         1 RES1   0.0000
   252 H155     -2.5091   -5.2585   -3.3995   H         1 RES1   0.0000
   253 H156     -2.6118   -3.5305   -3.7422   H         1 RES1   0.0000
   254 H157     -1.0412   -5.6276   -5.3181   H         1 RES1   0.0000
   255 H158     -2.5131   -4.8188   -5.8487   H         1 RES1   0.0000
   256 H159     -1.0125   -3.9002   -5.6773   H         1 RES1   0.0000
   257 H160     -3.7914   -2.1365   -0.2037   H         1 RES1   0.0000
   258 H161     -3.4259   -2.4463   -1.9111   H         1 RES1   0.0000
   259 H162     -5.1890   -3.8850   -1.4633   H         1 RES1   0.0000
   260 H163     -3.7877   -4.9408   -1.4166   H         1 RES1   0.0000
   261 H164     -3.9191   -5.1364    0.9921   H         1 RES1   0.0000
   262 H165     -5.0393   -3.7700    1.1041   H         1 RES1   0.0000
   263 H166     -5.6359   -6.4755   -0.1831   H         1 RES1   0.0000
   264 H167     -6.2459   -5.8929    1.3578   H         1 RES1   0.0000
   265 H168     -6.7536   -5.1127   -0.1387   H         1 RES1   0.0000
@<TRIPOS>BOND
     1     1    20    1
     2     1    22    1
     3     1    25    1
     4     1   108    1
     5     1   110    1
     6     1   113    1
     7     1   196    1
     8     1   198    1
     9     1   201    1
    10     2     3    1
    11     2    34    1
    12     2    35    1
    13     2    36    1
    14     3     4    1
    15     3    37    1
    16     3    38    1
    17     4     5    1
    18     4    39    1
    19     4    40    1
    20     5     6    1
    21     5    41    1
    22     5    42    1
    23     6     7    1
    24     6    43    1
    25     6    44    1
    26     7     8    1
    27     7    45    1
    28     7    46    1
    29     8     9    1
    30     8    47    1
    31     8    48    1
    32     9    10    1
    33     9    49    1
    34     9    50    1
    35    10    11    1
    36    10    19    1
    37    11    12    1
    38    11    51    1
    39    11    52    1
    40    12    13    1
    41    12    53    1
    42    12    54    1
    43    13    14    1
    44    13    55    1
    45    13    56    1
    46    14    15    1
    47    14    57    1
    48    14    58    1
    49    15    16    1
    50    15    59    1
    51    15    60    1
    52    16    17    1
    53    16    61    1
    54    16    62    1
    55    17    18    1
    56    17    63    1
    57    17    64    1
    58    18    65    1
    59    18    66    1
    60    18    67    1
    61    19    20    2
    62    19    21    1
    63    21    22    1
    64    21    68    1
    65    21    69    1
    66    22    23    1
    67    23    24    1
    68    23    70    1
    69    23    71    1
    70    24    25    2
    71    24    26    1
    72    24    30    1
    73    26    27    1
    74    26    72    1
    75    26    73    1
    76    27    28    1
    77    27    74    1
    78    27    75    1
    79    28    29    1
    80    28    76    1
    81    28    77    1
    82    29    78    1
    83    29    79    1
    84    29    80    1
    85    30    31    1
    86    30    81    1
    87    30    82    1
    88    31    32    1
    89    31    83    1
    90    31    84    1
    91    32    33    1
    92    32    85    1
    93    32    86    1
    94    33    87    1
    95    33    88    1
    96    33    89    1
    97    90    91    1
    98    90   122    1
    99    90   123    1
   100    90   124    1
   101    91    92    1
   102    91   125    1
   103    91   126    1
   104    92    93    1
   105    92   127    1
   106    92   128    1
   107    93    94    1
   108    93   129    1
   109    93   130    1
   110    94    95    1
   111    94   131    1
   112    94   132    1
   113    95    96    1
   114    95   133    1
   115    95   134    1
   116    96    97    1
   117    96   135    1
   118    96   136    1
   119    97    98    1
   120    97   137    1
   121    97   138    1
   122    98    99    1
   123    98   107    1
   124    99   100    1
   125    99   139    1
   126    99   140    1
   127   100   101    1
   128   100   141    1
   129   100   142    1
   130   101   102    1
   131   101   143    1
   132   101   144    1
   133   102   103    1
   134   102   145    1
   135   102   146    1
   136   103   104    1
   137   103   147    1
   138   103   148    1
   139   104   105    1
   140   104   149    1
   141   104   150    1
   142   105   106    1
   143   105   151    1
   144   105   152    1
   145   106   153    1
   146   106   154    1
   147   106   155    1
   148   107   108    2
   149   107   109    1
   150   109   110    1
   151   109   156    1
   152   109   157    1
   153   110   111    1
   154   111   112    1
   155   111   158    1
   156   111   159    1
   157   112   113    2
   158   112   114    1
   159   112   118    1
   160   114   115    1
   161   114   160    1
   162   114   161    1
   163   115   116    1
   164   115   162    1
   165   115   163    1
   166   116   117    1
   167   116   164    1
   168   116   165    1
   169   117   166    1
   170   117   167    1
   171   117   168    1
   172   118   119    1
   173   118   169    1
   174   118   170    1
   175   119   120    1
   176   119   171    1
   177   119   172    1
   178   120   121    1
   179   120   173    1
   180   120   174    1
   181   121   175    1
   182   121   176    1
   183   121   177    1
   184   178   179    1
   185   178   210    1
   186   178   211    1
   187   178   212    1
   188   179   180    1
   189   179   213    1
   190   179   214    1
   191   180   181    1
   192   180   215    1
   193   180   216    1
   194   181   182    1
   195   181   217    1
   196   181   218    1
   197   182   183    1
   198   182   219    1
   199   182   220    1
   200   183   184    1
   201   183   221    1
   202   183   222    1
   203   184   185    1
   204   184   223    1
   205   184   224    1
   206   185   186    1
   207   185   225    1
   208   185   226    1
   209   186   187    1
   210   186   195    1
   211   187   188    1
   212   187   227    1
   213   187   228    1
   214   188   189    1
   215   188   229    1
   216   188   230    1
   217   189   190    1
   218   189   231    1
   219   189   232    1
   220   190   191    1
   221   190   233    1
   222   190   234    1
   223   191   192    1
   224   191   235    1
   225   191   236    1
   226   192   193    1
   227   192   237    1
   228   192   238    1
   229   193   194    1
   230   193   239    1
   231   193   240    1
   232   194   241    1
   233   194   242    1
   234   194   243    1
   235   195   196    2
   236   195   197    1
   237   197   198    1
   238   197   244    1
   239   197   245    1
   240   198   199    1
   241   199   200    1
   242   199   246    1
   243   199   247    1
   244   200   201    2
   245   200   202    1
   246   200   206    1
   247   202   203    1
   248   202   248    1
   249   202   249    1
   250   203   204    1
   251   203   250    1
   252   203   251    1
   253   204   205    1
   254   204   252    1
   255   204   253    1
   256   205   254    1
   257   205   255    1
   258   205   256    1
   259   206   207    1
   260   206   257    1
   261   206   258    1
   262   207   208    1
   263   207   259    1
   264   207   260    1
   265   208   209    1
   266   208   261    1
   267   208   262    1
   268   209   263    1
   269   209   264    1
   270   209   265    1
@<TRIPOS>SUBSTRUCTURE
     1 RES1      265 GROUP             0 ****  ****    0  
