@<TRIPOS>MOLECULE
am_c3_9H2O_c0_0_nunpairedes_0_charge_3 Charge: 3 Unpaired_Electrons: 6 XTB_Unpaired_Electrons: 0 XTB_Charge: 3
   344   347     1     0     0
SMALL
NoCharges
****
Generated from Architector

@<TRIPOS>ATOM
     1 Eu1       0.2340   -0.0776    0.4790   Eu        1 RES1   0.0000
     2 C1       -4.8156   -3.8022   -5.2479   C.3       1 RES1   0.0000
     3 C2       -5.1067   -4.0357   -3.7592   C.3       1 RES1   0.0000
     4 C3       -5.8489   -2.8741   -3.0884   C.3       1 RES1   0.0000
     5 C4       -6.2211   -3.1342   -1.6210   C.3       1 RES1   0.0000
     6 C5       -5.0899   -2.7525   -0.6595   C.3       1 RES1   0.0000
     7 C6       -5.0064   -1.2423   -0.3515   C.3       1 RES1   0.0000
     8 N1       -4.6188   -1.0425    1.0504   N.am      1 RES1   0.0000
     9 C7       -5.7613   -0.8245    1.9269   C.3       1 RES1   0.0000
    10 C8       -5.9665    0.6729    2.2001   C.3       1 RES1   0.0000
    11 C9       -6.4400    1.5352    1.0168   C.3       1 RES1   0.0000
    12 C10      -5.3482    2.4228    0.4089   C.3       1 RES1   0.0000
    13 C11      -5.9625    3.5183   -0.4663   C.3       1 RES1   0.0000
    14 C12      -4.9275    4.4387   -1.1086   C.3       1 RES1   0.0000
    15 C13      -3.3438   -0.8934    1.4519   C.2       1 RES1   0.0000
    16 O1       -2.4243   -0.5927    0.6764   O.2       1 RES1   0.0000
    17 C14      -3.0505   -1.1419    2.9450   C.3       1 RES1   0.0000
    18 C15      -1.6496   -1.7190    3.1688   C.2       1 RES1   0.0000
    19 O2       -0.7145   -1.4727    2.3890   O.2       1 RES1   0.0000
    20 N2       -1.4628   -2.5438    4.2212   N.am      1 RES1   0.0000
    21 C16      -0.3480   -3.4926    4.1686   C.3       1 RES1   0.0000
    22 C17       0.7155   -3.4107    5.2623   C.3       1 RES1   0.0000
    23 C18       1.6548   -4.6149    5.1806   C.3       1 RES1   0.0000
    24 C19       2.6660   -4.6539    6.3264   C.3       1 RES1   0.0000
    25 C20       3.7278   -5.7389    6.1387   C.3       1 RES1   0.0000
    26 C21       4.6763   -5.4849    4.9748   C.3       1 RES1   0.0000
    27 C22      -2.4123   -2.8038    5.3012   C.3       1 RES1   0.0000
    28 C23      -2.4841   -1.7546    6.4291   C.3       1 RES1   0.0000
    29 C24      -1.5073   -1.9529    7.6032   C.3       1 RES1   0.0000
    30 C25      -0.2210   -1.1271    7.5162   C.3       1 RES1   0.0000
    31 C26       0.8226   -1.6079    8.5252   C.3       1 RES1   0.0000
    32 C27       2.1122   -0.8041    8.4478   C.3       1 RES1   0.0000
    33 H1       -5.0589   -4.6825   -5.8351   H         1 RES1   0.0000
    34 H2       -3.7674   -3.5710   -5.4259   H         1 RES1   0.0000
    35 H3       -5.4127   -2.9805   -5.6306   H         1 RES1   0.0000
    36 H4       -4.1778   -4.2321   -3.2204   H         1 RES1   0.0000
    37 H5       -5.7151   -4.9328   -3.6610   H         1 RES1   0.0000
    38 H6       -6.7625   -2.6718   -3.6477   H         1 RES1   0.0000
    39 H7       -5.2385   -1.9696   -3.1377   H         1 RES1   0.0000
    40 H8       -6.4560   -4.1928   -1.4993   H         1 RES1   0.0000
    41 H9       -7.1341   -2.5926   -1.3614   H         1 RES1   0.0000
    42 H10      -4.1574   -3.0979   -1.0971   H         1 RES1   0.0000
    43 H11      -5.2335   -3.2804    0.2840   H         1 RES1   0.0000
    44 H12      -5.9827   -0.7824   -0.5221   H         1 RES1   0.0000
    45 H13      -4.3012   -0.7284   -1.0007   H         1 RES1   0.0000
    46 H14      -5.6327   -1.3438    2.8771   H         1 RES1   0.0000
    47 H15      -6.6424   -1.2534    1.4468   H         1 RES1   0.0000
    48 H16      -5.0234    1.0810    2.5699   H         1 RES1   0.0000
    49 H17      -6.6997    0.7433    3.0028   H         1 RES1   0.0000
    50 H18      -7.2350    2.1913    1.3724   H         1 RES1   0.0000
    51 H19      -6.8817    0.9162    0.2361   H         1 RES1   0.0000
    52 H20      -4.6501    1.8287   -0.1862   H         1 RES1   0.0000
    53 H21      -4.7787    2.8968    1.2146   H         1 RES1   0.0000
    54 H22      -6.6346    4.1191    0.1494   H         1 RES1   0.0000
    55 H23      -6.5619    3.0581   -1.2534   H         1 RES1   0.0000
    56 H24      -4.2870    4.8954   -0.3540   H         1 RES1   0.0000
    57 H25      -5.4316    5.2369   -1.6501   H         1 RES1   0.0000
    58 H26      -4.3023    3.8925   -1.8140   H         1 RES1   0.0000
    59 H27      -3.7822   -1.8333    3.3636   H         1 RES1   0.0000
    60 H28      -3.1331   -0.1922    3.4751   H         1 RES1   0.0000
    61 H29       0.1187   -3.3781    3.1894   H         1 RES1   0.0000
    62 H30      -0.7900   -4.4931    4.2132   H         1 RES1   0.0000
    63 H31       0.2525   -3.4220    6.2462   H         1 RES1   0.0000
    64 H32       1.2883   -2.4882    5.1482   H         1 RES1   0.0000
    65 H33       2.1820   -4.5869    4.2275   H         1 RES1   0.0000
    66 H34       1.0645   -5.5333    5.2071   H         1 RES1   0.0000
    67 H35       2.1329   -4.8523    7.2573   H         1 RES1   0.0000
    68 H36       3.1572   -3.6823    6.4280   H         1 RES1   0.0000
    69 H37       3.2402   -6.7038    5.9994   H         1 RES1   0.0000
    70 H38       4.3231   -5.8020    7.0479   H         1 RES1   0.0000
    71 H39       4.1590   -5.4908    4.0206   H         1 RES1   0.0000
    72 H40       5.4299   -6.2635    4.9291   H         1 RES1   0.0000
    73 H41       5.1890   -4.5332    5.0834   H         1 RES1   0.0000
    74 H42      -2.1442   -3.7630    5.7515   H         1 RES1   0.0000
    75 H43      -3.4156   -2.9275    4.8851   H         1 RES1   0.0000
    76 H44      -3.4926   -1.8283    6.8376   H         1 RES1   0.0000
    77 H45      -2.3715   -0.7495    6.0200   H         1 RES1   0.0000
    78 H46      -1.2673   -3.0148    7.7001   H         1 RES1   0.0000
    79 H47      -2.0158   -1.6731    8.5283   H         1 RES1   0.0000
    80 H48      -0.4614   -0.0826    7.7201   H         1 RES1   0.0000
    81 H49       0.1833   -1.1752    6.5035   H         1 RES1   0.0000
    82 H50       1.0469   -2.6616    8.3461   H         1 RES1   0.0000
    83 H51       0.4046   -1.5319    9.5293   H         1 RES1   0.0000
    84 H52       2.5761   -0.9182    7.4701   H         1 RES1   0.0000
    85 H53       2.8122   -1.1484    9.2011   H         1 RES1   0.0000
    86 H54       1.9220    0.2512    8.6231   H         1 RES1   0.0000
    87 C28      -4.5123    0.9166   -3.8509   C.3       1 RES1   0.0000
    88 C29      -3.1874    1.0938   -3.1197   C.3       1 RES1   0.0000
    89 C30      -2.0615    0.1895   -3.6482   C.3       1 RES1   0.0000
    90 C31      -2.1527   -1.3229   -3.3795   C.3       1 RES1   0.0000
    91 C32      -1.9128   -1.5754   -1.8957   C.3       1 RES1   0.0000
    92 C33      -1.6024   -3.0022   -1.4257   C.3       1 RES1   0.0000
    93 N3       -0.3306   -3.4015   -2.0104   N.am      1 RES1   0.0000
    94 C34      -0.3938   -4.4211   -3.0431   C.3       1 RES1   0.0000
    95 C35      -0.5198   -5.8685   -2.4880   C.3       1 RES1   0.0000
    96 C36      -1.8475   -6.6322   -2.7115   C.3       1 RES1   0.0000
    97 C37      -2.8686   -6.5679   -1.5703   C.3       1 RES1   0.0000
    98 C38      -4.0110   -7.5682   -1.7458   C.3       1 RES1   0.0000
    99 C39      -5.0845   -7.3947   -0.6818   C.3       1 RES1   0.0000
   100 C40       0.7021   -2.6822   -1.5568   C.2       1 RES1   0.0000
   101 O3        0.6199   -2.1507   -0.4222   O.2       1 RES1   0.0000
   102 C41       1.8893   -2.3324   -2.4148   C.3       1 RES1   0.0000
   103 C42       1.8379   -0.8107   -2.6503   C.2       1 RES1   0.0000
   104 O4        1.2764   -0.0739   -1.8153   O.2       1 RES1   0.0000
   105 N4        2.4292   -0.3249   -3.7373   N.am      1 RES1   0.0000
   106 C43       2.3621    1.1221   -3.9684   C.3       1 RES1   0.0000
   107 C44       3.7054    1.7158   -4.3778   C.3       1 RES1   0.0000
   108 C45       3.7252    3.2472   -4.3933   C.3       1 RES1   0.0000
   109 C46       5.1575    3.7616   -4.2093   C.3       1 RES1   0.0000
   110 C47       5.5306    4.0050   -2.7446   C.3       1 RES1   0.0000
   111 C48       5.3195    2.8111   -1.8146   C.3       1 RES1   0.0000
   112 C49       2.9858   -1.1208   -4.8256   C.3       1 RES1   0.0000
   113 C50       4.2346   -1.9713   -4.5530   C.3       1 RES1   0.0000
   114 C51       5.5480   -1.2664   -4.1862   C.3       1 RES1   0.0000
   115 C52       5.8047   -1.1503   -2.6833   C.3       1 RES1   0.0000
   116 C53       7.1719   -0.5337   -2.3781   C.3       1 RES1   0.0000
   117 C54       7.4216   -0.4428   -0.8744   C.3       1 RES1   0.0000
   118 H55      -5.2053    1.7147   -3.6021   H         1 RES1   0.0000
   119 H56      -4.9866   -0.0229   -3.5884   H         1 RES1   0.0000
   120 H57      -4.3643    0.9419   -4.9249   H         1 RES1   0.0000
   121 H58      -3.3301    0.9418   -2.0484   H         1 RES1   0.0000
   122 H59      -2.8500    2.1290   -3.2463   H         1 RES1   0.0000
   123 H60      -1.1180    0.5203   -3.1969   H         1 RES1   0.0000
   124 H61      -1.9947    0.3510   -4.7252   H         1 RES1   0.0000
   125 H62      -1.3702   -1.8107   -3.9689   H         1 RES1   0.0000
   126 H63      -3.1133   -1.7281   -3.7025   H         1 RES1   0.0000
   127 H64      -2.7692   -1.2242   -1.3487   H         1 RES1   0.0000
   128 H65      -1.0828   -0.9163   -1.5881   H         1 RES1   0.0000
   129 H66      -2.3318   -3.7499   -1.7282   H         1 RES1   0.0000
   130 H67      -1.5164   -2.9938   -0.3317   H         1 RES1   0.0000
   131 H68       0.5040   -4.3836   -3.6557   H         1 RES1   0.0000
   132 H69      -1.2426   -4.2156   -3.7015   H         1 RES1   0.0000
   133 H70      -0.3015   -5.8687   -1.4176   H         1 RES1   0.0000
   134 H71       0.2553   -6.4579   -2.9840   H         1 RES1   0.0000
   135 H72      -1.5754   -7.6844   -2.8245   H         1 RES1   0.0000
   136 H73      -2.3261   -6.3297   -3.6466   H         1 RES1   0.0000
   137 H74      -3.2943   -5.5682   -1.4766   H         1 RES1   0.0000
   138 H75      -2.3685   -6.7934   -0.6282   H         1 RES1   0.0000
   139 H76      -3.6088   -8.5774   -1.6908   H         1 RES1   0.0000
   140 H77      -4.4579   -7.4509   -2.7309   H         1 RES1   0.0000
   141 H78      -4.6579   -7.4443    0.3153   H         1 RES1   0.0000
   142 H79      -5.8310   -8.1769   -0.7596   H         1 RES1   0.0000
   143 H80      -5.5816   -6.4352   -0.7907   H         1 RES1   0.0000
   144 H81       1.9646   -2.9022   -3.3338   H         1 RES1   0.0000
   145 H82       2.7953   -2.4577   -1.8186   H         1 RES1   0.0000
   146 H83       2.0286    1.5647   -3.0268   H         1 RES1   0.0000
   147 H84       1.5982    1.3231   -4.7255   H         1 RES1   0.0000
   148 H85       3.9892    1.3804   -5.3755   H         1 RES1   0.0000
   149 H86       4.4478    1.3552   -3.6704   H         1 RES1   0.0000
   150 H87       3.1006    3.6493   -3.5937   H         1 RES1   0.0000
   151 H88       3.3251    3.6047   -5.3447   H         1 RES1   0.0000
   152 H89       5.2778    4.7077   -4.7343   H         1 RES1   0.0000
   153 H90       5.8619    3.0562   -4.6542   H         1 RES1   0.0000
   154 H91       4.9518    4.8551   -2.3700   H         1 RES1   0.0000
   155 H92       6.5847    4.2890   -2.7002   H         1 RES1   0.0000
   156 H93       4.2740    2.5072   -1.7680   H         1 RES1   0.0000
   157 H94       5.6343    3.0589   -0.8037   H         1 RES1   0.0000
   158 H95       5.9215    1.9656   -2.1372   H         1 RES1   0.0000
   159 H96       3.2119   -0.4214   -5.6278   H         1 RES1   0.0000
   160 H97       2.1973   -1.7798   -5.2080   H         1 RES1   0.0000
   161 H98       4.3949   -2.5014   -5.4928   H         1 RES1   0.0000
   162 H99       4.0226   -2.7162   -3.7912   H         1 RES1   0.0000
   163 H100      5.6043   -0.2864   -4.6562   H         1 RES1   0.0000
   164 H101      6.3602   -1.8608   -4.6086   H         1 RES1   0.0000
   165 H102      5.7979   -2.1530   -2.2483   H         1 RES1   0.0000
   166 H103      5.0191   -0.5652   -2.1954   H         1 RES1   0.0000
   167 H104      7.2401    0.4634   -2.8190   H         1 RES1   0.0000
   168 H105      7.9581   -1.1374   -2.8363   H         1 RES1   0.0000
   169 H106      6.6302    0.1298   -0.3899   H         1 RES1   0.0000
   170 H107      8.3753    0.0424   -0.6744   H         1 RES1   0.0000
   171 H108      7.4465   -1.4368   -0.4278   H         1 RES1   0.0000
   172 C55       3.4642    5.8796    5.3581   C.3       1 RES1   0.0000
   173 C56       3.9026    4.7274    6.2586   C.3       1 RES1   0.0000
   174 C57       4.7921    3.6933    5.5576   C.3       1 RES1   0.0000
   175 C58       4.0439    2.6779    4.6825   C.3       1 RES1   0.0000
   176 C59       3.3250    1.6149    5.5086   C.3       1 RES1   0.0000
   177 C60       2.4708    0.6049    4.7316   C.3       1 RES1   0.0000
   178 N5        3.1132   -0.4596    3.9438   N.am      1 RES1   0.0000
   179 C61       4.1527   -1.2164    4.6347   C.3       1 RES1   0.0000
   180 C62       5.4709   -1.3082    3.8631   C.3       1 RES1   0.0000
   181 C63       6.6041   -1.7184    4.8165   C.3       1 RES1   0.0000
   182 C64       7.2944   -0.5312    5.5035   C.3       1 RES1   0.0000
   183 C65       8.5810   -0.0880    4.8043   C.3       1 RES1   0.0000
   184 C66       8.3792    0.4459    3.3918   C.3       1 RES1   0.0000
   185 C67       2.5248   -0.8420    2.7998   C.2       1 RES1   0.0000
   186 O5        1.7507   -0.0767    2.1855   O.2       1 RES1   0.0000
   187 C68       2.6592   -2.2855    2.3480   C.3       1 RES1   0.0000
   188 C69       3.1551   -2.4761    0.9073   C.2       1 RES1   0.0000
   189 O6        3.2737   -1.5197    0.1514   O.2       1 RES1   0.0000
   190 N6        3.4686   -3.7499    0.5780   N.am      1 RES1   0.0000
   191 C70       4.2904   -4.0658   -0.5937   C.3       1 RES1   0.0000
   192 C71       3.6211   -5.0592   -1.5508   C.3       1 RES1   0.0000
   193 C72       4.3591   -5.3415   -2.8683   C.3       1 RES1   0.0000
   194 C73       3.3093   -5.7894   -3.8918   C.3       1 RES1   0.0000
   195 C74       3.8431   -6.4084   -5.1780   C.3       1 RES1   0.0000
   196 C75       4.5023   -5.4061   -6.1140   C.3       1 RES1   0.0000
   197 C76       2.9256   -4.9027    1.2826   C.3       1 RES1   0.0000
   198 C77       1.4713   -5.1851    0.8832   C.3       1 RES1   0.0000
   199 C78       0.7927   -6.2030    1.8050   C.3       1 RES1   0.0000
   200 C79      -0.7282   -6.0890    1.6956   C.3       1 RES1   0.0000
   201 C80      -1.5444   -7.1805    2.3908   C.3       1 RES1   0.0000
   202 C81      -1.3740   -7.2494    3.9014   C.3       1 RES1   0.0000
   203 H109      2.9060    6.6147    5.9350   H         1 RES1   0.0000
   204 H110      2.8275    5.5364    4.5420   H         1 RES1   0.0000
   205 H111      4.3307    6.3841    4.9340   H         1 RES1   0.0000
   206 H112      3.0221    4.2425    6.6847   H         1 RES1   0.0000
   207 H113      4.4646    5.1593    7.0868   H         1 RES1   0.0000
   208 H114      5.3577    3.1538    6.3183   H         1 RES1   0.0000
   209 H115      5.5129    4.2272    4.9357   H         1 RES1   0.0000
   210 H116      4.7555    2.1928    4.0116   H         1 RES1   0.0000
   211 H117      3.3199    3.2144    4.0699   H         1 RES1   0.0000
   212 H118      2.6284    2.1065    6.1913   H         1 RES1   0.0000
   213 H119      4.0557    1.1148    6.1449   H         1 RES1   0.0000
   214 H120      1.7857    1.1258    4.0609   H         1 RES1   0.0000
   215 H121      1.8562    0.0849    5.4789   H         1 RES1   0.0000
   216 H122      3.7991   -2.2154    4.9070   H         1 RES1   0.0000
   217 H123      4.3626   -0.6880    5.5640   H         1 RES1   0.0000
   218 H124      5.6894   -0.3315    3.4352   H         1 RES1   0.0000
   219 H125      5.3911   -2.0196    3.0384   H         1 RES1   0.0000
   220 H126      7.3534   -2.2864    4.2668   H         1 RES1   0.0000
   221 H127      6.1925   -2.3886    5.5749   H         1 RES1   0.0000
   222 H128      7.5588   -0.8152    6.5228   H         1 RES1   0.0000
   223 H129      6.6069    0.3158    5.5700   H         1 RES1   0.0000
   224 H130      9.2747   -0.9287    4.7681   H         1 RES1   0.0000
   225 H131      9.0493    0.6868    5.4118   H         1 RES1   0.0000
   226 H132      8.0189   -0.3300    2.7208   H         1 RES1   0.0000
   227 H133      9.3249    0.8090    2.9991   H         1 RES1   0.0000
   228 H134      7.6714    1.2727    3.3826   H         1 RES1   0.0000
   229 H135      1.6305   -2.6634    2.3555   H         1 RES1   0.0000
   230 H136      3.2654   -2.8698    3.0379   H         1 RES1   0.0000
   231 H137      5.2363   -4.4865   -0.2323   H         1 RES1   0.0000
   232 H138      4.5205   -3.1210   -1.0923   H         1 RES1   0.0000
   233 H139      2.6278   -4.6808   -1.7947   H         1 RES1   0.0000
   234 H140      3.4903   -6.0171   -1.0492   H         1 RES1   0.0000
   235 H141      5.0942   -6.1352   -2.7295   H         1 RES1   0.0000
   236 H142      4.9043   -4.4633   -3.2143   H         1 RES1   0.0000
   237 H143      2.6855   -4.9326   -4.1642   H         1 RES1   0.0000
   238 H144      2.6714   -6.5321   -3.4058   H         1 RES1   0.0000
   239 H145      3.0021   -6.8638   -5.7033   H         1 RES1   0.0000
   240 H146      4.5517   -7.1966   -4.9294   H         1 RES1   0.0000
   241 H147      3.7955   -4.6350   -6.4176   H         1 RES1   0.0000
   242 H148      4.8469   -5.9100   -7.0128   H         1 RES1   0.0000
   243 H149      5.3575   -4.9316   -5.6413   H         1 RES1   0.0000
   244 H150      2.9604   -4.7432    2.3620   H         1 RES1   0.0000
   245 H151      3.5577   -5.7653    1.0665   H         1 RES1   0.0000
   246 H152      1.4230   -5.5522   -0.1422   H         1 RES1   0.0000
   247 H153      0.9193   -4.2405    0.9053   H         1 RES1   0.0000
   248 H154      1.1036   -6.0153    2.8300   H         1 RES1   0.0000
   249 H155      1.1093   -7.2122    1.5413   H         1 RES1   0.0000
   250 H156     -0.9940   -6.1045    0.6379   H         1 RES1   0.0000
   251 H157     -1.0360   -5.1168    2.0845   H         1 RES1   0.0000
   252 H158     -1.2952   -8.1499    1.9610   H         1 RES1   0.0000
   253 H159     -2.5971   -6.9889    2.1682   H         1 RES1   0.0000
   254 H160     -0.3410   -7.4431    4.1710   H         1 RES1   0.0000
   255 H161     -1.9813   -8.0554    4.3001   H         1 RES1   0.0000
   256 H162     -1.7002   -6.3265    4.3767   H         1 RES1   0.0000
   257 C82      -0.7473    3.6460   -4.9379   C.3       1 RES1   0.0000
   258 C83      -1.3624    4.7445   -4.0778   C.3       1 RES1   0.0000
   259 C84      -0.4058    5.9030   -3.7886   C.3       1 RES1   0.0000
   260 C85       0.8965    5.4997   -3.0938   C.3       1 RES1   0.0000
   261 C86       0.7090    5.0783   -1.6363   C.3       1 RES1   0.0000
   262 C87       1.9808    4.4476   -1.0520   C.3       1 RES1   0.0000
   263 N7        1.8861    4.3891    0.4037   N.am      1 RES1   0.0000
   264 C88       2.6082    5.4182    1.1453   C.3       1 RES1   0.0000
   265 C89       3.9249    4.8700    1.7440   C.3       1 RES1   0.0000
   266 C90       5.2043    5.2678    1.0004   C.3       1 RES1   0.0000
   267 C91       6.3810    4.4141    1.4829   C.3       1 RES1   0.0000
   268 C92       7.6605    4.6179    0.6742   C.3       1 RES1   0.0000
   269 C93       8.6879    3.5352    0.9800   C.3       1 RES1   0.0000
   270 C94       1.2668    3.3390    0.9507   C.2       1 RES1   0.0000
   271 O7        0.9774    2.3283    0.2826   O.2       1 RES1   0.0000
   272 C95       0.8694    3.4472    2.4226   C.3       1 RES1   0.0000
   273 C96      -0.4773    2.7827    2.6943   C.2       1 RES1   0.0000
   274 O8       -0.8098    1.7413    2.0943   O.2       1 RES1   0.0000
   275 N8       -1.2963    3.3766    3.5729   N.am      1 RES1   0.0000
   276 C97      -2.6523    2.8645    3.7559   C.3       1 RES1   0.0000
   277 C98      -2.8923    2.2442    5.1358   C.3       1 RES1   0.0000
   278 C99      -4.3473    1.8116    5.3153   C.3       1 RES1   0.0000
   279 C100     -4.6809    1.4387    6.7609   C.3       1 RES1   0.0000
   280 C101     -6.0742    0.8152    6.8760   C.3       1 RES1   0.0000
   281 C102     -6.1086   -0.6492    6.4493   C.3       1 RES1   0.0000
   282 C103     -0.9636    4.5173    4.4248   C.3       1 RES1   0.0000
   283 C104      0.0102    4.1694    5.5728   C.3       1 RES1   0.0000
   284 C105     -0.5887    4.3311    6.9882   C.3       1 RES1   0.0000
   285 C106     -0.4995    3.0483    7.8205   C.3       1 RES1   0.0000
   286 C107     -1.4090    3.0691    9.0498   C.3       1 RES1   0.0000
   287 C108     -1.5314    1.6862    9.6765   C.3       1 RES1   0.0000
   288 H163     -1.5138    2.9496   -5.2667   H         1 RES1   0.0000
   289 H164      0.0032    3.0817   -4.3894   H         1 RES1   0.0000
   290 H165     -0.2829    4.0738   -5.8219   H         1 RES1   0.0000
   291 H166     -1.7281    4.3165   -3.1407   H         1 RES1   0.0000
   292 H167     -2.2268    5.1497   -4.6037   H         1 RES1   0.0000
   293 H168     -0.9272    6.6481   -3.1846   H         1 RES1   0.0000
   294 H169     -0.1452    6.3741   -4.7372   H         1 RES1   0.0000
   295 H170      1.5826    6.3473   -3.1241   H         1 RES1   0.0000
   296 H171      1.3554    4.6910   -3.6606   H         1 RES1   0.0000
   297 H172     -0.1095    4.3586   -1.5572   H         1 RES1   0.0000
   298 H173      0.4384    5.9558   -1.0435   H         1 RES1   0.0000
   299 H174      2.8584    5.0384   -1.3190   H         1 RES1   0.0000
   300 H175      2.1077    3.4295   -1.4281   H         1 RES1   0.0000
   301 H176      1.9788    5.8276    1.9394   H         1 RES1   0.0000
   302 H177      2.8196    6.2391    0.4564   H         1 RES1   0.0000
   303 H178      3.8710    3.7774    1.7598   H         1 RES1   0.0000
   304 H179      4.0208    5.2132    2.7726   H         1 RES1   0.0000
   305 H180      5.4223    6.3237    1.1670   H         1 RES1   0.0000
   306 H181      5.0698    5.1241   -0.0714   H         1 RES1   0.0000
   307 H182      6.0926    3.3595    1.4272   H         1 RES1   0.0000
   308 H183      6.5821    4.6399    2.5308   H         1 RES1   0.0000
   309 H184      8.0802    5.5982    0.8965   H         1 RES1   0.0000
   310 H185      7.4263    4.5954   -0.3901   H         1 RES1   0.0000
   311 H186      8.9613    3.5488    2.0319   H         1 RES1   0.0000
   312 H187      9.5842    3.6862    0.3868   H         1 RES1   0.0000
   313 H188      8.2926    2.5496    0.7413   H         1 RES1   0.0000
   314 H189      0.8430    4.4868    2.7398   H         1 RES1   0.0000
   315 H190      1.6392    2.9316    3.0012   H         1 RES1   0.0000
   316 H191     -2.8311    2.1328    2.9636   H         1 RES1   0.0000
   317 H192     -3.3408    3.7046    3.6117   H         1 RES1   0.0000
   318 H193     -2.6577    2.9693    5.9125   H         1 RES1   0.0000
   319 H194     -2.2236    1.3886    5.2611   H         1 RES1   0.0000
   320 H195     -4.5564    0.9618    4.6654   H         1 RES1   0.0000
   321 H196     -5.0026    2.6268    5.0018   H         1 RES1   0.0000
   322 H197     -4.6384    2.3383    7.3768   H         1 RES1   0.0000
   323 H198     -3.9410    0.7352    7.1476   H         1 RES1   0.0000
   324 H199     -6.7742    1.3937    6.2710   H         1 RES1   0.0000
   325 H200     -6.4063    0.8743    7.9113   H         1 RES1   0.0000
   326 H201     -5.6170   -0.7998    5.4896   H         1 RES1   0.0000
   327 H202     -7.1314   -1.0013    6.3572   H         1 RES1   0.0000
   328 H203     -5.6142   -1.2741    7.1892   H         1 RES1   0.0000
   329 H204     -1.9031    4.8857    4.8425   H         1 RES1   0.0000
   330 H205     -0.5629    5.3291    3.8134   H         1 RES1   0.0000
   331 H206      0.8905    4.8044    5.4913   H         1 RES1   0.0000
   332 H207      0.3446    3.1366    5.4391   H         1 RES1   0.0000
   333 H208     -1.6355    4.6394    6.9230   H         1 RES1   0.0000
   334 H209     -0.0670    5.1284    7.5166   H         1 RES1   0.0000
   335 H210      0.5352    2.8904    8.1341   H         1 RES1   0.0000
   336 H211     -0.7802    2.2002    7.1910   H         1 RES1   0.0000
   337 H212     -2.4038    3.4131    8.7591   H         1 RES1   0.0000
   338 H213     -1.0182    3.7765    9.7813   H         1 RES1   0.0000
   339 H214     -0.5538    1.3003    9.9522   H         1 RES1   0.0000
   340 H215     -2.0020    0.9917    8.9815   H         1 RES1   0.0000
   341 H216     -2.1371    1.7300   10.5751   H         1 RES1   0.0000
   342 O9       -1.3028    1.4403   -0.7175   O.3       1 RES1   0.0000
   343 H217     -1.7411    1.7556    0.0914   H         1 RES1   0.0000
   344 H218     -0.9611    2.2209   -1.1794   H         1 RES1   0.0000
@<TRIPOS>BOND
     1     1    16    1
     2     1    19    1
     3     1   101    1
     4     1   104    1
     5     1   186    1
     6     1   189    1
     7     1   271    1
     8     1   274    1
     9     1   342    1
    10     2     3    1
    11     2    33    1
    12     2    34    1
    13     2    35    1
    14     3     4    1
    15     3    36    1
    16     3    37    1
    17     4     5    1
    18     4    38    1
    19     4    39    1
    20     5     6    1
    21     5    40    1
    22     5    41    1
    23     6     7    1
    24     6    42    1
    25     6    43    1
    26     7     8    1
    27     7    44    1
    28     7    45    1
    29     8     9    1
    30     8    15    1
    31     9    10    1
    32     9    46    1
    33     9    47    1
    34    10    11    1
    35    10    48    1
    36    10    49    1
    37    11    12    1
    38    11    50    1
    39    11    51    1
    40    12    13    1
    41    12    52    1
    42    12    53    1
    43    13    14    1
    44    13    54    1
    45    13    55    1
    46    14    56    1
    47    14    57    1
    48    14    58    1
    49    15    16    2
    50    15    17    1
    51    17    18    1
    52    17    59    1
    53    17    60    1
    54    18    19    2
    55    18    20    1
    56    20    21    1
    57    20    27    1
    58    21    22    1
    59    21    61    1
    60    21    62    1
    61    22    23    1
    62    22    63    1
    63    22    64    1
    64    23    24    1
    65    23    65    1
    66    23    66    1
    67    24    25    1
    68    24    67    1
    69    24    68    1
    70    25    26    1
    71    25    69    1
    72    25    70    1
    73    26    71    1
    74    26    72    1
    75    26    73    1
    76    27    28    1
    77    27    74    1
    78    27    75    1
    79    28    29    1
    80    28    76    1
    81    28    77    1
    82    29    30    1
    83    29    78    1
    84    29    79    1
    85    30    31    1
    86    30    80    1
    87    30    81    1
    88    31    32    1
    89    31    82    1
    90    31    83    1
    91    32    84    1
    92    32    85    1
    93    32    86    1
    94    87    88    1
    95    87   118    1
    96    87   119    1
    97    87   120    1
    98    88    89    1
    99    88   121    1
   100    88   122    1
   101    89    90    1
   102    89   123    1
   103    89   124    1
   104    90    91    1
   105    90   125    1
   106    90   126    1
   107    91    92    1
   108    91   127    1
   109    91   128    1
   110    92    93    1
   111    92   129    1
   112    92   130    1
   113    93    94    1
   114    93   100    1
   115    94    95    1
   116    94   131    1
   117    94   132    1
   118    95    96    1
   119    95   133    1
   120    95   134    1
   121    96    97    1
   122    96   135    1
   123    96   136    1
   124    97    98    1
   125    97   137    1
   126    97   138    1
   127    98    99    1
   128    98   139    1
   129    98   140    1
   130    99   141    1
   131    99   142    1
   132    99   143    1
   133   100   101    2
   134   100   102    1
   135   102   103    1
   136   102   144    1
   137   102   145    1
   138   103   104    2
   139   103   105    1
   140   105   106    1
   141   105   112    1
   142   106   107    1
   143   106   146    1
   144   106   147    1
   145   107   108    1
   146   107   148    1
   147   107   149    1
   148   108   109    1
   149   108   150    1
   150   108   151    1
   151   109   110    1
   152   109   152    1
   153   109   153    1
   154   110   111    1
   155   110   154    1
   156   110   155    1
   157   111   156    1
   158   111   157    1
   159   111   158    1
   160   112   113    1
   161   112   159    1
   162   112   160    1
   163   113   114    1
   164   113   161    1
   165   113   162    1
   166   114   115    1
   167   114   163    1
   168   114   164    1
   169   115   116    1
   170   115   165    1
   171   115   166    1
   172   116   117    1
   173   116   167    1
   174   116   168    1
   175   117   169    1
   176   117   170    1
   177   117   171    1
   178   172   173    1
   179   172   203    1
   180   172   204    1
   181   172   205    1
   182   173   174    1
   183   173   206    1
   184   173   207    1
   185   174   175    1
   186   174   208    1
   187   174   209    1
   188   175   176    1
   189   175   210    1
   190   175   211    1
   191   176   177    1
   192   176   212    1
   193   176   213    1
   194   177   178    1
   195   177   214    1
   196   177   215    1
   197   178   179    1
   198   178   185    1
   199   179   180    1
   200   179   216    1
   201   179   217    1
   202   180   181    1
   203   180   218    1
   204   180   219    1
   205   181   182    1
   206   181   220    1
   207   181   221    1
   208   182   183    1
   209   182   222    1
   210   182   223    1
   211   183   184    1
   212   183   224    1
   213   183   225    1
   214   184   226    1
   215   184   227    1
   216   184   228    1
   217   185   186    2
   218   185   187    1
   219   187   188    1
   220   187   229    1
   221   187   230    1
   222   188   189    2
   223   188   190    1
   224   190   191    1
   225   190   197    1
   226   191   192    1
   227   191   231    1
   228   191   232    1
   229   192   193    1
   230   192   233    1
   231   192   234    1
   232   193   194    1
   233   193   235    1
   234   193   236    1
   235   194   195    1
   236   194   237    1
   237   194   238    1
   238   195   196    1
   239   195   239    1
   240   195   240    1
   241   196   241    1
   242   196   242    1
   243   196   243    1
   244   197   198    1
   245   197   244    1
   246   197   245    1
   247   198   199    1
   248   198   246    1
   249   198   247    1
   250   199   200    1
   251   199   248    1
   252   199   249    1
   253   200   201    1
   254   200   250    1
   255   200   251    1
   256   201   202    1
   257   201   252    1
   258   201   253    1
   259   202   254    1
   260   202   255    1
   261   202   256    1
   262   257   258    1
   263   257   288    1
   264   257   289    1
   265   257   290    1
   266   258   259    1
   267   258   291    1
   268   258   292    1
   269   259   260    1
   270   259   293    1
   271   259   294    1
   272   260   261    1
   273   260   295    1
   274   260   296    1
   275   261   262    1
   276   261   297    1
   277   261   298    1
   278   262   263    1
   279   262   299    1
   280   262   300    1
   281   263   264    1
   282   263   270    1
   283   264   265    1
   284   264   301    1
   285   264   302    1
   286   265   266    1
   287   265   303    1
   288   265   304    1
   289   266   267    1
   290   266   305    1
   291   266   306    1
   292   267   268    1
   293   267   307    1
   294   267   308    1
   295   268   269    1
   296   268   309    1
   297   268   310    1
   298   269   311    1
   299   269   312    1
   300   269   313    1
   301   270   271    2
   302   270   272    1
   303   272   273    1
   304   272   314    1
   305   272   315    1
   306   273   274    2
   307   273   275    1
   308   275   276    1
   309   275   282    1
   310   276   277    1
   311   276   316    1
   312   276   317    1
   313   277   278    1
   314   277   318    1
   315   277   319    1
   316   278   279    1
   317   278   320    1
   318   278   321    1
   319   279   280    1
   320   279   322    1
   321   279   323    1
   322   280   281    1
   323   280   324    1
   324   280   325    1
   325   281   326    1
   326   281   327    1
   327   281   328    1
   328   282   283    1
   329   282   329    1
   330   282   330    1
   331   283   284    1
   332   283   331    1
   333   283   332    1
   334   284   285    1
   335   284   333    1
   336   284   334    1
   337   285   286    1
   338   285   335    1
   339   285   336    1
   340   286   287    1
   341   286   337    1
   342   286   338    1
   343   287   339    1
   344   287   340    1
   345   287   341    1
   346   342   343    1
   347   342   344    1
@<TRIPOS>SUBSTRUCTURE
     1 RES1      344 GROUP             0 ****  ****    0  
