@<TRIPOS>MOLECULE
am_c3_9H2O_c0_0_nunpairedes_0_charge_3 Charge: 3 Unpaired_Electrons: 6 XTB_Unpaired_Electrons: 0 XTB_Charge: 3
   361   369     1     0     0
SMALL
NoCharges
****
Generated from Architector

@<TRIPOS>ATOM
     1 Eu1       0.1040    0.1375   -0.3138   Eu        1 RES1   0.0000
     2 C1       -4.5310   -6.8287   -2.6891   C.3       1 RES1   0.0000
     3 C2       -5.9679   -6.3533   -2.5125   C.3       1 RES1   0.0000
     4 C3       -6.1225   -5.2649   -1.4464   C.3       1 RES1   0.0000
     5 C4       -5.9651   -5.8021   -0.0226   C.3       1 RES1   0.0000
     6 C5       -6.4081   -4.8112    1.0582   C.3       1 RES1   0.0000
     7 C6       -5.3534   -3.7528    1.3891   C.3       1 RES1   0.0000
     8 C7       -5.8255   -2.8386    2.5167   C.3       1 RES1   0.0000
     9 C8       -4.7629   -1.8429    2.9934   C.3       1 RES1   0.0000
    10 P1       -4.1683   -0.6445    1.7074   P.3       1 RES1   0.0000
    11 O1       -3.0296   -1.1458    0.9043   O.2       1 RES1   0.0000
    12 C9       -5.7026   -0.2315    0.7770   C.3       1 RES1   0.0000
    13 C10      -6.8571    0.2940    1.6238   C.3       1 RES1   0.0000
    14 C11      -8.1902    0.2313    0.8775   C.3       1 RES1   0.0000
    15 C12      -9.3048    0.9054    1.6808   C.3       1 RES1   0.0000
    16 C13      -9.2109    2.4301    1.6570   C.3       1 RES1   0.0000
    17 C14     -10.2188    3.1044    2.5891   C.3       1 RES1   0.0000
    18 C15      -9.9380    2.9139    4.0806   C.3       1 RES1   0.0000
    19 C16      -8.6431    3.5743    4.5441   C.3       1 RES1   0.0000
    20 C17      -3.6264    0.9983    2.5002   C.3       1 RES1   0.0000
    21 C18      -3.7907    1.9700    1.3917   C.ar      1 RES1   0.0000
    22 C19      -4.8682    2.8391    1.3578   C.ar      1 RES1   0.0000
    23 C20      -5.2130    3.4977    0.1919   C.ar      1 RES1   0.0000
    24 C21      -4.4851    3.1904   -0.9449   C.ar      1 RES1   0.0000
    25 C22      -3.3600    2.3789   -0.8801   C.ar      1 RES1   0.0000
    26 C23      -2.5710    2.0402   -2.0929   C.3       1 RES1   0.0000
    27 P2       -2.6912    0.2148   -2.5619   P.3       1 RES1   0.0000
    28 O2       -1.8836   -0.6541   -1.6478   O.2       1 RES1   0.0000
    29 C24      -4.4965   -0.1212   -2.6002   C.3       1 RES1   0.0000
    30 C25      -5.2476    0.8542   -3.5128   C.3       1 RES1   0.0000
    31 C26      -6.7716    0.8220   -3.3720   C.3       1 RES1   0.0000
    32 C27      -7.4663   -0.4694   -3.8109   C.3       1 RES1   0.0000
    33 C28      -7.1755   -0.9270   -5.2421   C.3       1 RES1   0.0000
    34 C29      -7.5414    0.1109   -6.3017   C.3       1 RES1   0.0000
    35 C30      -7.5149   -0.4531   -7.7213   C.3       1 RES1   0.0000
    36 C31      -7.9589    0.5956   -8.7346   C.3       1 RES1   0.0000
    37 C32      -2.3139    0.0519   -4.3583   C.3       1 RES1   0.0000
    38 C33      -2.7589   -1.2615   -4.9975   C.3       1 RES1   0.0000
    39 C34      -2.5186   -1.2078   -6.5117   C.3       1 RES1   0.0000
    40 C35      -3.6531   -0.4789   -7.2384   C.3       1 RES1   0.0000
    41 C36      -3.2983    0.0081   -8.6492   C.3       1 RES1   0.0000
    42 C37      -2.8243    1.4631   -8.7035   C.3       1 RES1   0.0000
    43 C38      -3.9023    2.4678   -8.2834   C.3       1 RES1   0.0000
    44 C39      -3.6406    3.8587   -8.8492   C.3       1 RES1   0.0000
    45 N1       -2.9568    1.8705    0.3161   N.ar      1 RES1   0.0000
    46 O3       -1.7815    1.3278    0.4604   O.co2     1 RES1   0.0000
    47 H1       -4.4819   -7.5845   -3.4683   H         1 RES1   0.0000
    48 H2       -4.1458   -7.2630   -1.7704   H         1 RES1   0.0000
    49 H3       -3.8903   -5.9976   -2.9792   H         1 RES1   0.0000
    50 H4       -6.5993   -7.2021   -2.2450   H         1 RES1   0.0000
    51 H5       -6.3307   -5.9683   -3.4689   H         1 RES1   0.0000
    52 H6       -7.1204   -4.8304   -1.5462   H         1 RES1   0.0000
    53 H7       -5.3942   -4.4711   -1.6323   H         1 RES1   0.0000
    54 H8       -4.9260   -6.0846    0.1563   H         1 RES1   0.0000
    55 H9       -6.5760   -6.7024    0.0672   H         1 RES1   0.0000
    56 H10      -6.6339   -5.3640    1.9728   H         1 RES1   0.0000
    57 H11      -7.3317   -4.3263    0.7354   H         1 RES1   0.0000
    58 H12      -5.1168   -3.1628    0.5006   H         1 RES1   0.0000
    59 H13      -4.4368   -4.2568    1.7022   H         1 RES1   0.0000
    60 H14      -6.0839   -3.4597    3.3786   H         1 RES1   0.0000
    61 H15      -6.7410   -2.3376    2.2089   H         1 RES1   0.0000
    62 H16      -3.8905   -2.4195    3.2932   H         1 RES1   0.0000
    63 H17      -5.1395   -1.2927    3.8553   H         1 RES1   0.0000
    64 H18      -5.9959   -1.1563    0.2693   H         1 RES1   0.0000
    65 H19      -5.4558    0.5048    0.0112   H         1 RES1   0.0000
    66 H20      -6.6684    1.3295    1.8906   H         1 RES1   0.0000
    67 H21      -6.9422   -0.2725    2.5481   H         1 RES1   0.0000
    68 H22      -8.4519   -0.8134    0.6932   H         1 RES1   0.0000
    69 H23      -8.0951    0.7197   -0.0966   H         1 RES1   0.0000
    70 H24      -9.2600    0.5481    2.7091   H         1 RES1   0.0000
    71 H25     -10.2713    0.6139    1.2702   H         1 RES1   0.0000
    72 H26      -9.3927    2.7722    0.6345   H         1 RES1   0.0000
    73 H27      -8.2057    2.7549    1.9306   H         1 RES1   0.0000
    74 H28     -11.2110    2.7126    2.3641   H         1 RES1   0.0000
    75 H29     -10.2313    4.1754    2.3737   H         1 RES1   0.0000
    76 H30      -9.9152    1.8516    4.3284   H         1 RES1   0.0000
    77 H31     -10.7679    3.3534    4.6338   H         1 RES1   0.0000
    78 H32      -7.7688    3.0595    4.1466   H         1 RES1   0.0000
    79 H33      -8.5786    3.5507    5.6298   H         1 RES1   0.0000
    80 H34      -8.6101    4.6142    4.2235   H         1 RES1   0.0000
    81 H35      -2.5830    0.8905    2.7911   H         1 RES1   0.0000
    82 H36      -4.2490    1.2747    3.3459   H         1 RES1   0.0000
    83 H37      -5.4391    2.9790    2.2618   H         1 RES1   0.0000
    84 H38      -6.0565    4.1739    0.1603   H         1 RES1   0.0000
    85 H39      -4.7722    3.6141   -1.8947   H         1 RES1   0.0000
    86 H40      -1.5135    2.2387   -1.9004   H         1 RES1   0.0000
    87 H41      -2.9239    2.6278   -2.9410   H         1 RES1   0.0000
    88 H42      -4.8861   -0.0900   -1.5890   H         1 RES1   0.0000
    89 H43      -4.6171   -1.1497   -2.9436   H         1 RES1   0.0000
    90 H44      -4.9985    0.6602   -4.5535   H         1 RES1   0.0000
    91 H45      -4.9412    1.8745   -3.2863   H         1 RES1   0.0000
    92 H46      -7.1672    1.6441   -3.9718   H         1 RES1   0.0000
    93 H47      -7.0403    1.0294   -2.3301   H         1 RES1   0.0000
    94 H48      -8.5407   -0.2963   -3.7274   H         1 RES1   0.0000
    95 H49      -7.2063   -1.2717   -3.1180   H         1 RES1   0.0000
    96 H50      -7.7639   -1.8275   -5.4262   H         1 RES1   0.0000
    97 H51      -6.1257   -1.2079   -5.3449   H         1 RES1   0.0000
    98 H52      -6.8534    0.9576   -6.2524   H         1 RES1   0.0000
    99 H53      -8.5468    0.4830   -6.0979   H         1 RES1   0.0000
   100 H54      -8.1748   -1.3200   -7.7851   H         1 RES1   0.0000
   101 H55      -6.5067   -0.7892   -7.9703   H         1 RES1   0.0000
   102 H56      -8.9853    0.8990   -8.5393   H         1 RES1   0.0000
   103 H57      -7.9061    0.2019   -9.7472   H         1 RES1   0.0000
   104 H58      -7.3272    1.4819   -8.6784   H         1 RES1   0.0000
   105 H59      -1.2493    0.1703   -4.5145   H         1 RES1   0.0000
   106 H60      -2.8223    0.8705   -4.8603   H         1 RES1   0.0000
   107 H61      -3.8195   -1.4427   -4.8422   H         1 RES1   0.0000
   108 H62      -2.2180   -2.0969   -4.5521   H         1 RES1   0.0000
   109 H63      -2.4547   -2.2240   -6.9006   H         1 RES1   0.0000
   110 H64      -1.5655   -0.7149   -6.7111   H         1 RES1   0.0000
   111 H65      -3.9779    0.3804   -6.6536   H         1 RES1   0.0000
   112 H66      -4.5020   -1.1589   -7.2939   H         1 RES1   0.0000
   113 H67      -4.1783   -0.0724   -9.2894   H         1 RES1   0.0000
   114 H68      -2.5340   -0.6394   -9.0834   H         1 RES1   0.0000
   115 H69      -2.5363    1.6862   -9.7318   H         1 RES1   0.0000
   116 H70      -1.9326    1.5961   -8.0845   H         1 RES1   0.0000
   117 H71      -3.9576    2.5328   -7.1929   H         1 RES1   0.0000
   118 H72      -4.8711    2.1174   -8.6422   H         1 RES1   0.0000
   119 H73      -2.6507    4.2136   -8.5715   H         1 RES1   0.0000
   120 H74      -4.3737    4.5690   -8.4757   H         1 RES1   0.0000
   121 H75      -3.7091    3.8461   -9.9333   H         1 RES1   0.0000
   122 C40      -2.9473    5.5781    2.7612   C.3       1 RES1   0.0000
   123 C41      -3.2736    4.8380    4.0559   C.3       1 RES1   0.0000
   124 C42      -2.1384    4.8762    5.0783   C.3       1 RES1   0.0000
   125 C43      -0.8681    4.2138    4.5524   C.3       1 RES1   0.0000
   126 C44       0.1235    3.8938    5.6675   C.3       1 RES1   0.0000
   127 C45       1.4044    3.2555    5.1358   C.3       1 RES1   0.0000
   128 C46       1.1565    1.8788    4.5221   C.3       1 RES1   0.0000
   129 C47       2.3494    1.3671    3.7327   C.3       1 RES1   0.0000
   130 P3        2.6203    2.1303    2.0791   P.3       1 RES1   0.0000
   131 O4        2.4869    1.0960    1.0119   O.2       1 RES1   0.0000
   132 C48       4.2210    3.0449    2.3284   C.3       1 RES1   0.0000
   133 C49       5.5660    2.3194    2.1978   C.3       1 RES1   0.0000
   134 C50       6.2981    2.6899    0.9054   C.3       1 RES1   0.0000
   135 C51       7.7347    2.1570    0.8674   C.3       1 RES1   0.0000
   136 C52       8.6750    3.0099    1.7223   C.3       1 RES1   0.0000
   137 C53      10.1451    2.5724    1.7066   C.3       1 RES1   0.0000
   138 C54      10.5565    1.5661    2.7832   C.3       1 RES1   0.0000
   139 C55      10.0599    0.1429    2.5488   C.3       1 RES1   0.0000
   140 C56       1.4093    3.4909    1.5844   C.3       1 RES1   0.0000
   141 C57       2.0254    3.8561    0.2803   C.ar      1 RES1   0.0000
   142 C58       3.0117    4.8256    0.1927   C.ar      1 RES1   0.0000
   143 C59       3.8688    4.8436   -0.8945   C.ar      1 RES1   0.0000
   144 C60       3.6570    3.9189   -1.8974   C.ar      1 RES1   0.0000
   145 C61       2.5364    3.0927   -1.8864   C.ar      1 RES1   0.0000
   146 C62       2.1319    2.5084   -3.2069   C.3       1 RES1   0.0000
   147 P4        1.0954    0.9956   -3.6288   P.3       1 RES1   0.0000
   148 O5       -0.0420    0.8605   -2.6685   O.2       1 RES1   0.0000
   149 C63       0.5567    1.6413   -5.2969   C.3       1 RES1   0.0000
   150 C64      -0.6983    2.5219   -5.2487   C.3       1 RES1   0.0000
   151 C65      -0.5419    4.0425   -5.2790   C.3       1 RES1   0.0000
   152 C66      -0.0233    4.6582   -6.5870   C.3       1 RES1   0.0000
   153 C67       1.4437    5.0975   -6.5577   C.3       1 RES1   0.0000
   154 C68       1.7512    6.1199   -5.4654   C.3       1 RES1   0.0000
   155 C69       3.2128    6.5575   -5.4527   C.3       1 RES1   0.0000
   156 C70       3.5204    7.3898   -4.2149   C.3       1 RES1   0.0000
   157 C71       1.6940   -0.7396   -4.0022   C.3       1 RES1   0.0000
   158 C72       0.6796   -1.7499   -3.4600   C.3       1 RES1   0.0000
   159 C73       0.8301   -3.1228   -4.1241   C.3       1 RES1   0.0000
   160 C74      -0.1717   -4.1495   -3.5873   C.3       1 RES1   0.0000
   161 C75       0.2993   -4.8676   -2.3243   C.3       1 RES1   0.0000
   162 C76      -0.7801   -5.8137   -1.7781   C.3       1 RES1   0.0000
   163 C77      -1.5219   -5.2751   -0.5532   C.3       1 RES1   0.0000
   164 C78      -2.1770   -3.9175   -0.7754   C.3       1 RES1   0.0000
   165 N2        1.7467    3.0621   -0.7906   N.ar      1 RES1   0.0000
   166 O6        0.6705    2.3334   -0.7419   O.co2     1 RES1   0.0000
   167 H76      -3.8437    5.6912    2.1543   H         1 RES1   0.0000
   168 H77      -2.2054    5.0387    2.1723   H         1 RES1   0.0000
   169 H78      -2.5608    6.5710    2.9808   H         1 RES1   0.0000
   170 H79      -3.5054    3.7931    3.8257   H         1 RES1   0.0000
   171 H80      -4.1615    5.2821    4.5070   H         1 RES1   0.0000
   172 H81      -2.4638    4.3530    5.9782   H         1 RES1   0.0000
   173 H82      -1.9280    5.9092    5.3585   H         1 RES1   0.0000
   174 H83      -0.3892    4.8731    3.8251   H         1 RES1   0.0000
   175 H84      -1.1507    3.2903    4.0386   H         1 RES1   0.0000
   176 H85      -0.3430    3.2211    6.3887   H         1 RES1   0.0000
   177 H86       0.3754    4.8144    6.1947   H         1 RES1   0.0000
   178 H87       2.1172    3.1480    5.9544   H         1 RES1   0.0000
   179 H88       1.8482    3.9228    4.3942   H         1 RES1   0.0000
   180 H89       0.2988    1.9038    3.8500   H         1 RES1   0.0000
   181 H90       0.9338    1.1735    5.3283   H         1 RES1   0.0000
   182 H91       2.2237    0.3113    3.4962   H         1 RES1   0.0000
   183 H92       3.2638    1.4873    4.3151   H         1 RES1   0.0000
   184 H93       4.1146    3.4284    3.3456   H         1 RES1   0.0000
   185 H94       4.2539    3.9036    1.6635   H         1 RES1   0.0000
   186 H95       5.4341    1.2386    2.2525   H         1 RES1   0.0000
   187 H96       6.1971    2.6138    3.0372   H         1 RES1   0.0000
   188 H97       6.3403    3.7809    0.8370   H         1 RES1   0.0000
   189 H98       5.7279    2.3269    0.0416   H         1 RES1   0.0000
   190 H99       8.0938    2.1904   -0.1619   H         1 RES1   0.0000
   191 H100      7.7489    1.1208    1.2023   H         1 RES1   0.0000
   192 H101      8.3252    3.0294    2.7551   H         1 RES1   0.0000
   193 H102      8.6215    4.0332    1.3406   H         1 RES1   0.0000
   194 H103     10.7593    3.4621    1.8573   H         1 RES1   0.0000
   195 H104     10.3925    2.1681    0.7243   H         1 RES1   0.0000
   196 H105     10.2160    1.9131    3.7609   H         1 RES1   0.0000
   197 H106     11.6470    1.5437    2.8114   H         1 RES1   0.0000
   198 H107      8.9872    0.0613    2.7179   H         1 RES1   0.0000
   199 H108     10.5572   -0.5438    3.2334   H         1 RES1   0.0000
   200 H109     10.2785   -0.1733    1.5285   H         1 RES1   0.0000
   201 H110      1.3786    4.3355    2.2641   H         1 RES1   0.0000
   202 H111      0.4202    3.0355    1.4668   H         1 RES1   0.0000
   203 H112      3.1176    5.5351    1.0010   H         1 RES1   0.0000
   204 H113      4.6868    5.5440   -0.9466   H         1 RES1   0.0000
   205 H114      4.3212    3.8975   -2.7462   H         1 RES1   0.0000
   206 H115      2.9951    2.5206   -3.8729   H         1 RES1   0.0000
   207 H116      1.4338    3.2622   -3.6020   H         1 RES1   0.0000
   208 H117      0.3507    0.7774   -5.9246   H         1 RES1   0.0000
   209 H118      1.3877    2.1670   -5.7623   H         1 RES1   0.0000
   210 H119     -1.2173    2.2920   -4.3209   H         1 RES1   0.0000
   211 H120     -1.3409    2.2540   -6.0857   H         1 RES1   0.0000
   212 H121      0.0765    4.3679   -4.4436   H         1 RES1   0.0000
   213 H122     -1.5337    4.4554   -5.0939   H         1 RES1   0.0000
   214 H123     -0.6224    5.5444   -6.8164   H         1 RES1   0.0000
   215 H124     -0.1638    3.9505   -7.4081   H         1 RES1   0.0000
   216 H125      1.6668    5.5498   -7.5247   H         1 RES1   0.0000
   217 H126      2.0989    4.2300   -6.4419   H         1 RES1   0.0000
   218 H127      1.5262    5.7012   -4.4811   H         1 RES1   0.0000
   219 H128      1.1142    6.9962   -5.5942   H         1 RES1   0.0000
   220 H129      3.4350    7.1351   -6.3491   H         1 RES1   0.0000
   221 H130      3.8563    5.6750   -5.4664   H         1 RES1   0.0000
   222 H131      2.9232    8.2961   -4.2135   H         1 RES1   0.0000
   223 H132      4.5686    7.6695   -4.1901   H         1 RES1   0.0000
   224 H133      3.2917    6.8313   -3.3072   H         1 RES1   0.0000
   225 H134      2.6785   -0.9521   -3.5992   H         1 RES1   0.0000
   226 H135      1.7350   -0.8214   -5.0885   H         1 RES1   0.0000
   227 H136     -0.3306   -1.4004   -3.6559   H         1 RES1   0.0000
   228 H137      0.7679   -1.8130   -2.3679   H         1 RES1   0.0000
   229 H138      1.8426   -3.5168   -4.0092   H         1 RES1   0.0000
   230 H139      0.6696   -2.9946   -5.1960   H         1 RES1   0.0000
   231 H140     -0.3564   -4.9016   -4.3553   H         1 RES1   0.0000
   232 H141     -1.1142   -3.6457   -3.3776   H         1 RES1   0.0000
   233 H142      0.5559   -4.1352   -1.5599   H         1 RES1   0.0000
   234 H143      1.2050   -5.4304   -2.5614   H         1 RES1   0.0000
   235 H144     -0.3311   -6.7692   -1.5032   H         1 RES1   0.0000
   236 H145     -1.5068   -6.0181   -2.5647   H         1 RES1   0.0000
   237 H146     -0.8280   -5.2220    0.2897   H         1 RES1   0.0000
   238 H147     -2.2951   -5.9977   -0.2848   H         1 RES1   0.0000
   239 H148     -1.4493   -3.1274   -0.9609   H         1 RES1   0.0000
   240 H149     -2.7633   -3.6303    0.0929   H         1 RES1   0.0000
   241 H150     -2.8452   -3.9580   -1.6304   H         1 RES1   0.0000
   242 C79       8.9777   -3.8370   -0.4933   C.3       1 RES1   0.0000
   243 C80       8.3650   -3.0174    0.6362   C.3       1 RES1   0.0000
   244 C81       7.7045   -3.9200    1.6753   C.3       1 RES1   0.0000
   245 C82       7.2571   -3.1863    2.9398   C.3       1 RES1   0.0000
   246 C83       6.2606   -2.0479    2.7173   C.3       1 RES1   0.0000
   247 C84       4.9204   -2.4926    2.1241   C.3       1 RES1   0.0000
   248 C85       4.1056   -1.2832    1.6552   C.3       1 RES1   0.0000
   249 C86       4.6726   -0.7057    0.3629   C.3       1 RES1   0.0000
   250 P5        3.7329   -0.9374   -1.1959   P.3       1 RES1   0.0000
   251 O7        2.5748   -0.0094   -1.4106   O.2       1 RES1   0.0000
   252 C87       5.1386   -0.7476   -2.3987   C.3       1 RES1   0.0000
   253 C88       5.0503    0.3998   -3.4049   C.3       1 RES1   0.0000
   254 C89       4.6699    0.0574   -4.8711   C.3       1 RES1   0.0000
   255 C90       4.8465   -1.4155   -5.2506   C.3       1 RES1   0.0000
   256 C91       4.1816   -1.8770   -6.5480   C.3       1 RES1   0.0000
   257 C92       4.7653   -3.2189   -7.0019   C.3       1 RES1   0.0000
   258 C93       4.6961   -4.3494   -5.9597   C.3       1 RES1   0.0000
   259 C94       5.9980   -4.5756   -5.1889   C.3       1 RES1   0.0000
   260 C95       3.3268   -2.7601   -1.3649   C.3       1 RES1   0.0000
   261 C96       2.7589   -3.4900   -0.2048   C.ar      1 RES1   0.0000
   262 C97       3.3312   -4.6657    0.2473   C.ar      1 RES1   0.0000
   263 C98       2.7422   -5.3878    1.2691   C.ar      1 RES1   0.0000
   264 C99       1.5741   -4.8986    1.8214   C.ar      1 RES1   0.0000
   265 C100      1.0193   -3.7091    1.3698   C.ar      1 RES1   0.0000
   266 C101     -0.2373   -3.1496    1.9231   C.3       1 RES1   0.0000
   267 P6        0.0128   -1.6564    3.0084   P.3       1 RES1   0.0000
   268 O8        0.2041   -0.4319    2.1619   O.2       1 RES1   0.0000
   269 C102      1.3867   -2.0706    4.1588   C.3       1 RES1   0.0000
   270 C103      1.1166   -3.3573    4.9361   C.3       1 RES1   0.0000
   271 C104      2.1598   -3.6129    6.0277   C.3       1 RES1   0.0000
   272 C105      1.9615   -4.9938    6.6647   C.3       1 RES1   0.0000
   273 C106      2.5165   -6.1244    5.7989   C.3       1 RES1   0.0000
   274 C107      2.0691   -7.5169    6.2462   C.3       1 RES1   0.0000
   275 C108      0.5973   -7.8049    5.9508   C.3       1 RES1   0.0000
   276 C109      0.2443   -9.2702    6.1799   C.3       1 RES1   0.0000
   277 C110     -1.5190   -1.6582    4.0288   C.3       1 RES1   0.0000
   278 C111     -1.4316   -1.1854    5.4860   C.3       1 RES1   0.0000
   279 C112     -2.0248    0.1943    5.7600   C.3       1 RES1   0.0000
   280 C113     -1.8936    0.5223    7.2598   C.3       1 RES1   0.0000
   281 C114     -3.2226    0.6771    8.0117   C.3       1 RES1   0.0000
   282 C115     -3.7380    2.1155    8.1374   C.3       1 RES1   0.0000
   283 C116     -4.6854    2.5594    7.0260   C.3       1 RES1   0.0000
   284 C117     -5.2238    3.9571    7.3096   C.3       1 RES1   0.0000
   285 N3        1.6217   -3.0296    0.3669   N.ar      1 RES1   0.0000
   286 O9        1.0945   -1.9227   -0.0899   O.co2     1 RES1   0.0000
   287 H151      9.4402   -3.1903   -1.2358   H         1 RES1   0.0000
   288 H152      8.2176   -4.4403   -0.9888   H         1 RES1   0.0000
   289 H153      9.7395   -4.5078   -0.1036   H         1 RES1   0.0000
   290 H154      7.6310   -2.3241    0.2159   H         1 RES1   0.0000
   291 H155      9.1427   -2.4231    1.1175   H         1 RES1   0.0000
   292 H156      8.4295   -4.6777    1.9748   H         1 RES1   0.0000
   293 H157      6.8622   -4.4471    1.2201   H         1 RES1   0.0000
   294 H158      8.1420   -2.7606    3.4142   H         1 RES1   0.0000
   295 H159      6.8274   -3.9085    3.6349   H         1 RES1   0.0000
   296 H160      6.7194   -1.3089    2.0603   H         1 RES1   0.0000
   297 H161      6.0751   -1.5559    3.6755   H         1 RES1   0.0000
   298 H162      4.3665   -3.0603    2.8770   H         1 RES1   0.0000
   299 H163      5.1012   -3.1549    1.2778   H         1 RES1   0.0000
   300 H164      4.1405   -0.5269    2.4407   H         1 RES1   0.0000
   301 H165      3.0516   -1.5136    1.5065   H         1 RES1   0.0000
   302 H166      5.6692   -1.1182    0.2017   H         1 RES1   0.0000
   303 H167      4.7703    0.3780    0.4125   H         1 RES1   0.0000
   304 H168      5.3417   -1.6887   -2.8995   H         1 RES1   0.0000
   305 H169      6.0062   -0.5717   -1.7633   H         1 RES1   0.0000
   306 H170      6.0226    0.8935   -3.4112   H         1 RES1   0.0000
   307 H171      4.3309    1.1134   -3.0048   H         1 RES1   0.0000
   308 H172      5.2967    0.6620   -5.5308   H         1 RES1   0.0000
   309 H173      3.6431    0.3680   -5.0621   H         1 RES1   0.0000
   310 H174      4.4268   -2.0509   -4.4696   H         1 RES1   0.0000
   311 H175      5.9152   -1.6163   -5.3324   H         1 RES1   0.0000
   312 H176      4.3215   -1.1459   -7.3438   H         1 RES1   0.0000
   313 H177      3.1054   -1.9908   -6.3938   H         1 RES1   0.0000
   314 H178      5.8053   -3.0683   -7.2873   H         1 RES1   0.0000
   315 H179      4.2298   -3.5322   -7.8975   H         1 RES1   0.0000
   316 H180      4.4684   -5.2843   -6.4732   H         1 RES1   0.0000
   317 H181      3.8752   -4.1627   -5.2607   H         1 RES1   0.0000
   318 H182      6.8164   -4.7365   -5.8878   H         1 RES1   0.0000
   319 H183      5.9133   -5.4612   -4.5592   H         1 RES1   0.0000
   320 H184      6.2565   -3.7329   -4.5507   H         1 RES1   0.0000
   321 H185      4.2573   -3.2529   -1.6443   H         1 RES1   0.0000
   322 H186      2.6235   -2.8407   -2.1974   H         1 RES1   0.0000
   323 H187      4.2274   -5.0247   -0.2345   H         1 RES1   0.0000
   324 H188      3.1815   -6.3122    1.6133   H         1 RES1   0.0000
   325 H189      1.0722   -5.4569    2.5987   H         1 RES1   0.0000
   326 H190     -0.7611   -3.9168    2.4889   H         1 RES1   0.0000
   327 H191     -0.8834   -2.7732    1.1177   H         1 RES1   0.0000
   328 H192      1.4736   -1.2349    4.8545   H         1 RES1   0.0000
   329 H193      2.3257   -2.1381    3.6073   H         1 RES1   0.0000
   330 H194      1.1174   -4.2051    4.2569   H         1 RES1   0.0000
   331 H195      0.1359   -3.3186    5.4089   H         1 RES1   0.0000
   332 H196      2.0750   -2.8360    6.7922   H         1 RES1   0.0000
   333 H197      3.1633   -3.5490    5.5993   H         1 RES1   0.0000
   334 H198      0.8973   -5.1502    6.8418   H         1 RES1   0.0000
   335 H199      2.4655   -5.0195    7.6300   H         1 RES1   0.0000
   336 H200      3.6062   -6.0755    5.8240   H         1 RES1   0.0000
   337 H201      2.2144   -5.9808    4.7586   H         1 RES1   0.0000
   338 H202      2.2541   -7.6341    7.3140   H         1 RES1   0.0000
   339 H203      2.6777   -8.2591    5.7250   H         1 RES1   0.0000
   340 H204      0.3796   -7.5479    4.9093   H         1 RES1   0.0000
   341 H205     -0.0372   -7.1845    6.5860   H         1 RES1   0.0000
   342 H206      0.7965   -9.9109    5.4951   H         1 RES1   0.0000
   343 H207     -0.8195   -9.4317    6.0182   H         1 RES1   0.0000
   344 H208      0.4829   -9.5706    7.1970   H         1 RES1   0.0000
   345 H209     -1.8623   -2.6919    4.0293   H         1 RES1   0.0000
   346 H210     -2.2329   -1.0631    3.4642   H         1 RES1   0.0000
   347 H211     -0.3992   -1.1735    5.8342   H         1 RES1   0.0000
   348 H212     -1.9702   -1.8962    6.1154   H         1 RES1   0.0000
   349 H213     -3.0777    0.1949    5.4748   H         1 RES1   0.0000
   350 H214     -1.5132    0.9417    5.1527   H         1 RES1   0.0000
   351 H215     -1.3025    1.4301    7.3939   H         1 RES1   0.0000
   352 H216     -1.3280   -0.2818    7.7358   H         1 RES1   0.0000
   353 H217     -3.0758    0.2932    9.0199   H         1 RES1   0.0000
   354 H218     -3.9866    0.0493    7.5464   H         1 RES1   0.0000
   355 H219     -2.8916    2.8034    8.1901   H         1 RES1   0.0000
   356 H220     -4.2731    2.2113    9.0833   H         1 RES1   0.0000
   357 H221     -5.5238    1.8611    6.9730   H         1 RES1   0.0000
   358 H222     -4.1714    2.5455    6.0613   H         1 RES1   0.0000
   359 H223     -5.7590    3.9620    8.2557   H         1 RES1   0.0000
   360 H224     -5.9085    4.2821    6.5297   H         1 RES1   0.0000
   361 H225     -4.4124    4.6785    7.3822   H         1 RES1   0.0000
@<TRIPOS>BOND
     1     1    11    1
     2     1    28    1
     3     1    46    1
     4     1   131    1
     5     1   148    1
     6     1   166    1
     7     1   251    1
     8     1   268    1
     9     1   286    1
    10     2     3    1
    11     2    47    1
    12     2    48    1
    13     2    49    1
    14     3     4    1
    15     3    50    1
    16     3    51    1
    17     4     5    1
    18     4    52    1
    19     4    53    1
    20     5     6    1
    21     5    54    1
    22     5    55    1
    23     6     7    1
    24     6    56    1
    25     6    57    1
    26     7     8    1
    27     7    58    1
    28     7    59    1
    29     8     9    1
    30     8    60    1
    31     8    61    1
    32     9    10    1
    33     9    62    1
    34     9    63    1
    35    10    11    2
    36    10    12    1
    37    10    20    1
    38    12    13    1
    39    12    64    1
    40    12    65    1
    41    13    14    1
    42    13    66    1
    43    13    67    1
    44    14    15    1
    45    14    68    1
    46    14    69    1
    47    15    16    1
    48    15    70    1
    49    15    71    1
    50    16    17    1
    51    16    72    1
    52    16    73    1
    53    17    18    1
    54    17    74    1
    55    17    75    1
    56    18    19    1
    57    18    76    1
    58    18    77    1
    59    19    78    1
    60    19    79    1
    61    19    80    1
    62    20    21    1
    63    20    81    1
    64    20    82    1
    65    21    22    1
    66    21    45    2
    67    22    23    2
    68    22    83    1
    69    23    24    1
    70    23    84    1
    71    24    25    2
    72    24    85    1
    73    25    26    1
    74    25    45    1
    75    26    27    1
    76    26    86    1
    77    26    87    1
    78    27    28    2
    79    27    29    1
    80    27    37    1
    81    29    30    1
    82    29    88    1
    83    29    89    1
    84    30    31    1
    85    30    90    1
    86    30    91    1
    87    31    32    1
    88    31    92    1
    89    31    93    1
    90    32    33    1
    91    32    94    1
    92    32    95    1
    93    33    34    1
    94    33    96    1
    95    33    97    1
    96    34    35    1
    97    34    98    1
    98    34    99    1
    99    35    36    1
   100    35   100    1
   101    35   101    1
   102    36   102    1
   103    36   103    1
   104    36   104    1
   105    37    38    1
   106    37   105    1
   107    37   106    1
   108    38    39    1
   109    38   107    1
   110    38   108    1
   111    39    40    1
   112    39   109    1
   113    39   110    1
   114    40    41    1
   115    40   111    1
   116    40   112    1
   117    41    42    1
   118    41   113    1
   119    41   114    1
   120    42    43    1
   121    42   115    1
   122    42   116    1
   123    43    44    1
   124    43   117    1
   125    43   118    1
   126    44   119    1
   127    44   120    1
   128    44   121    1
   129    45    46    1
   130   122   123    1
   131   122   167    1
   132   122   168    1
   133   122   169    1
   134   123   124    1
   135   123   170    1
   136   123   171    1
   137   124   125    1
   138   124   172    1
   139   124   173    1
   140   125   126    1
   141   125   174    1
   142   125   175    1
   143   126   127    1
   144   126   176    1
   145   126   177    1
   146   127   128    1
   147   127   178    1
   148   127   179    1
   149   128   129    1
   150   128   180    1
   151   128   181    1
   152   129   130    1
   153   129   182    1
   154   129   183    1
   155   130   131    2
   156   130   132    1
   157   130   140    1
   158   132   133    1
   159   132   184    1
   160   132   185    1
   161   133   134    1
   162   133   186    1
   163   133   187    1
   164   134   135    1
   165   134   188    1
   166   134   189    1
   167   135   136    1
   168   135   190    1
   169   135   191    1
   170   136   137    1
   171   136   192    1
   172   136   193    1
   173   137   138    1
   174   137   194    1
   175   137   195    1
   176   138   139    1
   177   138   196    1
   178   138   197    1
   179   139   198    1
   180   139   199    1
   181   139   200    1
   182   140   141    1
   183   140   201    1
   184   140   202    1
   185   141   142    1
   186   141   165    2
   187   142   143    2
   188   142   203    1
   189   143   144    1
   190   143   204    1
   191   144   145    2
   192   144   205    1
   193   145   146    1
   194   145   165    1
   195   146   147    1
   196   146   206    1
   197   146   207    1
   198   147   148    2
   199   147   149    1
   200   147   157    1
   201   149   150    1
   202   149   208    1
   203   149   209    1
   204   150   151    1
   205   150   210    1
   206   150   211    1
   207   151   152    1
   208   151   212    1
   209   151   213    1
   210   152   153    1
   211   152   214    1
   212   152   215    1
   213   153   154    1
   214   153   216    1
   215   153   217    1
   216   154   155    1
   217   154   218    1
   218   154   219    1
   219   155   156    1
   220   155   220    1
   221   155   221    1
   222   156   222    1
   223   156   223    1
   224   156   224    1
   225   157   158    1
   226   157   225    1
   227   157   226    1
   228   158   159    1
   229   158   227    1
   230   158   228    1
   231   159   160    1
   232   159   229    1
   233   159   230    1
   234   160   161    1
   235   160   231    1
   236   160   232    1
   237   161   162    1
   238   161   233    1
   239   161   234    1
   240   162   163    1
   241   162   235    1
   242   162   236    1
   243   163   164    1
   244   163   237    1
   245   163   238    1
   246   164   239    1
   247   164   240    1
   248   164   241    1
   249   165   166    1
   250   242   243    1
   251   242   287    1
   252   242   288    1
   253   242   289    1
   254   243   244    1
   255   243   290    1
   256   243   291    1
   257   244   245    1
   258   244   292    1
   259   244   293    1
   260   245   246    1
   261   245   294    1
   262   245   295    1
   263   246   247    1
   264   246   296    1
   265   246   297    1
   266   247   248    1
   267   247   298    1
   268   247   299    1
   269   248   249    1
   270   248   300    1
   271   248   301    1
   272   249   250    1
   273   249   302    1
   274   249   303    1
   275   250   251    2
   276   250   252    1
   277   250   260    1
   278   252   253    1
   279   252   304    1
   280   252   305    1
   281   253   254    1
   282   253   306    1
   283   253   307    1
   284   254   255    1
   285   254   308    1
   286   254   309    1
   287   255   256    1
   288   255   310    1
   289   255   311    1
   290   256   257    1
   291   256   312    1
   292   256   313    1
   293   257   258    1
   294   257   314    1
   295   257   315    1
   296   258   259    1
   297   258   316    1
   298   258   317    1
   299   259   318    1
   300   259   319    1
   301   259   320    1
   302   260   261    1
   303   260   321    1
   304   260   322    1
   305   261   262    1
   306   261   285    2
   307   262   263    2
   308   262   323    1
   309   263   264    1
   310   263   324    1
   311   264   265    2
   312   264   325    1
   313   265   266    1
   314   265   285    1
   315   266   267    1
   316   266   326    1
   317   266   327    1
   318   267   268    2
   319   267   269    1
   320   267   277    1
   321   269   270    1
   322   269   328    1
   323   269   329    1
   324   270   271    1
   325   270   330    1
   326   270   331    1
   327   271   272    1
   328   271   332    1
   329   271   333    1
   330   272   273    1
   331   272   334    1
   332   272   335    1
   333   273   274    1
   334   273   336    1
   335   273   337    1
   336   274   275    1
   337   274   338    1
   338   274   339    1
   339   275   276    1
   340   275   340    1
   341   275   341    1
   342   276   342    1
   343   276   343    1
   344   276   344    1
   345   277   278    1
   346   277   345    1
   347   277   346    1
   348   278   279    1
   349   278   347    1
   350   278   348    1
   351   279   280    1
   352   279   349    1
   353   279   350    1
   354   280   281    1
   355   280   351    1
   356   280   352    1
   357   281   282    1
   358   281   353    1
   359   281   354    1
   360   282   283    1
   361   282   355    1
   362   282   356    1
   363   283   284    1
   364   283   357    1
   365   283   358    1
   366   284   359    1
   367   284   360    1
   368   284   361    1
   369   285   286    1
@<TRIPOS>SUBSTRUCTURE
     1 RES1      361 GROUP             0 ****  ****    0  
