@<TRIPOS>MOLECULE
am_c3_9H2O_c0_0_nunpairedes_0_charge_3 Charge: 3 Unpaired_Electrons: 6 XTB_Unpaired_Electrons: 0 XTB_Charge: 3
   340   348     1     0     0
SMALL
NoCharges
****
Generated from Architector

@<TRIPOS>ATOM
     1 Eu1       0.0341    0.1157    0.0551   Eu        1 RES1   0.0000
     2 C1        0.3756   -7.6055    1.5176   C.3       1 RES1   0.0000
     3 C2       -0.4232   -8.1507    0.3415   C.3       1 RES1   0.0000
     4 C3       -1.8052   -7.5188    0.1478   C.3       1 RES1   0.0000
     5 C4       -2.8647   -7.8377    1.2138   C.3       1 RES1   0.0000
     6 C5       -2.8930   -6.9510    2.4641   C.3       1 RES1   0.0000
     7 C6       -3.2085   -5.4843    2.1554   C.3       1 RES1   0.0000
     8 C7       -3.6829   -4.7068    3.3850   C.3       1 RES1   0.0000
     9 C8       -3.6541   -3.1887    3.1784   C.3       1 RES1   0.0000
    10 N1       -2.3131   -2.6728    2.9300   N.am      1 RES1   0.0000
    11 C9       -1.2483   -3.0711    3.8551   C.3       1 RES1   0.0000
    12 C10      -1.5924   -2.6592    5.2896   C.3       1 RES1   0.0000
    13 C11      -0.4782   -2.9220    6.3035   C.3       1 RES1   0.0000
    14 C12       0.6389   -1.8881    6.2192   C.3       1 RES1   0.0000
    15 C13       1.6757   -2.0559    7.3305   C.3       1 RES1   0.0000
    16 C14       2.7318   -0.9356    7.3900   C.3       1 RES1   0.0000
    17 C15       4.1066   -1.3617    6.8671   C.3       1 RES1   0.0000
    18 C16       5.1891   -0.3179    7.1236   C.3       1 RES1   0.0000
    19 C17      -2.0427   -1.8337    1.9542   C.2       1 RES1   0.0000
    20 O1       -0.8645   -1.4702    1.6650   O.2       1 RES1   0.0000
    21 C18      -3.0618   -1.1760    1.0811   C.ar      1 RES1   0.0000
    22 C19      -3.8701   -1.5510    0.0407   C.ar      1 RES1   0.0000
    23 C20      -4.0346   -0.5484   -0.9455   C.ar      1 RES1   0.0000
    24 C21      -3.3347    0.6024   -0.6810   C.ar      1 RES1   0.0000
    25 C22      -2.5492    1.6157   -1.4340   C.2       1 RES1   0.0000
    26 O2       -1.3482    1.7149   -1.0338   O.2       1 RES1   0.0000
    27 N2       -3.0135    2.3469   -2.4279   N.am      1 RES1   0.0000
    28 C23      -4.3938    2.2368   -2.8681   C.3       1 RES1   0.0000
    29 C24      -5.3663    2.8737   -1.8777   C.3       1 RES1   0.0000
    30 C25      -6.7583    2.2534   -1.9656   C.3       1 RES1   0.0000
    31 C26      -7.4293    2.3720   -3.3429   C.3       1 RES1   0.0000
    32 C27      -7.3856    1.0881   -4.1773   C.3       1 RES1   0.0000
    33 C28      -8.4600    1.0646   -5.2678   C.3       1 RES1   0.0000
    34 C29      -8.1799    1.9881   -6.4534   C.3       1 RES1   0.0000
    35 C30      -7.2093    1.3727   -7.4525   C.3       1 RES1   0.0000
    36 C31      -2.0941    3.2445   -3.1289   C.3       1 RES1   0.0000
    37 C32      -2.4526    4.7339   -3.0351   C.3       1 RES1   0.0000
    38 C33      -1.2448    5.6625   -3.2596   C.3       1 RES1   0.0000
    39 C34      -0.4095    5.3696   -4.5116   C.3       1 RES1   0.0000
    40 C35       0.8520    6.2361   -4.6263   C.3       1 RES1   0.0000
    41 C36       1.9753    5.8271   -3.6703   C.3       1 RES1   0.0000
    42 C37       3.3153    6.4979   -3.9798   C.3       1 RES1   0.0000
    43 C38       4.2862    6.3699   -2.8092   C.3       1 RES1   0.0000
    44 S1       -2.6578    0.5049    0.9162   S.2       1 RES1   0.0000
    45 H1       -0.0306   -7.9538    2.4620   H         1 RES1   0.0000
    46 H2        0.3774   -6.5168    1.5111   H         1 RES1   0.0000
    47 H3        1.4055   -7.9469    1.4527   H         1 RES1   0.0000
    48 H4       -0.5337   -9.2299    0.4500   H         1 RES1   0.0000
    49 H5        0.1443   -7.9743   -0.5772   H         1 RES1   0.0000
    50 H6       -2.1883   -7.8927   -0.8062   H         1 RES1   0.0000
    51 H7       -1.6898   -6.4371    0.0431   H         1 RES1   0.0000
    52 H8       -2.7367   -8.8728    1.5321   H         1 RES1   0.0000
    53 H9       -3.8499   -7.7644    0.7417   H         1 RES1   0.0000
    54 H10      -1.9454   -7.0275    2.9981   H         1 RES1   0.0000
    55 H11      -3.6694   -7.3427    3.1237   H         1 RES1   0.0000
    56 H12      -3.9762   -5.4359    1.3815   H         1 RES1   0.0000
    57 H13      -2.3090   -4.9992    1.7758   H         1 RES1   0.0000
    58 H14      -3.0699   -4.9730    4.2466   H         1 RES1   0.0000
    59 H15      -4.7105   -4.9860    3.6238   H         1 RES1   0.0000
    60 H16      -4.0569   -2.6974    4.0667   H         1 RES1   0.0000
    61 H17      -4.2784   -2.9241    2.3257   H         1 RES1   0.0000
    62 H18      -0.3341   -2.5697    3.5307   H         1 RES1   0.0000
    63 H19      -1.1012   -4.1510    3.8054   H         1 RES1   0.0000
    64 H20      -2.4798   -3.2027    5.6161   H         1 RES1   0.0000
    65 H21      -1.8226   -1.5946    5.2902   H         1 RES1   0.0000
    66 H22      -0.0823   -3.9282    6.1678   H         1 RES1   0.0000
    67 H23      -0.9179   -2.8766    7.2985   H         1 RES1   0.0000
    68 H24       0.1970   -0.8915    6.2982   H         1 RES1   0.0000
    69 H25       1.1138   -1.9756    5.2424   H         1 RES1   0.0000
    70 H26       2.1825   -3.0128    7.2057   H         1 RES1   0.0000
    71 H27       1.1491   -2.0964    8.2860   H         1 RES1   0.0000
    72 H28       2.8582   -0.6235    8.4277   H         1 RES1   0.0000
    73 H29       2.3814   -0.0547    6.8412   H         1 RES1   0.0000
    74 H30       4.0617   -1.5659    5.7928   H         1 RES1   0.0000
    75 H31       4.3966   -2.2855    7.3715   H         1 RES1   0.0000
    76 H32       4.9268    0.6403    6.6812   H         1 RES1   0.0000
    77 H33       6.1371   -0.6460    6.7010   H         1 RES1   0.0000
    78 H34       5.3279   -0.1726    8.1908   H         1 RES1   0.0000
    79 H35      -4.2729   -2.5424   -0.0809   H         1 RES1   0.0000
    80 H36      -4.5887   -0.7479   -1.8481   H         1 RES1   0.0000
    81 H37      -4.6384    1.1814   -2.9949   H         1 RES1   0.0000
    82 H38      -4.4816    2.7274   -3.8326   H         1 RES1   0.0000
    83 H39      -5.4261    3.9512   -2.0521   H         1 RES1   0.0000
    84 H40      -4.9755    2.7179   -0.8710   H         1 RES1   0.0000
    85 H41      -7.3814    2.7537   -1.2266   H         1 RES1   0.0000
    86 H42      -6.6971    1.2023   -1.6676   H         1 RES1   0.0000
    87 H43      -6.9876    3.2030   -3.8959   H         1 RES1   0.0000
    88 H44      -8.4789    2.6213   -3.1855   H         1 RES1   0.0000
    89 H45      -7.5663    0.2452   -3.5044   H         1 RES1   0.0000
    90 H46      -6.4025    0.9440   -4.6322   H         1 RES1   0.0000
    91 H47      -9.4136    1.3383   -4.8136   H         1 RES1   0.0000
    92 H48      -8.5558    0.0411   -5.6339   H         1 RES1   0.0000
    93 H49      -7.7962    2.9460   -6.0996   H         1 RES1   0.0000
    94 H50      -9.1210    2.1844   -6.9662   H         1 RES1   0.0000
    95 H51      -6.2771    1.0882   -6.9691   H         1 RES1   0.0000
    96 H52      -6.9863    2.0780   -8.2486   H         1 RES1   0.0000
    97 H53      -7.6433    0.4848   -7.9047   H         1 RES1   0.0000
    98 H54      -2.0600    2.9445   -4.1793   H         1 RES1   0.0000
    99 H55      -1.1164    3.0687   -2.6804   H         1 RES1   0.0000
   100 H56      -2.8764    4.9541   -2.0493   H         1 RES1   0.0000
   101 H57      -3.2167    4.9709   -3.7772   H         1 RES1   0.0000
   102 H58      -0.6019    5.6371   -2.3816   H         1 RES1   0.0000
   103 H59      -1.6323    6.6806   -3.3311   H         1 RES1   0.0000
   104 H60      -1.0278    5.5556   -5.3919   H         1 RES1   0.0000
   105 H61      -0.1086    4.3148   -4.5414   H         1 RES1   0.0000
   106 H62       0.5966    7.2839   -4.4619   H         1 RES1   0.0000
   107 H63       1.2221    6.1473   -5.6478   H         1 RES1   0.0000
   108 H64       2.1155    4.7416   -3.7343   H         1 RES1   0.0000
   109 H65       1.6982    6.0848   -2.6446   H         1 RES1   0.0000
   110 H66       3.1528    7.5573   -4.1825   H         1 RES1   0.0000
   111 H67       3.7532    6.0509   -4.8749   H         1 RES1   0.0000
   112 H68       3.9391    6.9653   -1.9669   H         1 RES1   0.0000
   113 H69       5.2711    6.7262   -3.1001   H         1 RES1   0.0000
   114 H70       4.3805    5.3369   -2.4707   H         1 RES1   0.0000
   115 C39      -7.5202   -2.3693   -0.7376   C.3       1 RES1   0.0000
   116 C40      -7.6817   -3.5948    0.1555   C.3       1 RES1   0.0000
   117 C41      -6.4365   -4.4772    0.3079   C.3       1 RES1   0.0000
   118 C42      -6.2023   -5.5136   -0.7988   C.3       1 RES1   0.0000
   119 C43      -5.4680   -5.0461   -2.0598   C.3       1 RES1   0.0000
   120 C44      -3.9451   -4.9589   -1.9037   C.3       1 RES1   0.0000
   121 C45      -3.2469   -4.9649   -3.2655   C.3       1 RES1   0.0000
   122 C46      -1.8303   -4.3719   -3.2298   C.3       1 RES1   0.0000
   123 N3       -1.8346   -2.9490   -2.9332   N.am      1 RES1   0.0000
   124 C47      -2.5405   -2.0867   -3.8841   C.3       1 RES1   0.0000
   125 C48      -1.5675   -1.0975   -4.5252   C.3       1 RES1   0.0000
   126 C49      -1.9603   -0.6355   -5.9306   C.3       1 RES1   0.0000
   127 C50      -2.9525    0.5308   -6.0070   C.3       1 RES1   0.0000
   128 C51      -2.4706    1.5485   -7.0493   C.3       1 RES1   0.0000
   129 C52      -3.5276    2.5493   -7.5081   C.3       1 RES1   0.0000
   130 C53      -4.0351    3.4631   -6.3955   C.3       1 RES1   0.0000
   131 C54      -4.7493    4.6955   -6.9376   C.3       1 RES1   0.0000
   132 C55      -1.1489   -2.4158   -1.9474   C.2       1 RES1   0.0000
   133 O3       -1.2225   -1.1992   -1.6266   O.2       1 RES1   0.0000
   134 C56      -0.1759   -3.1533   -1.0876   C.ar      1 RES1   0.0000
   135 C57      -0.3567   -3.9053    0.0416   C.ar      1 RES1   0.0000
   136 C58       0.6662   -3.7403    0.9945   C.ar      1 RES1   0.0000
   137 C59       1.6179   -2.8231    0.6161   C.ar      1 RES1   0.0000
   138 C60       2.1684   -1.7085    1.4108   C.2       1 RES1   0.0000
   139 O4        1.9814   -0.5765    0.8765   O.2       1 RES1   0.0000
   140 N4        2.5845   -1.7829    2.6625   N.am      1 RES1   0.0000
   141 C61       3.0912   -3.0073    3.2546   C.3       1 RES1   0.0000
   142 C62       4.5334   -3.3018    2.8336   C.3       1 RES1   0.0000
   143 C63       4.9617   -4.7009    3.2815   C.3       1 RES1   0.0000
   144 C64       5.2102   -4.8693    4.7909   C.3       1 RES1   0.0000
   145 C65       4.1002   -5.5878    5.5673   C.3       1 RES1   0.0000
   146 C66       4.6150   -6.2162    6.8694   C.3       1 RES1   0.0000
   147 C67       4.8021   -5.2229    8.0197   C.3       1 RES1   0.0000
   148 C68       3.5244   -5.0261    8.8291   C.3       1 RES1   0.0000
   149 C69       2.4661   -0.5482    3.4442   C.3       1 RES1   0.0000
   150 C70       3.4967    0.5500    3.1589   C.3       1 RES1   0.0000
   151 C71       2.9578    1.9425    3.5068   C.3       1 RES1   0.0000
   152 C72       2.9184    2.2744    4.9956   C.3       1 RES1   0.0000
   153 C73       2.7177    3.7687    5.2594   C.3       1 RES1   0.0000
   154 C74       1.3041    4.2457    4.9357   C.3       1 RES1   0.0000
   155 C75       1.0424    5.6944    5.3522   C.3       1 RES1   0.0000
   156 C76       1.7396    6.7164    4.4627   C.3       1 RES1   0.0000
   157 S2        1.3539   -2.3299   -1.0332   S.2       1 RES1   0.0000
   158 H71      -8.4376   -1.7857   -0.7117   H         1 RES1   0.0000
   159 H72      -7.3314   -2.6438   -1.7721   H         1 RES1   0.0000
   160 H73      -6.7088   -1.7338   -0.3816   H         1 RES1   0.0000
   161 H74      -8.5064   -4.2038   -0.2159   H         1 RES1   0.0000
   162 H75      -7.9628   -3.2435    1.1518   H         1 RES1   0.0000
   163 H76      -6.5576   -5.0335    1.2406   H         1 RES1   0.0000
   164 H77      -5.5550   -3.8424    0.4311   H         1 RES1   0.0000
   165 H78      -7.1726   -5.9141   -1.0949   H         1 RES1   0.0000
   166 H79      -5.6328   -6.3448   -0.3735   H         1 RES1   0.0000
   167 H80      -5.8682   -4.0886   -2.3964   H         1 RES1   0.0000
   168 H81      -5.6776   -5.7756   -2.8426   H         1 RES1   0.0000
   169 H82      -3.5907   -5.8064   -1.3133   H         1 RES1   0.0000
   170 H83      -3.6689   -4.0402   -1.3768   H         1 RES1   0.0000
   171 H84      -3.8630   -4.4099   -3.9729   H         1 RES1   0.0000
   172 H85      -3.1675   -5.9854   -3.6411   H         1 RES1   0.0000
   173 H86      -1.3605   -4.5185   -4.2058   H         1 RES1   0.0000
   174 H87      -1.2338   -4.8688   -2.4643   H         1 RES1   0.0000
   175 H88      -3.3662   -1.5726   -3.3893   H         1 RES1   0.0000
   176 H89      -2.9474   -2.7313   -4.6600   H         1 RES1   0.0000
   177 H90      -0.6112   -1.6165   -4.6148   H         1 RES1   0.0000
   178 H91      -1.4179   -0.2391   -3.8659   H         1 RES1   0.0000
   179 H92      -2.3401   -1.4879   -6.4947   H         1 RES1   0.0000
   180 H93      -1.0388   -0.3188   -6.4215   H         1 RES1   0.0000
   181 H94      -3.0351    1.0139   -5.0311   H         1 RES1   0.0000
   182 H95      -3.9462    0.1717   -6.2830   H         1 RES1   0.0000
   183 H96      -2.1268    1.0012   -7.9303   H         1 RES1   0.0000
   184 H97      -1.6056    2.0831   -6.6410   H         1 RES1   0.0000
   185 H98      -4.3663    2.0041   -7.9410   H         1 RES1   0.0000
   186 H99      -3.0912    3.1583   -8.3008   H         1 RES1   0.0000
   187 H100     -3.1889    3.7881   -5.7828   H         1 RES1   0.0000
   188 H101     -4.7322    2.9037   -5.7667   H         1 RES1   0.0000
   189 H102     -4.0645    5.3069   -7.5208   H         1 RES1   0.0000
   190 H103     -5.1413    5.3041   -6.1231   H         1 RES1   0.0000
   191 H104     -5.5766    4.4013   -7.5784   H         1 RES1   0.0000
   192 H105     -1.2538   -4.4673    0.2313   H         1 RES1   0.0000
   193 H106      0.6209   -4.1823    1.9724   H         1 RES1   0.0000
   194 H107      2.4626   -3.8452    2.9520   H         1 RES1   0.0000
   195 H108      3.0434   -2.9160    4.3380   H         1 RES1   0.0000
   196 H109      5.2029   -2.5480    3.2502   H         1 RES1   0.0000
   197 H110      4.5987   -3.2385    1.7421   H         1 RES1   0.0000
   198 H111      5.8863   -4.9330    2.7542   H         1 RES1   0.0000
   199 H112      4.2160   -5.4240    2.9425   H         1 RES1   0.0000
   200 H113      5.4190   -3.8970    5.2390   H         1 RES1   0.0000
   201 H114      6.1120   -5.4716    4.9057   H         1 RES1   0.0000
   202 H115      3.7087   -6.3892    4.9367   H         1 RES1   0.0000
   203 H116      3.2696   -4.9153    5.7969   H         1 RES1   0.0000
   204 H117      5.5640   -6.7131    6.6623   H         1 RES1   0.0000
   205 H118      3.9102   -6.9865    7.1874   H         1 RES1   0.0000
   206 H119      5.1554   -4.2683    7.6254   H         1 RES1   0.0000
   207 H120      5.5744   -5.5996    8.6900   H         1 RES1   0.0000
   208 H121      2.6682   -4.8504    8.1814   H         1 RES1   0.0000
   209 H122      3.6252   -4.1842    9.5097   H         1 RES1   0.0000
   210 H123      3.3147   -5.9144    9.4181   H         1 RES1   0.0000
   211 H124      2.5106   -0.8146    4.4951   H         1 RES1   0.0000
   212 H125      1.4670   -0.1499    3.2119   H         1 RES1   0.0000
   213 H126      3.7574    0.5377    2.1001   H         1 RES1   0.0000
   214 H127      4.4034    0.3591    3.7339   H         1 RES1   0.0000
   215 H128      1.9539    2.0469    3.0875   H         1 RES1   0.0000
   216 H129      3.6012    2.6745    3.0227   H         1 RES1   0.0000
   217 H130      3.8697    1.9738    5.4380   H         1 RES1   0.0000
   218 H131      2.1184    1.7166    5.4868   H         1 RES1   0.0000
   219 H132      3.4477    4.3391    4.6841   H         1 RES1   0.0000
   220 H133      2.9110    3.9583    6.3154   H         1 RES1   0.0000
   221 H134      0.6047    3.5999    5.4707   H         1 RES1   0.0000
   222 H135      1.1167    4.1374    3.8640   H         1 RES1   0.0000
   223 H136      1.3645    5.8348    6.3849   H         1 RES1   0.0000
   224 H137     -0.0348    5.8797    5.3245   H         1 RES1   0.0000
   225 H138      2.8188    6.6554    4.5701   H         1 RES1   0.0000
   226 H139      1.4306    7.7219    4.7380   H         1 RES1   0.0000
   227 H140      1.4869    6.5569    3.4139   H         1 RES1   0.0000
   228 C77       5.6546    6.0055    2.3818   C.3       1 RES1   0.0000
   229 C78       6.1817    5.0112    1.3567   C.3       1 RES1   0.0000
   230 C79       5.5767    3.6279    1.5830   C.3       1 RES1   0.0000
   231 C80       6.0463    2.5663    0.5887   C.3       1 RES1   0.0000
   232 C81       5.5856    2.8916   -0.8279   C.3       1 RES1   0.0000
   233 C82       5.8161    1.7443   -1.8047   C.3       1 RES1   0.0000
   234 C83       5.4525    2.1467   -3.2338   C.3       1 RES1   0.0000
   235 C84       3.9575    2.4497   -3.4030   C.3       1 RES1   0.0000
   236 N5        3.1111    1.3623   -2.9511   N.am      1 RES1   0.0000
   237 C85       3.2154    0.0832   -3.6508   C.3       1 RES1   0.0000
   238 C86       1.9924   -0.1821   -4.5319   C.3       1 RES1   0.0000
   239 C87       2.2673   -1.2204   -5.6243   C.3       1 RES1   0.0000
   240 C88       2.7183   -2.5919   -5.1183   C.3       1 RES1   0.0000
   241 C89       1.6266   -3.3307   -4.3465   C.3       1 RES1   0.0000
   242 C90       2.0250   -4.7428   -3.9112   C.3       1 RES1   0.0000
   243 C91       3.1947   -4.7956   -2.9277   C.3       1 RES1   0.0000
   244 C92       3.3847   -6.2003   -2.3665   C.3       1 RES1   0.0000
   245 C93       2.2251    1.4564   -1.9862   C.2       1 RES1   0.0000
   246 O5        1.4676    0.4876   -1.6935   O.2       1 RES1   0.0000
   247 C94       1.9138    2.6420   -1.1313   C.ar      1 RES1   0.0000
   248 C95       1.0001    3.6272   -1.3849   C.ar      1 RES1   0.0000
   249 C96       0.2330    3.9976   -0.2536   C.ar      1 RES1   0.0000
   250 C97       0.5360    3.2737    0.8686   C.ar      1 RES1   0.0000
   251 C98      -0.3462    2.7183    1.9243   C.2       1 RES1   0.0000
   252 O6       -0.2905    1.4551    2.0049   O.2       1 RES1   0.0000
   253 N6       -1.1998    3.4140    2.6543   N.am      1 RES1   0.0000
   254 C99      -1.3274    4.8569    2.5810   C.3       1 RES1   0.0000
   255 C100     -2.4557    5.3383    1.6542   C.3       1 RES1   0.0000
   256 C101     -3.9012    5.2426    2.1808   C.3       1 RES1   0.0000
   257 C102     -4.6691    4.1334    1.4565   C.3       1 RES1   0.0000
   258 C103     -6.1465    3.9567    1.8292   C.3       1 RES1   0.0000
   259 C104     -6.4514    2.9776    2.9665   C.3       1 RES1   0.0000
   260 C105     -6.2838    3.5503    4.3730   C.3       1 RES1   0.0000
   261 C106     -6.8704    2.6209    5.4307   C.3       1 RES1   0.0000
   262 C107     -2.1877    2.7038    3.4671   C.3       1 RES1   0.0000
   263 C108     -1.7373    2.1009    4.7998   C.3       1 RES1   0.0000
   264 C109     -2.9358    1.3234    5.3664   C.3       1 RES1   0.0000
   265 C110     -2.8026    0.9499    6.8427   C.3       1 RES1   0.0000
   266 C111     -4.0666    0.2673    7.3781   C.3       1 RES1   0.0000
   267 C112     -4.1554   -1.1998    6.9654   C.3       1 RES1   0.0000
   268 C113     -5.3831   -1.9388    7.5010   C.3       1 RES1   0.0000
   269 C114     -6.6676   -1.5964    6.7527   C.3       1 RES1   0.0000
   270 S3        1.9385    2.2630    0.5695   S.2       1 RES1   0.0000
   271 H141      6.0864    6.9860    2.2153   H         1 RES1   0.0000
   272 H142      5.9080    5.6888    3.3893   H         1 RES1   0.0000
   273 H143      4.5725    6.0913    2.3084   H         1 RES1   0.0000
   274 H144      7.2673    4.9453    1.4289   H         1 RES1   0.0000
   275 H145      5.9300    5.3667    0.3567   H         1 RES1   0.0000
   276 H146      4.4862    3.7127    1.5075   H         1 RES1   0.0000
   277 H147      5.8272    3.2972    2.5936   H         1 RES1   0.0000
   278 H148      5.6377    1.5930    0.8824   H         1 RES1   0.0000
   279 H149      7.1338    2.4898    0.6152   H         1 RES1   0.0000
   280 H150      6.1244    3.7677   -1.1902   H         1 RES1   0.0000
   281 H151      4.5194    3.1376   -0.7886   H         1 RES1   0.0000
   282 H152      5.2323    0.8694   -1.5014   H         1 RES1   0.0000
   283 H153      6.8675    1.4561   -1.7840   H         1 RES1   0.0000
   284 H154      5.7600    1.3636   -3.9271   H         1 RES1   0.0000
   285 H155      5.9940    3.0552   -3.5061   H         1 RES1   0.0000
   286 H156      3.7433    2.6367   -4.4630   H         1 RES1   0.0000
   287 H157      3.6925    3.3335   -2.8236   H         1 RES1   0.0000
   288 H158      3.3176   -0.7090   -2.9026   H         1 RES1   0.0000
   289 H159      4.1130    0.1125   -4.2676   H         1 RES1   0.0000
   290 H160      1.7106    0.7548   -5.0185   H         1 RES1   0.0000
   291 H161      1.1582   -0.4878   -3.8980   H         1 RES1   0.0000
   292 H162      3.0385   -0.8277   -6.2888   H         1 RES1   0.0000
   293 H163      1.3575   -1.3387   -6.2164   H         1 RES1   0.0000
   294 H164      3.6040   -2.4787   -4.4938   H         1 RES1   0.0000
   295 H165      2.9999   -3.1951   -5.9824   H         1 RES1   0.0000
   296 H166      0.7446   -3.4064   -4.9907   H         1 RES1   0.0000
   297 H167      1.3522   -2.7450   -3.4628   H         1 RES1   0.0000
   298 H168      2.2765   -5.3255   -4.7979   H         1 RES1   0.0000
   299 H169      1.1586   -5.2190   -3.4424   H         1 RES1   0.0000
   300 H170      3.0089   -4.0989   -2.1022   H         1 RES1   0.0000
   301 H171      4.1136   -4.4863   -3.4283   H         1 RES1   0.0000
   302 H172      2.4939   -6.5243   -1.8314   H         1 RES1   0.0000
   303 H173      4.2263   -6.2273   -1.6796   H         1 RES1   0.0000
   304 H174      3.5800   -6.9087   -3.1666   H         1 RES1   0.0000
   305 H175      0.8056    4.0239   -2.3626   H         1 RES1   0.0000
   306 H176     -0.5842    4.6905   -0.3236   H         1 RES1   0.0000
   307 H177     -0.3804    5.2558    2.2150   H         1 RES1   0.0000
   308 H178     -1.4920    5.2330    3.5928   H         1 RES1   0.0000
   309 H179     -2.4001    4.7657    0.7220   H         1 RES1   0.0000
   310 H180     -2.2310    6.3813    1.4201   H         1 RES1   0.0000
   311 H181     -4.4116    6.1803    1.9596   H         1 RES1   0.0000
   312 H182     -3.9228    5.1251    3.2636   H         1 RES1   0.0000
   313 H183     -4.1498    3.1758    1.5592   H         1 RES1   0.0000
   314 H184     -4.6372    4.4148    0.4015   H         1 RES1   0.0000
   315 H185     -6.6605    3.5879    0.9371   H         1 RES1   0.0000
   316 H186     -6.5810    4.9289    2.0659   H         1 RES1   0.0000
   317 H187     -5.8351    2.0794    2.8534   H         1 RES1   0.0000
   318 H188     -7.4936    2.6700    2.8590   H         1 RES1   0.0000
   319 H189     -6.7942    4.5129    4.4311   H         1 RES1   0.0000
   320 H190     -5.2261    3.7233    4.5874   H         1 RES1   0.0000
   321 H191     -7.9454    2.5302    5.3012   H         1 RES1   0.0000
   322 H192     -6.6850    3.0133    6.4275   H         1 RES1   0.0000
   323 H193     -6.4363    1.6250    5.3606   H         1 RES1   0.0000
   324 H194     -2.5922    1.8856    2.8679   H         1 RES1   0.0000
   325 H195     -2.9839    3.4125    3.6761   H         1 RES1   0.0000
   326 H196     -1.4564    2.8907    5.4989   H         1 RES1   0.0000
   327 H197     -0.8779    1.4418    4.6528   H         1 RES1   0.0000
   328 H198     -3.8254    1.9480    5.2650   H         1 RES1   0.0000
   329 H199     -3.0978    0.4282    4.7586   H         1 RES1   0.0000
   330 H200     -2.6286    1.8627    7.4143   H         1 RES1   0.0000
   331 H201     -1.9409    0.2940    6.9944   H         1 RES1   0.0000
   332 H202     -4.9477    0.8118    7.0352   H         1 RES1   0.0000
   333 H203     -4.0558    0.3177    8.4659   H         1 RES1   0.0000
   334 H204     -3.2648   -1.7066    7.3418   H         1 RES1   0.0000
   335 H205     -4.1575   -1.2755    5.8742   H         1 RES1   0.0000
   336 H206     -5.5071   -1.7156    8.5619   H         1 RES1   0.0000
   337 H207     -5.2067   -3.0158    7.4100   H         1 RES1   0.0000
   338 H208     -6.9515   -0.5574    6.9073   H         1 RES1   0.0000
   339 H209     -7.4841   -2.2239    7.1053   H         1 RES1   0.0000
   340 H210     -6.5468   -1.7692    5.6812   H         1 RES1   0.0000
@<TRIPOS>BOND
     1     1    20    1
     2     1    26    1
     3     1    44    1
     4     1   133    1
     5     1   139    1
     6     1   157    1
     7     1   246    1
     8     1   252    1
     9     1   270    1
    10     2     3    1
    11     2    45    1
    12     2    46    1
    13     2    47    1
    14     3     4    1
    15     3    48    1
    16     3    49    1
    17     4     5    1
    18     4    50    1
    19     4    51    1
    20     5     6    1
    21     5    52    1
    22     5    53    1
    23     6     7    1
    24     6    54    1
    25     6    55    1
    26     7     8    1
    27     7    56    1
    28     7    57    1
    29     8     9    1
    30     8    58    1
    31     8    59    1
    32     9    10    1
    33     9    60    1
    34     9    61    1
    35    10    11    1
    36    10    19    1
    37    11    12    1
    38    11    62    1
    39    11    63    1
    40    12    13    1
    41    12    64    1
    42    12    65    1
    43    13    14    1
    44    13    66    1
    45    13    67    1
    46    14    15    1
    47    14    68    1
    48    14    69    1
    49    15    16    1
    50    15    70    1
    51    15    71    1
    52    16    17    1
    53    16    72    1
    54    16    73    1
    55    17    18    1
    56    17    74    1
    57    17    75    1
    58    18    76    1
    59    18    77    1
    60    18    78    1
    61    19    20    2
    62    19    21    1
    63    21    22    2
    64    21    44    1
    65    22    23    1
    66    22    79    1
    67    23    24    2
    68    23    80    1
    69    24    25    1
    70    24    44    1
    71    25    26    2
    72    25    27    1
    73    27    28    1
    74    27    36    1
    75    28    29    1
    76    28    81    1
    77    28    82    1
    78    29    30    1
    79    29    83    1
    80    29    84    1
    81    30    31    1
    82    30    85    1
    83    30    86    1
    84    31    32    1
    85    31    87    1
    86    31    88    1
    87    32    33    1
    88    32    89    1
    89    32    90    1
    90    33    34    1
    91    33    91    1
    92    33    92    1
    93    34    35    1
    94    34    93    1
    95    34    94    1
    96    35    95    1
    97    35    96    1
    98    35    97    1
    99    36    37    1
   100    36    98    1
   101    36    99    1
   102    37    38    1
   103    37   100    1
   104    37   101    1
   105    38    39    1
   106    38   102    1
   107    38   103    1
   108    39    40    1
   109    39   104    1
   110    39   105    1
   111    40    41    1
   112    40   106    1
   113    40   107    1
   114    41    42    1
   115    41   108    1
   116    41   109    1
   117    42    43    1
   118    42   110    1
   119    42   111    1
   120    43   112    1
   121    43   113    1
   122    43   114    1
   123   115   116    1
   124   115   158    1
   125   115   159    1
   126   115   160    1
   127   116   117    1
   128   116   161    1
   129   116   162    1
   130   117   118    1
   131   117   163    1
   132   117   164    1
   133   118   119    1
   134   118   165    1
   135   118   166    1
   136   119   120    1
   137   119   167    1
   138   119   168    1
   139   120   121    1
   140   120   169    1
   141   120   170    1
   142   121   122    1
   143   121   171    1
   144   121   172    1
   145   122   123    1
   146   122   173    1
   147   122   174    1
   148   123   124    1
   149   123   132    1
   150   124   125    1
   151   124   175    1
   152   124   176    1
   153   125   126    1
   154   125   177    1
   155   125   178    1
   156   126   127    1
   157   126   179    1
   158   126   180    1
   159   127   128    1
   160   127   181    1
   161   127   182    1
   162   128   129    1
   163   128   183    1
   164   128   184    1
   165   129   130    1
   166   129   185    1
   167   129   186    1
   168   130   131    1
   169   130   187    1
   170   130   188    1
   171   131   189    1
   172   131   190    1
   173   131   191    1
   174   132   133    2
   175   132   134    1
   176   134   135    2
   177   134   157    1
   178   135   136    1
   179   135   192    1
   180   136   137    2
   181   136   193    1
   182   137   138    1
   183   137   157    1
   184   138   139    2
   185   138   140    1
   186   140   141    1
   187   140   149    1
   188   141   142    1
   189   141   194    1
   190   141   195    1
   191   142   143    1
   192   142   196    1
   193   142   197    1
   194   143   144    1
   195   143   198    1
   196   143   199    1
   197   144   145    1
   198   144   200    1
   199   144   201    1
   200   145   146    1
   201   145   202    1
   202   145   203    1
   203   146   147    1
   204   146   204    1
   205   146   205    1
   206   147   148    1
   207   147   206    1
   208   147   207    1
   209   148   208    1
   210   148   209    1
   211   148   210    1
   212   149   150    1
   213   149   211    1
   214   149   212    1
   215   150   151    1
   216   150   213    1
   217   150   214    1
   218   151   152    1
   219   151   215    1
   220   151   216    1
   221   152   153    1
   222   152   217    1
   223   152   218    1
   224   153   154    1
   225   153   219    1
   226   153   220    1
   227   154   155    1
   228   154   221    1
   229   154   222    1
   230   155   156    1
   231   155   223    1
   232   155   224    1
   233   156   225    1
   234   156   226    1
   235   156   227    1
   236   228   229    1
   237   228   271    1
   238   228   272    1
   239   228   273    1
   240   229   230    1
   241   229   274    1
   242   229   275    1
   243   230   231    1
   244   230   276    1
   245   230   277    1
   246   231   232    1
   247   231   278    1
   248   231   279    1
   249   232   233    1
   250   232   280    1
   251   232   281    1
   252   233   234    1
   253   233   282    1
   254   233   283    1
   255   234   235    1
   256   234   284    1
   257   234   285    1
   258   235   236    1
   259   235   286    1
   260   235   287    1
   261   236   237    1
   262   236   245    1
   263   237   238    1
   264   237   288    1
   265   237   289    1
   266   238   239    1
   267   238   290    1
   268   238   291    1
   269   239   240    1
   270   239   292    1
   271   239   293    1
   272   240   241    1
   273   240   294    1
   274   240   295    1
   275   241   242    1
   276   241   296    1
   277   241   297    1
   278   242   243    1
   279   242   298    1
   280   242   299    1
   281   243   244    1
   282   243   300    1
   283   243   301    1
   284   244   302    1
   285   244   303    1
   286   244   304    1
   287   245   246    2
   288   245   247    1
   289   247   248    2
   290   247   270    1
   291   248   249    1
   292   248   305    1
   293   249   250    2
   294   249   306    1
   295   250   251    1
   296   250   270    1
   297   251   252    2
   298   251   253    1
   299   253   254    1
   300   253   262    1
   301   254   255    1
   302   254   307    1
   303   254   308    1
   304   255   256    1
   305   255   309    1
   306   255   310    1
   307   256   257    1
   308   256   311    1
   309   256   312    1
   310   257   258    1
   311   257   313    1
   312   257   314    1
   313   258   259    1
   314   258   315    1
   315   258   316    1
   316   259   260    1
   317   259   317    1
   318   259   318    1
   319   260   261    1
   320   260   319    1
   321   260   320    1
   322   261   321    1
   323   261   322    1
   324   261   323    1
   325   262   263    1
   326   262   324    1
   327   262   325    1
   328   263   264    1
   329   263   326    1
   330   263   327    1
   331   264   265    1
   332   264   328    1
   333   264   329    1
   334   265   266    1
   335   265   330    1
   336   265   331    1
   337   266   267    1
   338   266   332    1
   339   266   333    1
   340   267   268    1
   341   267   334    1
   342   267   335    1
   343   268   269    1
   344   268   336    1
   345   268   337    1
   346   269   338    1
   347   269   339    1
   348   269   340    1
@<TRIPOS>SUBSTRUCTURE
     1 RES1      340 GROUP             0 ****  ****    0  
