@<TRIPOS>MOLECULE
tricapped_trigonal_prismatic_0_nunpairedes_0_charge_3 Charge: 3 Unpaired_Electrons: 6 XTB_Unpaired_Electrons: 0 XTB_Charge: 3
    92    97     1     0     0
SMALL
NoCharges
****
Generated from Architector

@<TRIPOS>ATOM
     1 Eu1       0.8507    0.9978   -0.4601   Eu        1 RES1   0.0000
     2 C1        4.1509    3.5383   -0.8652   C.3       1 RES1   0.0000
     3 C2        2.6909    3.2232   -1.1919   C.3       1 RES1   0.0000
     4 C3        2.3823    3.4049   -2.6801   C.3       1 RES1   0.0000
     5 C4        1.0131    2.8687   -3.1113   C.3       1 RES1   0.0000
     6 C5       -0.2123    3.7546   -2.7670   C.3       1 RES1   0.0000
     7 C6       -1.0203    3.4001   -1.5062   C.3       1 RES1   0.0000
     8 O1       -1.2573    1.9532   -1.5696   O.3       1 RES1   0.0000
     9 P1       -1.8326    0.7315   -0.6741   P.3       1 RES1   0.0000
    10 O2       -0.9954    0.6848    0.5668   O.2       1 RES1   0.0000
    11 O3       -3.3407    0.8396   -0.4117   O.3       1 RES1   0.0000
    12 O4       -1.3978   -0.4368   -1.6210   O.3       1 RES1   0.0000
    13 C7       -1.3642   -0.3791   -3.1013   C.3       1 RES1   0.0000
    14 C8       -2.7258   -0.6292   -3.7227   C.3       1 RES1   0.0000
    15 C9       -3.7218    0.5327   -3.6459   C.3       1 RES1   0.0000
    16 C10      -3.2803    1.8412   -4.3020   C.3       1 RES1   0.0000
    17 C11      -2.8177    1.7037   -5.7490   C.3       1 RES1   0.0000
    18 C12      -2.5085    3.0636   -6.3669   C.3       1 RES1   0.0000
    19 H1        4.3584    3.3978    0.1897   H         1 RES1   0.0000
    20 H2        4.4025    4.5646   -1.1132   H         1 RES1   0.0000
    21 H3        4.8194    2.8944   -1.4272   H         1 RES1   0.0000
    22 H4        2.0378    3.8832   -0.5983   H         1 RES1   0.0000
    23 H5        2.5388    2.1026   -0.9206   H         1 RES1   0.0000
    24 H6        3.1496    2.8958   -3.2687   H         1 RES1   0.0000
    25 H7        2.4410    4.4637   -2.9398   H         1 RES1   0.0000
    26 H8        0.9094    1.7873   -2.7458   H         1 RES1   0.0000
    27 H9        1.0314    2.8114   -4.2040   H         1 RES1   0.0000
    28 H10      -0.9037    3.7203   -3.6159   H         1 RES1   0.0000
    29 H11       0.1047    4.7949   -2.6827   H         1 RES1   0.0000
    30 H12      -1.9732    3.9397   -1.5513   H         1 RES1   0.0000
    31 H13      -0.5089    3.6393   -0.5557   H         1 RES1   0.0000
    32 H14      -3.9466    0.1495   -0.7042   H         1 RES1   0.0000
    33 H15      -0.6620   -1.1630   -3.3943   H         1 RES1   0.0000
    34 H16      -0.9702    0.5916   -3.4146   H         1 RES1   0.0000
    35 H17      -3.1613   -1.5082   -3.2485   H         1 RES1   0.0000
    36 H18      -2.5792   -0.8852   -4.7740   H         1 RES1   0.0000
    37 H19      -3.9859    0.7714   -2.6167   H         1 RES1   0.0000
    38 H20      -4.6342    0.2010   -4.1376   H         1 RES1   0.0000
    39 H21      -2.4960    2.3111   -3.7040   H         1 RES1   0.0000
    40 H22      -4.1290    2.5248   -4.2882   H         1 RES1   0.0000
    41 H23      -3.5993    1.2219   -6.3357   H         1 RES1   0.0000
    42 H24      -1.9278    1.0761   -5.8042   H         1 RES1   0.0000
    43 H25      -3.3974    3.6855   -6.3943   H         1 RES1   0.0000
    44 H26      -2.1588    2.9471   -7.3885   H         1 RES1   0.0000
    45 H27      -1.7420    3.5962   -5.8029   H         1 RES1   0.0000
    46 C13       2.6861   -4.4875    3.4181   C.3       1 RES1   0.0000
    47 C14       1.4293   -5.2605    3.0276   C.3       1 RES1   0.0000
    48 C15       0.2002   -4.9419    3.8846   C.3       1 RES1   0.0000
    49 C16      -0.2405   -3.4774    3.9285   C.3       1 RES1   0.0000
    50 C17      -1.2160   -3.0695    2.8190   C.3       1 RES1   0.0000
    51 C18      -0.6871   -3.0609    1.3840   C.3       1 RES1   0.0000
    52 O5        0.6110   -2.4030    1.3453   O.3       1 RES1   0.0000
    53 P2        1.5574   -1.5225    0.5223   P.3       1 RES1   0.0000
    54 O6        1.2044   -1.0216   -0.8524   O.2       1 RES1   0.0000
    55 O7        2.9734   -2.1448    0.5904   O.3       1 RES1   0.0000
    56 O8        1.7377   -0.1149    1.3251   O.3       1 RES1   0.0000
    57 C19       1.7776   -0.1237    2.7988   C.3       1 RES1   0.0000
    58 C20       2.8521    0.8395    3.3120   C.3       1 RES1   0.0000
    59 C21       4.0274    0.1100    3.9816   C.3       1 RES1   0.0000
    60 C22       4.9002   -0.7348    3.0487   C.3       1 RES1   0.0000
    61 C23       6.0884    0.0246    2.4603   C.3       1 RES1   0.0000
    62 C24       5.6844    1.1832    1.5551   C.3       1 RES1   0.0000
    63 H28       3.5227   -4.7789    2.7846   H         1 RES1   0.0000
    64 H29       2.9569   -4.7003    4.4494   H         1 RES1   0.0000
    65 H30       2.5418   -3.4113    3.3165   H         1 RES1   0.0000
    66 H31       1.6456   -6.3225    3.1410   H         1 RES1   0.0000
    67 H32       1.2092   -5.0940    1.9706   H         1 RES1   0.0000
    68 H33       0.4104   -5.2554    4.9051   H         1 RES1   0.0000
    69 H34      -0.6379   -5.5418    3.5300   H         1 RES1   0.0000
    70 H35       0.6260   -2.8187    3.9397   H         1 RES1   0.0000
    71 H36      -0.7678   -3.3077    4.8688   H         1 RES1   0.0000
    72 H37      -1.6007   -2.0774    3.0506   H         1 RES1   0.0000
    73 H38      -2.0538   -3.7702    2.8350   H         1 RES1   0.0000
    74 H39      -1.3828   -2.5248    0.7327   H         1 RES1   0.0000
    75 H40      -0.5411   -4.0776    1.0125   H         1 RES1   0.0000
    76 H41       3.1247   -3.0838    0.4647   H         1 RES1   0.0000
    77 H42       1.9998   -1.1392    3.1273   H         1 RES1   0.0000
    78 H43       0.7695    0.1475    3.1363   H         1 RES1   0.0000
    79 H44       2.4107    1.5031    4.0570   H         1 RES1   0.0000
    80 H45       3.2069    1.4488    2.4711   H         1 RES1   0.0000
    81 H46       3.6145   -0.5228    4.7675   H         1 RES1   0.0000
    82 H47       4.6586    0.8495    4.4720   H         1 RES1   0.0000
    83 H48       4.3017   -1.1532    2.2372   H         1 RES1   0.0000
    84 H49       5.3032   -1.5694    3.6203   H         1 RES1   0.0000
    85 H50       6.7013   -0.6773    1.8940   H         1 RES1   0.0000
    86 H51       6.7080    0.4111    3.2691   H         1 RES1   0.0000
    87 H52       4.9372    0.8600    0.8225   H         1 RES1   0.0000
    88 H53       6.5539    1.5516    1.0193   H         1 RES1   0.0000
    89 H54       5.2847    2.0105    2.1382   H         1 RES1   0.0000
    90 O9        0.8428    2.7239    1.3701   O.3       1 RES1   0.0000
    91 H55       0.0164    2.7862    1.8848   H         1 RES1   0.0000
    92 H56       1.5202    3.0969    1.9691   H         1 RES1   0.0000
@<TRIPOS>BOND
     1     1     8    1
     2     1    10    1
     3     1    11    1
     4     1    12    1
     5     1    52    1
     6     1    54    1
     7     1    55    1
     8     1    56    1
     9     1    90    1
    10     2     3    1
    11     2    19    1
    12     2    20    1
    13     2    21    1
    14     3     4    1
    15     3    22    1
    16     3    23    1
    17     4     5    1
    18     4    24    1
    19     4    25    1
    20     5     6    1
    21     5    26    1
    22     5    27    1
    23     6     7    1
    24     6    28    1
    25     6    29    1
    26     7     8    1
    27     7    30    1
    28     7    31    1
    29     8     9    1
    30     9    10    2
    31     9    11    1
    32     9    12    1
    33    11    32    1
    34    12    13    1
    35    13    14    1
    36    13    33    1
    37    13    34    1
    38    14    15    1
    39    14    35    1
    40    14    36    1
    41    15    16    1
    42    15    37    1
    43    15    38    1
    44    16    17    1
    45    16    39    1
    46    16    40    1
    47    17    18    1
    48    17    41    1
    49    17    42    1
    50    18    43    1
    51    18    44    1
    52    18    45    1
    53    46    47    1
    54    46    63    1
    55    46    64    1
    56    46    65    1
    57    47    48    1
    58    47    66    1
    59    47    67    1
    60    48    49    1
    61    48    68    1
    62    48    69    1
    63    49    50    1
    64    49    70    1
    65    49    71    1
    66    50    51    1
    67    50    72    1
    68    50    73    1
    69    51    52    1
    70    51    74    1
    71    51    75    1
    72    52    53    1
    73    53    54    2
    74    53    55    1
    75    53    56    1
    76    55    76    1
    77    56    57    1
    78    57    58    1
    79    57    77    1
    80    57    78    1
    81    58    59    1
    82    58    79    1
    83    58    80    1
    84    59    60    1
    85    59    81    1
    86    59    82    1
    87    60    61    1
    88    60    83    1
    89    60    84    1
    90    61    62    1
    91    61    85    1
    92    61    86    1
    93    62    87    1
    94    62    88    1
    95    62    89    1
    96    90    91    1
    97    90    92    1
@<TRIPOS>SUBSTRUCTURE
     1 RES1       92 GROUP             0 ****  ****    0  
