@<TRIPOS>MOLECULE
tri_tri_mer_capped_0_nunpairedes_0_charge_3 Charge: 3 Unpaired_Electrons: 6 XTB_Unpaired_Electrons: 0 XTB_Charge: 3
   192   203     1     0     0
SMALL
NoCharges
****
Generated from Architector

@<TRIPOS>ATOM
     1 Eu1      -0.0248    0.1243   -0.2228   Eu        1 RES1   0.0000
     2 C1        1.7373   -3.7950   -7.0790   C.3       1 RES1   0.0000
     3 C2        2.1343   -2.6766   -6.1222   C.3       1 RES1   0.0000
     4 C3        3.4017   -3.0212   -5.3370   C.3       1 RES1   0.0000
     5 C4        3.1999   -4.2228   -4.4099   C.3       1 RES1   0.0000
     6 C5        4.4939   -4.6513   -3.7128   C.3       1 RES1   0.0000
     7 C6        4.8530   -3.7414   -2.5432   C.3       1 RES1   0.0000
     8 C7        3.8480   -3.8836   -1.3917   C.3       1 RES1   0.0000
     9 C8        2.9320   -2.6744   -1.2234   C.3       1 RES1   0.0000
    10 O1        1.6184   -2.9104   -1.7590   O.3       1 RES1   0.0000
    11 C9        0.9341   -1.9443   -2.3549   C.ar      1 RES1   0.0000
    12 C10       1.4876   -0.7801   -2.9326   C.ar      1 RES1   0.0000
    13 C11       0.6158    0.2110   -3.3938   C.ar      1 RES1   0.0000
    14 C12       0.8345    1.6555   -3.0347   C.2       1 RES1   0.0000
    15 O2        0.9126    1.6580   -1.7556   O.2       1 RES1   0.0000
    16 N1        0.6134    2.6975   -3.8042   N.am      1 RES1   0.0000
    17 C13       0.6549    2.5423   -5.2506   C.3       1 RES1   0.0000
    18 C14       0.2361    3.9774   -3.2962   C.ar      1 RES1   0.0000
    19 C15      -0.2058    4.9841   -4.1562   C.ar      1 RES1   0.0000
    20 C16      -0.7803    6.1308   -3.6495   C.ar      1 RES1   0.0000
    21 C17      -0.9602    6.3349   -2.2795   C.ar      1 RES1   0.0000
    22 C18      -1.7572    7.5189   -1.7896   C.3       1 RES1   0.0000
    23 C19      -1.0796    8.8158   -2.2468   C.3       1 RES1   0.0000
    24 C20      -1.9171    7.5504   -0.2662   C.3       1 RES1   0.0000
    25 C21      -3.1531    7.3916   -2.4193   C.3       1 RES1   0.0000
    26 C22      -0.4128    5.3840   -1.4292   C.ar      1 RES1   0.0000
    27 C23       0.1987    4.2463   -1.9261   C.ar      1 RES1   0.0000
    28 N2       -0.7033    0.0615   -3.4416   N.ar      1 RES1   0.0000
    29 C24      -1.2543   -1.0262   -2.8904   C.ar      1 RES1   0.0000
    30 C25      -2.6091   -0.5487   -2.3867   C.2       1 RES1   0.0000
    31 O3       -2.4262   -0.0145   -1.2582   O.2       1 RES1   0.0000
    32 N3       -3.6874   -0.4687   -3.1428   N.am      1 RES1   0.0000
    33 C26      -3.6954   -1.0400   -4.4815   C.3       1 RES1   0.0000
    34 C27      -4.8655    0.2748   -2.7852   C.ar      1 RES1   0.0000
    35 C28      -6.1194   -0.0933   -3.2638   C.ar      1 RES1   0.0000
    36 C29      -7.2287    0.6914   -2.9984   C.ar      1 RES1   0.0000
    37 C30      -7.1379    1.8613   -2.2522   C.ar      1 RES1   0.0000
    38 C31      -8.3159    2.7824   -2.0007   C.3       1 RES1   0.0000
    39 C32      -9.6130    2.3128   -2.6616   C.3       1 RES1   0.0000
    40 C33      -7.9777    4.1664   -2.5791   C.3       1 RES1   0.0000
    41 C34      -8.5745    2.8960   -0.4904   C.3       1 RES1   0.0000
    42 C35      -5.8798    2.1982   -1.7558   C.ar      1 RES1   0.0000
    43 C36      -4.7630    1.4318   -2.0186   C.ar      1 RES1   0.0000
    44 C37      -0.4878   -2.0375   -2.3056   C.ar      1 RES1   0.0000
    45 H1        0.9496   -3.4678   -7.7508   H         1 RES1   0.0000
    46 H2        1.3793   -4.6651   -6.5364   H         1 RES1   0.0000
    47 H3        2.5937   -4.0916   -7.6783   H         1 RES1   0.0000
    48 H4        1.3128   -2.4721   -5.4237   H         1 RES1   0.0000
    49 H5        2.3182   -1.7665   -6.6980   H         1 RES1   0.0000
    50 H6        3.7230   -2.1448   -4.7599   H         1 RES1   0.0000
    51 H7        4.1972   -3.2578   -6.0492   H         1 RES1   0.0000
    52 H8        2.8437   -5.0613   -5.0077   H         1 RES1   0.0000
    53 H9        2.4209   -4.0015   -3.6726   H         1 RES1   0.0000
    54 H10       5.3054   -4.6426   -4.4426   H         1 RES1   0.0000
    55 H11       4.3838   -5.6724   -3.3370   H         1 RES1   0.0000
    56 H12       4.8699   -2.7052   -2.8802   H         1 RES1   0.0000
    57 H13       5.8608   -3.9670   -2.1976   H         1 RES1   0.0000
    58 H14       4.3813   -4.0175   -0.4533   H         1 RES1   0.0000
    59 H15       3.2140   -4.7576   -1.5511   H         1 RES1   0.0000
    60 H16       3.4020   -1.7945   -1.6606   H         1 RES1   0.0000
    61 H17       2.7558   -2.4670   -0.1596   H         1 RES1   0.0000
    62 H18       2.5518   -0.6031   -3.0063   H         1 RES1   0.0000
    63 H19       0.9368    1.5257   -5.5085   H         1 RES1   0.0000
    64 H20       1.3863    3.2343   -5.6725   H         1 RES1   0.0000
    65 H21      -0.3261    2.7403   -5.6808   H         1 RES1   0.0000
    66 H22      -0.1319    4.9003   -5.2264   H         1 RES1   0.0000
    67 H23      -1.1208    6.8806   -4.3443   H         1 RES1   0.0000
    68 H24      -0.0834    8.8980   -1.8166   H         1 RES1   0.0000
    69 H25      -1.6689    9.6674   -1.9204   H         1 RES1   0.0000
    70 H26      -0.9896    8.8604   -3.3283   H         1 RES1   0.0000
    71 H27      -0.9618    7.6847    0.2370   H         1 RES1   0.0000
    72 H28      -2.3987    6.6452    0.1022   H         1 RES1   0.0000
    73 H29      -2.5521    8.3907    0.0020   H         1 RES1   0.0000
    74 H30      -3.1070    7.4335   -3.5031   H         1 RES1   0.0000
    75 H31      -3.7884    8.2013   -2.0775   H         1 RES1   0.0000
    76 H32      -3.6123    6.4467   -2.1309   H         1 RES1   0.0000
    77 H33      -0.4476    5.5226   -0.3578   H         1 RES1   0.0000
    78 H34       0.6806    3.5886   -1.2262   H         1 RES1   0.0000
    79 H35      -2.7306   -1.4910   -4.7063   H         1 RES1   0.0000
    80 H36      -3.8971   -0.2480   -5.2063   H         1 RES1   0.0000
    81 H37      -4.4714   -1.8003   -4.5842   H         1 RES1   0.0000
    82 H38      -6.2737   -0.9806   -3.8556   H         1 RES1   0.0000
    83 H39      -8.1790    0.3895   -3.4006   H         1 RES1   0.0000
    84 H40      -9.5134    2.2548   -3.7422   H         1 RES1   0.0000
    85 H41     -10.3932    3.0385   -2.4459   H         1 RES1   0.0000
    86 H42      -9.9430    1.3537   -2.2715   H         1 RES1   0.0000
    87 H43      -7.7690    4.0857   -3.6444   H         1 RES1   0.0000
    88 H44      -7.1183    4.6165   -2.0882   H         1 RES1   0.0000
    89 H45      -8.8276    4.8312   -2.4472   H         1 RES1   0.0000
    90 H46      -8.7830    1.9157   -0.0656   H         1 RES1   0.0000
    91 H47      -9.4415    3.5312   -0.3240   H         1 RES1   0.0000
    92 H48      -7.7302    3.3330    0.0375   H         1 RES1   0.0000
    93 H49      -5.7673    3.0951   -1.1682   H         1 RES1   0.0000
    94 H50      -3.7982    1.7401   -1.6473   H         1 RES1   0.0000
    95 H51      -0.9384   -2.8860   -1.8012   H         1 RES1   0.0000
    96 C38       4.0339    2.1080   -4.0371   C.3       1 RES1   0.0000
    97 C39       5.1358    1.4175   -3.2417   C.3       1 RES1   0.0000
    98 C40       4.8044    1.1695   -1.7588   C.3       1 RES1   0.0000
    99 C41       5.2432    2.3043   -0.8222   C.3       1 RES1   0.0000
   100 C42       4.2306    3.4501   -0.6640   C.3       1 RES1   0.0000
   101 C43       3.5782    3.6047    0.7161   C.3       1 RES1   0.0000
   102 C44       2.4716    2.5914    1.0556   C.3       1 RES1   0.0000
   103 C45       1.5300    3.1793    2.1209   C.3       1 RES1   0.0000
   104 O4        0.2575    2.5157    2.1700   O.3       1 RES1   0.0000
   105 C46       0.2024    1.2671    2.6683   C.ar      1 RES1   0.0000
   106 C47       1.2983    0.5847    3.1894   C.ar      1 RES1   0.0000
   107 C48       1.2737   -0.8140    3.0206   C.ar      1 RES1   0.0000
   108 C49       2.4666   -1.2033    2.2032   C.2       1 RES1   0.0000
   109 O5        2.2078   -0.7849    1.0147   O.2       1 RES1   0.0000
   110 N4        3.6163   -1.6924    2.6074   N.am      1 RES1   0.0000
   111 C50       4.8050   -1.3859    1.8253   C.3       1 RES1   0.0000
   112 C51       3.7469   -2.5410    3.7464   C.ar      1 RES1   0.0000
   113 C52       2.6376   -3.2379    4.2272   C.ar      1 RES1   0.0000
   114 C53       2.7528   -4.0595    5.3292   C.ar      1 RES1   0.0000
   115 C54       3.9682   -4.2415    5.9932   C.ar      1 RES1   0.0000
   116 C55       4.0266   -5.0381    7.2812   C.3       1 RES1   0.0000
   117 C56       3.2595   -6.3637    7.1795   C.3       1 RES1   0.0000
   118 C57       5.4514   -5.3677    7.7398   C.3       1 RES1   0.0000
   119 C58       3.3659   -4.1547    8.3541   C.3       1 RES1   0.0000
   120 C59       5.0797   -3.5984    5.4544   C.ar      1 RES1   0.0000
   121 C60       4.9827   -2.7640    4.3536   C.ar      1 RES1   0.0000
   122 N5        0.1835   -1.5193    2.7934   N.ar      1 RES1   0.0000
   123 C61      -0.9538   -0.8656    2.5523   C.ar      1 RES1   0.0000
   124 C62      -1.8241   -1.7207    1.6669   C.2       1 RES1   0.0000
   125 O6       -1.3319   -1.6648    0.4972   O.2       1 RES1   0.0000
   126 N6       -2.8295   -2.4860    1.9936   N.am      1 RES1   0.0000
   127 C63      -3.3930   -2.6197    3.3221   C.3       1 RES1   0.0000
   128 C64      -3.4533   -3.2139    0.9185   C.ar      1 RES1   0.0000
   129 C65      -3.3896   -4.5957    0.8499   C.ar      1 RES1   0.0000
   130 C66      -3.8642   -5.2384   -0.2794   C.ar      1 RES1   0.0000
   131 C67      -4.3957   -4.5251   -1.3529   C.ar      1 RES1   0.0000
   132 C68      -4.5951   -5.1613   -2.7148   C.3       1 RES1   0.0000
   133 C69      -5.7958   -4.5989   -3.4826   C.3       1 RES1   0.0000
   134 C70      -3.2971   -4.8251   -3.4740   C.3       1 RES1   0.0000
   135 C71      -4.7423   -6.6817   -2.6636   C.3       1 RES1   0.0000
   136 C72      -4.5608   -3.1492   -1.1962   C.ar      1 RES1   0.0000
   137 C73      -4.0916   -2.4909   -0.0790   C.ar      1 RES1   0.0000
   138 C74      -0.9811    0.5242    2.4007   C.ar      1 RES1   0.0000
   139 H52       4.3257    2.1839   -5.0819   H         1 RES1   0.0000
   140 H53       3.8455    3.1108   -3.6631   H         1 RES1   0.0000
   141 H54       3.1045    1.5380   -3.9876   H         1 RES1   0.0000
   142 H55       6.0432    2.0185   -3.3096   H         1 RES1   0.0000
   143 H56       5.3600    0.4630   -3.7252   H         1 RES1   0.0000
   144 H57       5.3384    0.2650   -1.4574   H         1 RES1   0.0000
   145 H58       3.7286    0.9800   -1.6330   H         1 RES1   0.0000
   146 H59       6.1746    2.7125   -1.2152   H         1 RES1   0.0000
   147 H60       5.4813    1.8909    0.1594   H         1 RES1   0.0000
   148 H61       3.4382    3.3550   -1.4084   H         1 RES1   0.0000
   149 H62       4.7437    4.3930   -0.8533   H         1 RES1   0.0000
   150 H63       3.1411    4.6043    0.7430   H         1 RES1   0.0000
   151 H64       4.3341    3.5737    1.5023   H         1 RES1   0.0000
   152 H65       2.9274    1.6583    1.3976   H         1 RES1   0.0000
   153 H66       1.8764    2.3708    0.1526   H         1 RES1   0.0000
   154 H67       1.2796    4.2084    1.8533   H         1 RES1   0.0000
   155 H68       1.9998    3.1898    3.1084   H         1 RES1   0.0000
   156 H69       2.2403    1.0527    3.4301   H         1 RES1   0.0000
   157 H70       4.5169   -0.7299    1.0044   H         1 RES1   0.0000
   158 H71       5.2711   -2.2877    1.4317   H         1 RES1   0.0000
   159 H72       5.5188   -0.8611    2.4652   H         1 RES1   0.0000
   160 H73       1.6825   -3.1488    3.7360   H         1 RES1   0.0000
   161 H74       1.8783   -4.5920    5.6619   H         1 RES1   0.0000
   162 H75       3.6741   -6.9915    6.3937   H         1 RES1   0.0000
   163 H76       2.1987   -6.2139    6.9999   H         1 RES1   0.0000
   164 H77       3.3561   -6.8962    8.1224   H         1 RES1   0.0000
   165 H78       5.9889   -5.9470    6.9910   H         1 RES1   0.0000
   166 H79       5.3926   -5.9735    8.6423   H         1 RES1   0.0000
   167 H80       6.0166   -4.4727    7.9911   H         1 RES1   0.0000
   168 H81       2.3118   -3.9951    8.1390   H         1 RES1   0.0000
   169 H82       3.8602   -3.1868    8.4125   H         1 RES1   0.0000
   170 H83       3.4547   -4.6488    9.3170   H         1 RES1   0.0000
   171 H84       6.0494   -3.7576    5.8982   H         1 RES1   0.0000
   172 H85       5.8878   -2.2902    4.0104   H         1 RES1   0.0000
   173 H86      -3.2823   -1.6954    3.8880   H         1 RES1   0.0000
   174 H87      -2.9189   -3.4348    3.8737   H         1 RES1   0.0000
   175 H88      -4.4529   -2.8529    3.2185   H         1 RES1   0.0000
   176 H89      -2.9297   -5.1635    1.6455   H         1 RES1   0.0000
   177 H90      -3.7942   -6.3124   -0.3208   H         1 RES1   0.0000
   178 H91      -5.6941   -3.5380   -3.6974   H         1 RES1   0.0000
   179 H92      -6.7191   -4.7569   -2.9312   H         1 RES1   0.0000
   180 H93      -5.8772   -5.1151   -4.4362   H         1 RES1   0.0000
   181 H94      -3.1418   -3.7488   -3.5264   H         1 RES1   0.0000
   182 H95      -3.3461   -5.2243   -4.4825   H         1 RES1   0.0000
   183 H96      -2.4410   -5.2673   -2.9682   H         1 RES1   0.0000
   184 H97      -5.5734   -6.9789   -2.0314   H         1 RES1   0.0000
   185 H98      -3.8338   -7.1643   -2.3164   H         1 RES1   0.0000
   186 H99      -4.9367   -7.0485   -3.6671   H         1 RES1   0.0000
   187 H100     -5.0567   -2.5719   -1.9583   H         1 RES1   0.0000
   188 H101     -4.1778   -1.4169    0.0132   H         1 RES1   0.0000
   189 H102     -1.8858    1.0319    2.0722   H         1 RES1   0.0000
   190 O7       -1.4160    2.2748   -0.1241   O.3       1 RES1   0.0000
   191 H103     -2.3674    2.3245    0.0662   H         1 RES1   0.0000
   192 H104     -1.2153    3.0799   -0.6454   H         1 RES1   0.0000
@<TRIPOS>BOND
     1     1    10    1
     2     1    15    1
     3     1    28    1
     4     1    31    1
     5     1   104    1
     6     1   109    1
     7     1   122    1
     8     1   125    1
     9     1   190    1
    10     2     3    1
    11     2    45    1
    12     2    46    1
    13     2    47    1
    14     3     4    1
    15     3    48    1
    16     3    49    1
    17     4     5    1
    18     4    50    1
    19     4    51    1
    20     5     6    1
    21     5    52    1
    22     5    53    1
    23     6     7    1
    24     6    54    1
    25     6    55    1
    26     7     8    1
    27     7    56    1
    28     7    57    1
    29     8     9    1
    30     8    58    1
    31     8    59    1
    32     9    10    1
    33     9    60    1
    34     9    61    1
    35    10    11    1
    36    11    12    1
    37    11    44    2
    38    12    13    2
    39    12    62    1
    40    13    14    1
    41    13    28    1
    42    14    15    2
    43    14    16    1
    44    16    17    1
    45    16    18    1
    46    17    63    1
    47    17    64    1
    48    17    65    1
    49    18    19    1
    50    18    27    2
    51    19    20    2
    52    19    66    1
    53    20    21    1
    54    20    67    1
    55    21    22    1
    56    21    26    2
    57    22    23    1
    58    22    24    1
    59    22    25    1
    60    23    68    1
    61    23    69    1
    62    23    70    1
    63    24    71    1
    64    24    72    1
    65    24    73    1
    66    25    74    1
    67    25    75    1
    68    25    76    1
    69    26    27    1
    70    26    77    1
    71    27    78    1
    72    28    29    2
    73    29    30    1
    74    29    44    1
    75    30    31    2
    76    30    32    1
    77    32    33    1
    78    32    34    1
    79    33    79    1
    80    33    80    1
    81    33    81    1
    82    34    35    1
    83    34    43    2
    84    35    36    2
    85    35    82    1
    86    36    37    1
    87    36    83    1
    88    37    38    1
    89    37    42    2
    90    38    39    1
    91    38    40    1
    92    38    41    1
    93    39    84    1
    94    39    85    1
    95    39    86    1
    96    40    87    1
    97    40    88    1
    98    40    89    1
    99    41    90    1
   100    41    91    1
   101    41    92    1
   102    42    43    1
   103    42    93    1
   104    43    94    1
   105    44    95    1
   106    96    97    1
   107    96   139    1
   108    96   140    1
   109    96   141    1
   110    97    98    1
   111    97   142    1
   112    97   143    1
   113    98    99    1
   114    98   144    1
   115    98   145    1
   116    99   100    1
   117    99   146    1
   118    99   147    1
   119   100   101    1
   120   100   148    1
   121   100   149    1
   122   101   102    1
   123   101   150    1
   124   101   151    1
   125   102   103    1
   126   102   152    1
   127   102   153    1
   128   103   104    1
   129   103   154    1
   130   103   155    1
   131   104   105    1
   132   105   106    1
   133   105   138    2
   134   106   107    2
   135   106   156    1
   136   107   108    1
   137   107   122    1
   138   108   109    2
   139   108   110    1
   140   110   111    1
   141   110   112    1
   142   111   157    1
   143   111   158    1
   144   111   159    1
   145   112   113    1
   146   112   121    2
   147   113   114    2
   148   113   160    1
   149   114   115    1
   150   114   161    1
   151   115   116    1
   152   115   120    2
   153   116   117    1
   154   116   118    1
   155   116   119    1
   156   117   162    1
   157   117   163    1
   158   117   164    1
   159   118   165    1
   160   118   166    1
   161   118   167    1
   162   119   168    1
   163   119   169    1
   164   119   170    1
   165   120   121    1
   166   120   171    1
   167   121   172    1
   168   122   123    2
   169   123   124    1
   170   123   138    1
   171   124   125    2
   172   124   126    1
   173   126   127    1
   174   126   128    1
   175   127   173    1
   176   127   174    1
   177   127   175    1
   178   128   129    1
   179   128   137    2
   180   129   130    2
   181   129   176    1
   182   130   131    1
   183   130   177    1
   184   131   132    1
   185   131   136    2
   186   132   133    1
   187   132   134    1
   188   132   135    1
   189   133   178    1
   190   133   179    1
   191   133   180    1
   192   134   181    1
   193   134   182    1
   194   134   183    1
   195   135   184    1
   196   135   185    1
   197   135   186    1
   198   136   137    1
   199   136   187    1
   200   137   188    1
   201   138   189    1
   202   190   191    1
   203   190   192    1
@<TRIPOS>SUBSTRUCTURE
     1 RES1      192 GROUP             0 ****  ****    0  
