@<TRIPOS>MOLECULE
am_c3_9H2O_c0_0_nunpairedes_0_charge_3 Charge: 3 Unpaired_Electrons: 6 XTB_Unpaired_Electrons: 0 XTB_Charge: 3
   415   420     1     0     0
SMALL
NoCharges
****
Generated from Architector

@<TRIPOS>ATOM
     1 Eu1      -0.0700    0.1171    0.0368   Eu        1 RES1   0.0000
     2 C1       -1.3764    7.8627    1.1500   C.3       1 RES1   0.0000
     3 C2       -0.9757    7.1686   -0.1446   C.3       1 RES1   0.0000
     4 C3       -2.0976    6.3772   -0.8301   C.3       1 RES1   0.0000
     5 C4       -2.6814    5.1247   -0.1503   C.3       1 RES1   0.0000
     6 C5       -3.2536    4.1471   -1.1994   C.3       1 RES1   0.0000
     7 C6       -4.3304    3.1533   -0.7009   C.3       1 RES1   0.0000
     8 C7       -4.0381    1.6604   -0.9906   C.3       1 RES1   0.0000
     9 C8       -3.2775    1.0630    0.1875   C.3       1 RES1   0.0000
    10 N1       -2.8866   -0.3940    0.2736   N.4       1 RES1   0.0000
    11 C9       -3.1498   -0.7678    1.6658   C.3       1 RES1   0.0000
    12 C10      -2.3424    0.0457    2.6546   C.2       1 RES1   0.0000
    13 O1       -1.2461    0.5339    2.3174   O.2       1 RES1   0.0000
    14 N2       -2.8453    0.1304    3.8879   N.am      1 RES1   0.0000
    15 C11      -1.9571    0.4550    5.0012   C.3       1 RES1   0.0000
    16 C12      -1.6125    1.9291    5.2080   C.3       1 RES1   0.0000
    17 C13      -2.7845    2.8625    5.5114   C.3       1 RES1   0.0000
    18 C14      -3.4991    3.4041    4.2672   C.3       1 RES1   0.0000
    19 C15      -3.9300    4.8546    4.4897   C.3       1 RES1   0.0000
    20 C16      -4.6213    5.4691    3.2765   C.3       1 RES1   0.0000
    21 C17      -5.1118    6.8971    3.5210   C.3       1 RES1   0.0000
    22 C18      -3.9825    7.9089    3.6810   C.3       1 RES1   0.0000
    23 C19      -4.2577   -0.0697    4.2126   C.3       1 RES1   0.0000
    24 C20      -4.7743   -1.5161    4.2811   C.3       1 RES1   0.0000
    25 C21      -5.8334   -1.6921    5.3753   C.3       1 RES1   0.0000
    26 C22      -5.3567   -1.4514    6.8092   C.3       1 RES1   0.0000
    27 C23      -4.1667   -2.3098    7.2376   C.3       1 RES1   0.0000
    28 C24      -3.6462   -1.9176    8.6209   C.3       1 RES1   0.0000
    29 C25      -2.5586   -2.8622    9.1349   C.3       1 RES1   0.0000
    30 C26      -1.2535   -2.7650    8.3489   C.3       1 RES1   0.0000
    31 C27      -3.5585   -1.4268   -0.5451   C.3       1 RES1   0.0000
    32 C28      -2.6688   -2.7035   -0.5244   C.2       1 RES1   0.0000
    33 O2       -1.5450   -2.5852   -0.0151   O.2       1 RES1   0.0000
    34 N3       -3.0768   -3.8746   -1.0421   N.am      1 RES1   0.0000
    35 C29      -4.2952   -3.9688   -1.8740   C.3       1 RES1   0.0000
    36 C30      -4.5100   -5.1963   -2.7867   C.3       1 RES1   0.0000
    37 C31      -3.4437   -5.6379   -3.8085   C.3       1 RES1   0.0000
    38 C32      -3.2991   -4.7777   -5.0661   C.3       1 RES1   0.0000
    39 C33      -1.8685   -4.8286   -5.6113   C.3       1 RES1   0.0000
    40 C34      -1.3788   -6.2110   -6.0431   C.3       1 RES1   0.0000
    41 C35       0.0865   -6.1894   -6.4946   C.3       1 RES1   0.0000
    42 C36       1.0631   -5.9790   -5.3410   C.3       1 RES1   0.0000
    43 C37      -2.1888   -5.0576   -1.0308   C.3       1 RES1   0.0000
    44 C38      -1.6376   -5.6144    0.2850   C.3       1 RES1   0.0000
    45 C39      -1.1412   -7.0718    0.0958   C.3       1 RES1   0.0000
    46 C40       0.3709   -7.3202    0.1365   C.3       1 RES1   0.0000
    47 C41       1.1597   -6.8031   -1.0691   C.3       1 RES1   0.0000
    48 C42       2.6650   -7.0411   -0.9061   C.3       1 RES1   0.0000
    49 C43       3.4838   -6.6577   -2.1407   C.3       1 RES1   0.0000
    50 C44       3.6598   -5.1526   -2.3095   C.3       1 RES1   0.0000
    51 H1       -0.5298    8.3875    1.5903   H         1 RES1   0.0000
    52 H2       -1.7459    7.1372    1.8737   H         1 RES1   0.0000
    53 H3       -2.1528    8.6023    0.9554   H         1 RES1   0.0000
    54 H4       -0.1002    6.5364    0.0278   H         1 RES1   0.0000
    55 H5       -0.6604    7.9383   -0.8528   H         1 RES1   0.0000
    56 H6       -1.6846    6.0676   -1.7889   H         1 RES1   0.0000
    57 H7       -2.9170    7.0681   -1.0340   H         1 RES1   0.0000
    58 H8       -1.9272    4.6055    0.4451   H         1 RES1   0.0000
    59 H9       -3.4813    5.4405    0.5191   H         1 RES1   0.0000
    60 H10      -2.4280    3.5795   -1.6421   H         1 RES1   0.0000
    61 H11      -3.7043    4.7424   -1.9951   H         1 RES1   0.0000
    62 H12      -5.2742    3.4098   -1.1813   H         1 RES1   0.0000
    63 H13      -4.4943    3.2900    0.3685   H         1 RES1   0.0000
    64 H14      -3.4579    1.5823   -1.9077   H         1 RES1   0.0000
    65 H15      -4.9881    1.1443   -1.1314   H         1 RES1   0.0000
    66 H16      -3.8825    1.2898    1.0751   H         1 RES1   0.0000
    67 H17      -2.3366    1.6324    0.2766   H         1 RES1   0.0000
    68 H18      -2.8354   -1.8036    1.8244   H         1 RES1   0.0000
    69 H19      -4.2258   -0.6864    1.8732   H         1 RES1   0.0000
    70 H20      -1.0154   -0.0753    4.8247   H         1 RES1   0.0000
    71 H21      -2.4177    0.0569    5.9066   H         1 RES1   0.0000
    72 H22      -1.0683    2.2865    4.3328   H         1 RES1   0.0000
    73 H23      -0.9230    1.9467    6.0543   H         1 RES1   0.0000
    74 H24      -2.3869    3.7127    6.0680   H         1 RES1   0.0000
    75 H25      -3.4973    2.3744    6.1762   H         1 RES1   0.0000
    76 H26      -4.3766    2.8001    4.0310   H         1 RES1   0.0000
    77 H27      -2.8241    3.3530    3.4073   H         1 RES1   0.0000
    78 H28      -3.0426    5.4410    4.7383   H         1 RES1   0.0000
    79 H29      -4.6081    4.8943    5.3442   H         1 RES1   0.0000
    80 H30      -5.4761    4.8464    3.0028   H         1 RES1   0.0000
    81 H31      -3.9262    5.4736    2.4346   H         1 RES1   0.0000
    82 H32      -5.7442    6.9151    4.4093   H         1 RES1   0.0000
    83 H33      -5.7257    7.1986    2.6698   H         1 RES1   0.0000
    84 H34      -3.3332    7.6545    4.5177   H         1 RES1   0.0000
    85 H35      -4.3872    8.9044    3.8568   H         1 RES1   0.0000
    86 H36      -3.3866    7.9497    2.7729   H         1 RES1   0.0000
    87 H37      -4.8727    0.5054    3.5142   H         1 RES1   0.0000
    88 H38      -4.3978    0.3842    5.1913   H         1 RES1   0.0000
    89 H39      -3.9552   -2.2078    4.4586   H         1 RES1   0.0000
    90 H40      -5.2362   -1.8081    3.3358   H         1 RES1   0.0000
    91 H41      -6.2216   -2.7079    5.3016   H         1 RES1   0.0000
    92 H42      -6.6602   -1.0098    5.1737   H         1 RES1   0.0000
    93 H43      -6.1951   -1.6593    7.4761   H         1 RES1   0.0000
    94 H44      -5.1073   -0.3969    6.9473   H         1 RES1   0.0000
    95 H45      -3.3517   -2.1992    6.5192   H         1 RES1   0.0000
    96 H46      -4.4643   -3.3608    7.2524   H         1 RES1   0.0000
    97 H47      -4.4757   -1.9179    9.3296   H         1 RES1   0.0000
    98 H48      -3.2451   -0.9009    8.5816   H         1 RES1   0.0000
    99 H49      -2.9286   -3.8891    9.1061   H         1 RES1   0.0000
   100 H50      -2.3535   -2.6185   10.1777   H         1 RES1   0.0000
   101 H51      -1.3850   -3.1028    7.3218   H         1 RES1   0.0000
   102 H52      -0.4892   -3.3832    8.8162   H         1 RES1   0.0000
   103 H53      -0.8947   -1.7353    8.3357   H         1 RES1   0.0000
   104 H54      -3.6425   -1.0720   -1.5691   H         1 RES1   0.0000
   105 H55      -4.5746   -1.6550   -0.1896   H         1 RES1   0.0000
   106 H56      -4.3263   -3.0739   -2.4953   H         1 RES1   0.0000
   107 H57      -5.1756   -3.9459   -1.2211   H         1 RES1   0.0000
   108 H58      -5.4237   -4.9709   -3.3452   H         1 RES1   0.0000
   109 H59      -4.7527   -6.0594   -2.1672   H         1 RES1   0.0000
   110 H60      -3.7098   -6.6529   -4.1093   H         1 RES1   0.0000
   111 H61      -2.4600   -5.7021   -3.3548   H         1 RES1   0.0000
   112 H62      -4.0029   -5.1007   -5.8321   H         1 RES1   0.0000
   113 H63      -3.5264   -3.7373   -4.8313   H         1 RES1   0.0000
   114 H64      -1.1997   -4.4728   -4.8239   H         1 RES1   0.0000
   115 H65      -1.7931   -4.1486   -6.4628   H         1 RES1   0.0000
   116 H66      -1.9982   -6.5787   -6.8619   H         1 RES1   0.0000
   117 H67      -1.4640   -6.9187   -5.2150   H         1 RES1   0.0000
   118 H68       0.2290   -5.4111   -7.2481   H         1 RES1   0.0000
   119 H69       0.3136   -7.1460   -6.9676   H         1 RES1   0.0000
   120 H70       0.9501   -4.9890   -4.9009   H         1 RES1   0.0000
   121 H71       2.0877   -6.0820   -5.6887   H         1 RES1   0.0000
   122 H72       0.8909   -6.7241   -4.5676   H         1 RES1   0.0000
   123 H73      -1.3518   -4.8825   -1.7161   H         1 RES1   0.0000
   124 H74      -2.8040   -5.8617   -1.4158   H         1 RES1   0.0000
   125 H75      -2.4652   -5.6358    0.9824   H         1 RES1   0.0000
   126 H76      -0.8533   -4.9864    0.7079   H         1 RES1   0.0000
   127 H77      -1.5260   -7.4762   -0.8403   H         1 RES1   0.0000
   128 H78      -1.5742   -7.6866    0.8874   H         1 RES1   0.0000
   129 H79       0.5156   -8.4027    0.1813   H         1 RES1   0.0000
   130 H80       0.7795   -6.9063    1.0599   H         1 RES1   0.0000
   131 H81       0.9583   -5.7375   -1.2216   H         1 RES1   0.0000
   132 H82       0.8168   -7.3313   -1.9601   H         1 RES1   0.0000
   133 H83       2.8281   -8.1009   -0.6998   H         1 RES1   0.0000
   134 H84       3.0390   -6.4815   -0.0441   H         1 RES1   0.0000
   135 H85       3.0084   -7.0693   -3.0320   H         1 RES1   0.0000
   136 H86       4.4714   -7.1105   -2.0558   H         1 RES1   0.0000
   137 H87       4.2758   -4.9439   -3.1812   H         1 RES1   0.0000
   138 H88       2.6967   -4.6660   -2.4449   H         1 RES1   0.0000
   139 H89       4.1549   -4.7270   -1.4360   H         1 RES1   0.0000
   140 C45       0.0272    6.1515    8.2760   C.3       1 RES1   0.0000
   141 C46       0.9329    4.9371    8.1141   C.3       1 RES1   0.0000
   142 C47       0.9392    4.3608    6.6972   C.3       1 RES1   0.0000
   143 C48       1.7716    5.1786    5.7135   C.3       1 RES1   0.0000
   144 C49       1.7175    4.6306    4.2851   C.3       1 RES1   0.0000
   145 C50       0.4022    4.9624    3.5804   C.3       1 RES1   0.0000
   146 C51       0.3923    4.6966    2.0663   C.3       1 RES1   0.0000
   147 C52       0.2187    3.2187    1.6559   C.3       1 RES1   0.0000
   148 N4        0.9496    2.7680    0.4422   N.4       1 RES1   0.0000
   149 C53       0.7190    3.5827   -0.7783   C.3       1 RES1   0.0000
   150 C54       0.1053    2.7536   -1.9299   C.2       1 RES1   0.0000
   151 O3       -0.4896    1.6900   -1.6319   O.2       1 RES1   0.0000
   152 N5        0.2161    3.1592   -3.1989   N.am      1 RES1   0.0000
   153 C55      -0.0891    2.1528   -4.2557   C.3       1 RES1   0.0000
   154 C56      -0.1915    2.6338   -5.7152   C.3       1 RES1   0.0000
   155 C57       0.2039    1.6218   -6.8118   C.3       1 RES1   0.0000
   156 C58      -0.6855    0.4132   -7.1095   C.3       1 RES1   0.0000
   157 C59      -2.0026    0.6599   -7.8517   C.3       1 RES1   0.0000
   158 C60      -3.0458    1.5275   -7.1329   C.3       1 RES1   0.0000
   159 C61      -3.2019    2.9194   -7.7438   C.3       1 RES1   0.0000
   160 C62      -4.1683    3.7767   -6.9379   C.3       1 RES1   0.0000
   161 C63       0.6253    4.4981   -3.6149   C.3       1 RES1   0.0000
   162 C64      -0.5348    5.3091   -4.2222   C.3       1 RES1   0.0000
   163 C65      -0.0498    6.5706   -4.9551   C.3       1 RES1   0.0000
   164 C66      -0.2032    7.8575   -4.1347   C.3       1 RES1   0.0000
   165 C67      -1.4775    8.6537   -4.4298   C.3       1 RES1   0.0000
   166 C68      -2.8012    7.9025   -4.2461   C.3       1 RES1   0.0000
   167 C69      -3.9799    8.8597   -4.0138   C.3       1 RES1   0.0000
   168 C70      -4.0665    9.3257   -2.5634   C.3       1 RES1   0.0000
   169 C71       2.3738    2.6747    0.7982   C.3       1 RES1   0.0000
   170 C72       2.6992    1.3366    1.4556   C.2       1 RES1   0.0000
   171 O4        2.0618    0.3314    1.0855   O.2       1 RES1   0.0000
   172 N6        3.7324    1.2106    2.2897   N.am      1 RES1   0.0000
   173 C73       4.2499   -0.1461    2.5043   C.3       1 RES1   0.0000
   174 C74       5.0297   -0.5927    1.2613   C.3       1 RES1   0.0000
   175 C75       5.6195   -2.0108    1.2944   C.3       1 RES1   0.0000
   176 C76       7.0421   -2.0860    1.8617   C.3       1 RES1   0.0000
   177 C77       7.8797   -3.2181    1.2472   C.3       1 RES1   0.0000
   178 C78       7.9452   -4.5134    2.0542   C.3       1 RES1   0.0000
   179 C79       6.5962   -5.1866    2.2785   C.3       1 RES1   0.0000
   180 C80       6.7731   -6.5790    2.8698   C.3       1 RES1   0.0000
   181 C81       4.3299    2.2674    3.0938   C.3       1 RES1   0.0000
   182 C82       5.7055    2.7330    2.6167   C.3       1 RES1   0.0000
   183 C83       6.4865    3.4232    3.7383   C.3       1 RES1   0.0000
   184 C84       6.9172    2.5202    4.8960   C.3       1 RES1   0.0000
   185 C85       7.7605    1.2968    4.5308   C.3       1 RES1   0.0000
   186 C86       9.0996    1.6122    3.8517   C.3       1 RES1   0.0000
   187 C87       9.0565    1.5940    2.3231   C.3       1 RES1   0.0000
   188 C88      10.4568    1.5474    1.7288   C.3       1 RES1   0.0000
   189 H90       0.0918    6.5272    9.2938   H         1 RES1   0.0000
   190 H91      -1.0106    5.8888    8.0792   H         1 RES1   0.0000
   191 H92       0.3144    6.9572    7.6054   H         1 RES1   0.0000
   192 H93       0.5934    4.1615    8.8045   H         1 RES1   0.0000
   193 H94       1.9516    5.2050    8.3986   H         1 RES1   0.0000
   194 H95      -0.0895    4.2904    6.3396   H         1 RES1   0.0000
   195 H96       1.3476    3.3470    6.7337   H         1 RES1   0.0000
   196 H97       2.8106    5.1830    6.0498   H         1 RES1   0.0000
   197 H98       1.4289    6.2142    5.7104   H         1 RES1   0.0000
   198 H99       1.8617    3.5458    4.3087   H         1 RES1   0.0000
   199 H100      2.5323    5.0842    3.7139   H         1 RES1   0.0000
   200 H101      0.2030    6.0281    3.7267   H         1 RES1   0.0000
   201 H102     -0.4220    4.4242    4.0497   H         1 RES1   0.0000
   202 H103      1.2973    5.1266    1.6297   H         1 RES1   0.0000
   203 H104     -0.4525    5.2606    1.6796   H         1 RES1   0.0000
   204 H105     -0.8487    3.0114    1.5145   H         1 RES1   0.0000
   205 H106      0.5649    2.5733    2.4699   H         1 RES1   0.0000
   206 H107      1.6540    4.0302   -1.1258   H         1 RES1   0.0000
   207 H108      0.0230    4.3962   -0.5597   H         1 RES1   0.0000
   208 H109     -1.0320    1.6878   -3.9576   H         1 RES1   0.0000
   209 H110      0.6998    1.3923   -4.1782   H         1 RES1   0.0000
   210 H111      0.4890    3.4666   -5.8797   H         1 RES1   0.0000
   211 H112     -1.2004    2.9820   -5.9157   H         1 RES1   0.0000
   212 H113      1.1917    1.2337   -6.5605   H         1 RES1   0.0000
   213 H114      0.3078    2.1993   -7.7348   H         1 RES1   0.0000
   214 H115     -0.8507   -0.1368   -6.1900   H         1 RES1   0.0000
   215 H116     -0.0974   -0.2393   -7.7594   H         1 RES1   0.0000
   216 H117     -2.4406   -0.3200   -8.0564   H         1 RES1   0.0000
   217 H118     -1.7739    1.1038   -8.8207   H         1 RES1   0.0000
   218 H119     -2.7863    1.6143   -6.0771   H         1 RES1   0.0000
   219 H120     -4.0176    1.0319   -7.1777   H         1 RES1   0.0000
   220 H121     -3.5773    2.8125   -8.7607   H         1 RES1   0.0000
   221 H122     -2.2331    3.4180   -7.8079   H         1 RES1   0.0000
   222 H123     -5.1319    3.2828   -6.8417   H         1 RES1   0.0000
   223 H124     -4.3306    4.7326   -7.4261   H         1 RES1   0.0000
   224 H125     -3.7822    3.9631   -5.9375   H         1 RES1   0.0000
   225 H126      1.4370    4.4051   -4.3415   H         1 RES1   0.0000
   226 H127      1.0150    5.0431   -2.7574   H         1 RES1   0.0000
   227 H128     -1.2097    5.5922   -3.4189   H         1 RES1   0.0000
   228 H129     -1.1134    4.7040   -4.9080   H         1 RES1   0.0000
   229 H130     -0.6050    6.6878   -5.8861   H         1 RES1   0.0000
   230 H131      0.9996    6.4453   -5.2266   H         1 RES1   0.0000
   231 H132      0.6438    8.5153   -4.3422   H         1 RES1   0.0000
   232 H133     -0.1598    7.6157   -3.0711   H         1 RES1   0.0000
   233 H134     -1.4272    9.0233   -5.4552   H         1 RES1   0.0000
   234 H135     -1.4710    9.5204   -3.7685   H         1 RES1   0.0000
   235 H136     -2.7503    7.2222   -3.3952   H         1 RES1   0.0000
   236 H137     -2.9999    7.2997   -5.1356   H         1 RES1   0.0000
   237 H138     -4.9142    8.3539   -4.2782   H         1 RES1   0.0000
   238 H139     -3.8805    9.7238   -4.6744   H         1 RES1   0.0000
   239 H140     -4.3788    8.5024   -1.9142   H         1 RES1   0.0000
   240 H141     -4.7963   10.1265   -2.4644   H         1 RES1   0.0000
   241 H142     -3.1030    9.6981   -2.2121   H         1 RES1   0.0000
   242 H143      2.7091    3.5275    1.4000   H         1 RES1   0.0000
   243 H144      2.9789    2.6482   -0.1145   H         1 RES1   0.0000
   244 H145      3.4042   -0.8169    2.6786   H         1 RES1   0.0000
   245 H146      4.8819   -0.1306    3.3898   H         1 RES1   0.0000
   246 H147      5.8484    0.1101    1.0941   H         1 RES1   0.0000
   247 H148      4.3412   -0.5049    0.4150   H         1 RES1   0.0000
   248 H149      5.6645   -2.3560    0.2572   H         1 RES1   0.0000
   249 H150      4.9525   -2.6801    1.8365   H         1 RES1   0.0000
   250 H151      7.0243   -2.1883    2.9461   H         1 RES1   0.0000
   251 H152      7.5479   -1.1456    1.6337   H         1 RES1   0.0000
   252 H153      8.9037   -2.8613    1.1335   H         1 RES1   0.0000
   253 H154      7.5103   -3.4394    0.2424   H         1 RES1   0.0000
   254 H155      8.4122   -4.3118    3.0194   H         1 RES1   0.0000
   255 H156      8.5956   -5.2097    1.5204   H         1 RES1   0.0000
   256 H157      6.0679   -5.2647    1.3250   H         1 RES1   0.0000
   257 H158      5.9983   -4.5737    2.9543   H         1 RES1   0.0000
   258 H159      7.3683   -7.1965    2.2018   H         1 RES1   0.0000
   259 H160      5.8156   -7.0721    3.0232   H         1 RES1   0.0000
   260 H161      7.2892   -6.5250    3.8246   H         1 RES1   0.0000
   261 H162      4.4315    1.8660    4.1041   H         1 RES1   0.0000
   262 H163      3.6446    3.1123    3.1578   H         1 RES1   0.0000
   263 H164      5.5918    3.4374    1.7909   H         1 RES1   0.0000
   264 H165      6.2779    1.8834    2.2515   H         1 RES1   0.0000
   265 H166      5.8722    4.2262    4.1491   H         1 RES1   0.0000
   266 H167      7.3725    3.8824    3.3017   H         1 RES1   0.0000
   267 H168      6.0373    2.1801    5.4502   H         1 RES1   0.0000
   268 H169      7.5031    3.1306    5.5846   H         1 RES1   0.0000
   269 H170      7.1919    0.6028    3.9058   H         1 RES1   0.0000
   270 H171      7.9651    0.7717    5.4664   H         1 RES1   0.0000
   271 H172      9.8299    0.8676    4.1746   H         1 RES1   0.0000
   272 H173      9.4621    2.5819    4.1937   H         1 RES1   0.0000
   273 H174      8.5401    2.4761    1.9418   H         1 RES1   0.0000
   274 H175      8.5009    0.7116    1.9924   H         1 RES1   0.0000
   275 H176     11.0258    2.4194    2.0350   H         1 RES1   0.0000
   276 H177     10.4184    1.5273    0.6421   H         1 RES1   0.0000
   277 H178     10.9833    0.6594    2.0680   H         1 RES1   0.0000
   278 C89      -7.5252   -1.7836   -3.7690   C.3       1 RES1   0.0000
   279 C90      -6.2669   -1.0015   -3.3872   C.3       1 RES1   0.0000
   280 C91      -5.0990   -1.2508   -4.3537   C.3       1 RES1   0.0000
   281 C92      -3.8943   -0.3590   -4.0151   C.3       1 RES1   0.0000
   282 C93      -2.5166   -0.8427   -4.4883   C.3       1 RES1   0.0000
   283 C94      -1.7381   -1.9001   -3.6643   C.3       1 RES1   0.0000
   284 C95      -0.6584   -1.3475   -2.6982   C.3       1 RES1   0.0000
   285 C96       0.2610   -2.4619   -2.1396   C.3       1 RES1   0.0000
   286 N7        1.2572   -2.0047   -1.1323   N.4       1 RES1   0.0000
   287 C97       1.4671   -2.9741   -0.0201   C.3       1 RES1   0.0000
   288 C98       0.8661   -2.5318    1.3216   C.2       1 RES1   0.0000
   289 O5        0.2571   -1.4555    1.4040   O.2       1 RES1   0.0000
   290 N8        0.9970   -3.2798    2.4214   N.am      1 RES1   0.0000
   291 C99       0.4144   -2.7342    3.6514   C.3       1 RES1   0.0000
   292 C100     -1.1044   -2.9335    3.7425   C.3       1 RES1   0.0000
   293 C101     -1.6414   -4.1972    4.4458   C.3       1 RES1   0.0000
   294 C102     -2.3554   -5.1093    3.4440   C.3       1 RES1   0.0000
   295 C103     -3.4589   -6.0147    3.9931   C.3       1 RES1   0.0000
   296 C104     -4.1400   -6.7574    2.8366   C.3       1 RES1   0.0000
   297 C105     -5.2808   -7.6936    3.2394   C.3       1 RES1   0.0000
   298 C106     -6.5725   -6.9610    3.5818   C.3       1 RES1   0.0000
   299 C107      1.6953   -4.5401    2.5764   C.3       1 RES1   0.0000
   300 C108      3.1022   -4.3654    3.1891   C.3       1 RES1   0.0000
   301 C109      3.3315   -5.0765    4.5302   C.3       1 RES1   0.0000
   302 C110      2.7307   -4.4294    5.7814   C.3       1 RES1   0.0000
   303 C111      3.1801   -2.9858    6.0178   C.3       1 RES1   0.0000
   304 C112      2.6446   -2.4214    7.3348   C.3       1 RES1   0.0000
   305 C113      2.9980   -0.9423    7.5283   C.3       1 RES1   0.0000
   306 C114      2.1215   -0.0072    6.6975   C.3       1 RES1   0.0000
   307 C115      2.5399   -1.6832   -1.7863   C.3       1 RES1   0.0000
   308 C116      2.8378   -0.1866   -1.8432   C.2       1 RES1   0.0000
   309 O6        1.9368    0.6139   -1.5406   O.2       1 RES1   0.0000
   310 N9        4.0608    0.2000   -2.2286   N.am      1 RES1   0.0000
   311 C117      5.0974   -0.7122   -2.6992   C.3       1 RES1   0.0000
   312 C118      5.0195   -1.1361   -4.1727   C.3       1 RES1   0.0000
   313 C119      5.0347    0.0257   -5.1696   C.3       1 RES1   0.0000
   314 C120      3.6520    0.6648   -5.3201   C.3       1 RES1   0.0000
   315 C121      3.6824    2.1187   -5.7931   C.3       1 RES1   0.0000
   316 C122      4.0343    2.2593   -7.2745   C.3       1 RES1   0.0000
   317 C123      3.6221    3.6162   -7.8463   C.3       1 RES1   0.0000
   318 C124      4.2918    4.7792   -7.1257   C.3       1 RES1   0.0000
   319 C125      4.4095    1.6254   -2.2637   C.3       1 RES1   0.0000
   320 C126      5.4644    2.0008   -1.2134   C.3       1 RES1   0.0000
   321 C127      6.0772    3.3997   -1.3684   C.3       1 RES1   0.0000
   322 C128      5.2512    4.5806   -0.8409   C.3       1 RES1   0.0000
   323 C129      4.4542    5.3466   -1.8975   C.3       1 RES1   0.0000
   324 C130      3.8175    6.6089   -1.3047   C.3       1 RES1   0.0000
   325 C131      3.2354    7.5310   -2.3746   C.3       1 RES1   0.0000
   326 C132      2.8252    8.8811   -1.7995   C.3       1 RES1   0.0000
   327 H179     -8.2800   -1.6914   -2.9848   H         1 RES1   0.0000
   328 H180     -7.3024   -2.8438   -3.9004   H         1 RES1   0.0000
   329 H181     -7.9614   -1.4107   -4.6942   H         1 RES1   0.0000
   330 H182     -5.9790   -1.2932   -2.3698   H         1 RES1   0.0000
   331 H183     -6.5075    0.0684   -3.3651   H         1 RES1   0.0000
   332 H184     -5.4379   -1.0578   -5.3757   H         1 RES1   0.0000
   333 H185     -4.8023   -2.3013   -4.3165   H         1 RES1   0.0000
   334 H186     -3.8527   -0.2043   -2.9387   H         1 RES1   0.0000
   335 H187     -4.0590    0.6297   -4.4527   H         1 RES1   0.0000
   336 H188     -1.8723    0.0337   -4.5495   H         1 RES1   0.0000
   337 H189     -2.6352   -1.2318   -5.4989   H         1 RES1   0.0000
   338 H190     -1.2094   -2.5189   -4.3925   H         1 RES1   0.0000
   339 H191     -2.4282   -2.5489   -3.1259   H         1 RES1   0.0000
   340 H192     -1.1434   -0.7942   -1.8653   H         1 RES1   0.0000
   341 H193     -0.0533   -0.6262   -3.2530   H         1 RES1   0.0000
   342 H194      0.7677   -2.9345   -2.9947   H         1 RES1   0.0000
   343 H195     -0.3694   -3.2105   -1.6617   H         1 RES1   0.0000
   344 H196      2.5357   -3.1030    0.1515   H         1 RES1   0.0000
   345 H197      1.0525   -3.9506   -0.2783   H         1 RES1   0.0000
   346 H198      0.6206   -1.6577    3.6604   H         1 RES1   0.0000
   347 H199      0.9189   -3.2015    4.4926   H         1 RES1   0.0000
   348 H200     -1.4700   -2.9253    2.7147   H         1 RES1   0.0000
   349 H201     -1.5098   -2.0568    4.2451   H         1 RES1   0.0000
   350 H202     -2.3485   -3.8987    5.2213   H         1 RES1   0.0000
   351 H203     -0.8357   -4.7359    4.9454   H         1 RES1   0.0000
   352 H204     -1.6080   -5.7305    2.9523   H         1 RES1   0.0000
   353 H205     -2.8154   -4.4635    2.6902   H         1 RES1   0.0000
   354 H206     -4.1933   -5.4140    4.5327   H         1 RES1   0.0000
   355 H207     -3.0389   -6.7406    4.6896   H         1 RES1   0.0000
   356 H208     -3.3851   -7.3527    2.3171   H         1 RES1   0.0000
   357 H209     -4.5379   -6.0306    2.1208   H         1 RES1   0.0000
   358 H210     -4.9693   -8.3101    4.0830   H         1 RES1   0.0000
   359 H211     -5.4794   -8.3633    2.3991   H         1 RES1   0.0000
   360 H212     -6.4479   -6.3315    4.4601   H         1 RES1   0.0000
   361 H213     -7.3645   -7.6780    3.7847   H         1 RES1   0.0000
   362 H214     -6.8917   -6.3402    2.7441   H         1 RES1   0.0000
   363 H215      1.7705   -5.0293    1.6089   H         1 RES1   0.0000
   364 H216      1.0790   -5.1595    3.2299   H         1 RES1   0.0000
   365 H217      3.3169   -3.2992    3.3011   H         1 RES1   0.0000
   366 H218      3.8274   -4.7802    2.4876   H         1 RES1   0.0000
   367 H219      4.4073   -5.1418    4.6837   H         1 RES1   0.0000
   368 H220      2.9527   -6.0951    4.4532   H         1 RES1   0.0000
   369 H221      3.0396   -5.0264    6.6425   H         1 RES1   0.0000
   370 H222      1.6382   -4.4815    5.7587   H         1 RES1   0.0000
   371 H223      2.8444   -2.3416    5.2029   H         1 RES1   0.0000
   372 H224      4.2699   -2.9491    6.0407   H         1 RES1   0.0000
   373 H225      3.0605   -2.9991    8.1627   H         1 RES1   0.0000
   374 H226      1.5580   -2.5298    7.3723   H         1 RES1   0.0000
   375 H227      4.0504   -0.7904    7.2728   H         1 RES1   0.0000
   376 H228      2.8764   -0.6862    8.5834   H         1 RES1   0.0000
   377 H229      2.2678   -0.1638    5.6291   H         1 RES1   0.0000
   378 H230      2.3577    1.0290    6.9281   H         1 RES1   0.0000
   379 H231      1.0722   -0.1771    6.9316   H         1 RES1   0.0000
   380 H232      2.5539   -2.0674   -2.8110   H         1 RES1   0.0000
   381 H233      3.3548   -2.1790   -1.2602   H         1 RES1   0.0000
   382 H234      5.1022   -1.6098   -2.0797   H         1 RES1   0.0000
   383 H235      6.0559   -0.2152   -2.5526   H         1 RES1   0.0000
   384 H236      4.1375   -1.7533   -4.3578   H         1 RES1   0.0000
   385 H237      5.8949   -1.7621   -4.3474   H         1 RES1   0.0000
   386 H238      5.3519   -0.3493   -6.1408   H         1 RES1   0.0000
   387 H239      5.7834    0.7618   -4.8666   H         1 RES1   0.0000
   388 H240      3.1173    0.6247   -4.3692   H         1 RES1   0.0000
   389 H241      3.0783    0.0689   -6.0339   H         1 RES1   0.0000
   390 H242      4.3985    2.6892   -5.1955   H         1 RES1   0.0000
   391 H243      2.6964    2.5621   -5.6284   H         1 RES1   0.0000
   392 H244      3.5292    1.4733   -7.8389   H         1 RES1   0.0000
   393 H245      5.1078    2.1246   -7.4130   H         1 RES1   0.0000
   394 H246      2.5339    3.7175   -7.7862   H         1 RES1   0.0000
   395 H247      3.8965    3.6425   -8.9019   H         1 RES1   0.0000
   396 H248      3.9176    4.8815   -6.1086   H         1 RES1   0.0000
   397 H249      4.1065    5.7121   -7.6489   H         1 RES1   0.0000
   398 H250      5.3670    4.6230   -7.0870   H         1 RES1   0.0000
   399 H251      3.4804    2.1854   -2.1355   H         1 RES1   0.0000
   400 H252      4.8097    1.8621   -3.2496   H         1 RES1   0.0000
   401 H253      6.2881    1.2890   -1.2932   H         1 RES1   0.0000
   402 H254      5.0429    1.8977   -0.2140   H         1 RES1   0.0000
   403 H255      6.3281    3.5829   -2.4122   H         1 RES1   0.0000
   404 H256      7.0180    3.3831   -0.8179   H         1 RES1   0.0000
   405 H257      5.9403    5.2926   -0.3831   H         1 RES1   0.0000
   406 H258      4.5720    4.2465   -0.0551   H         1 RES1   0.0000
   407 H259      3.6805    4.7096   -2.3411   H         1 RES1   0.0000
   408 H260      5.1332    5.6433   -2.7000   H         1 RES1   0.0000
   409 H261      4.5803    7.1633   -0.7541   H         1 RES1   0.0000
   410 H262      3.0352    6.3372   -0.5870   H         1 RES1   0.0000
   411 H263      2.3731    7.0574   -2.8490   H         1 RES1   0.0000
   412 H264      3.9871    7.6957   -3.1467   H         1 RES1   0.0000
   413 H265      3.6852    9.3901   -1.3715   H         1 RES1   0.0000
   414 H266      2.4148    9.5195   -2.5778   H         1 RES1   0.0000
   415 H267      2.0764    8.7651   -1.0190   H         1 RES1   0.0000
@<TRIPOS>BOND
     1     1    10    1
     2     1    13    1
     3     1    33    1
     4     1   148    1
     5     1   151    1
     6     1   171    1
     7     1   286    1
     8     1   289    1
     9     1   309    1
    10     2     3    1
    11     2    51    1
    12     2    52    1
    13     2    53    1
    14     3     4    1
    15     3    54    1
    16     3    55    1
    17     4     5    1
    18     4    56    1
    19     4    57    1
    20     5     6    1
    21     5    58    1
    22     5    59    1
    23     6     7    1
    24     6    60    1
    25     6    61    1
    26     7     8    1
    27     7    62    1
    28     7    63    1
    29     8     9    1
    30     8    64    1
    31     8    65    1
    32     9    10    1
    33     9    66    1
    34     9    67    1
    35    10    11    1
    36    10    31    1
    37    11    12    1
    38    11    68    1
    39    11    69    1
    40    12    13    2
    41    12    14    1
    42    14    15    1
    43    14    23    1
    44    15    16    1
    45    15    70    1
    46    15    71    1
    47    16    17    1
    48    16    72    1
    49    16    73    1
    50    17    18    1
    51    17    74    1
    52    17    75    1
    53    18    19    1
    54    18    76    1
    55    18    77    1
    56    19    20    1
    57    19    78    1
    58    19    79    1
    59    20    21    1
    60    20    80    1
    61    20    81    1
    62    21    22    1
    63    21    82    1
    64    21    83    1
    65    22    84    1
    66    22    85    1
    67    22    86    1
    68    23    24    1
    69    23    87    1
    70    23    88    1
    71    24    25    1
    72    24    89    1
    73    24    90    1
    74    25    26    1
    75    25    91    1
    76    25    92    1
    77    26    27    1
    78    26    93    1
    79    26    94    1
    80    27    28    1
    81    27    95    1
    82    27    96    1
    83    28    29    1
    84    28    97    1
    85    28    98    1
    86    29    30    1
    87    29    99    1
    88    29   100    1
    89    30   101    1
    90    30   102    1
    91    30   103    1
    92    31    32    1
    93    31   104    1
    94    31   105    1
    95    32    33    2
    96    32    34    1
    97    34    35    1
    98    34    43    1
    99    35    36    1
   100    35   106    1
   101    35   107    1
   102    36    37    1
   103    36   108    1
   104    36   109    1
   105    37    38    1
   106    37   110    1
   107    37   111    1
   108    38    39    1
   109    38   112    1
   110    38   113    1
   111    39    40    1
   112    39   114    1
   113    39   115    1
   114    40    41    1
   115    40   116    1
   116    40   117    1
   117    41    42    1
   118    41   118    1
   119    41   119    1
   120    42   120    1
   121    42   121    1
   122    42   122    1
   123    43    44    1
   124    43   123    1
   125    43   124    1
   126    44    45    1
   127    44   125    1
   128    44   126    1
   129    45    46    1
   130    45   127    1
   131    45   128    1
   132    46    47    1
   133    46   129    1
   134    46   130    1
   135    47    48    1
   136    47   131    1
   137    47   132    1
   138    48    49    1
   139    48   133    1
   140    48   134    1
   141    49    50    1
   142    49   135    1
   143    49   136    1
   144    50   137    1
   145    50   138    1
   146    50   139    1
   147   140   141    1
   148   140   189    1
   149   140   190    1
   150   140   191    1
   151   141   142    1
   152   141   192    1
   153   141   193    1
   154   142   143    1
   155   142   194    1
   156   142   195    1
   157   143   144    1
   158   143   196    1
   159   143   197    1
   160   144   145    1
   161   144   198    1
   162   144   199    1
   163   145   146    1
   164   145   200    1
   165   145   201    1
   166   146   147    1
   167   146   202    1
   168   146   203    1
   169   147   148    1
   170   147   204    1
   171   147   205    1
   172   148   149    1
   173   148   169    1
   174   149   150    1
   175   149   206    1
   176   149   207    1
   177   150   151    2
   178   150   152    1
   179   152   153    1
   180   152   161    1
   181   153   154    1
   182   153   208    1
   183   153   209    1
   184   154   155    1
   185   154   210    1
   186   154   211    1
   187   155   156    1
   188   155   212    1
   189   155   213    1
   190   156   157    1
   191   156   214    1
   192   156   215    1
   193   157   158    1
   194   157   216    1
   195   157   217    1
   196   158   159    1
   197   158   218    1
   198   158   219    1
   199   159   160    1
   200   159   220    1
   201   159   221    1
   202   160   222    1
   203   160   223    1
   204   160   224    1
   205   161   162    1
   206   161   225    1
   207   161   226    1
   208   162   163    1
   209   162   227    1
   210   162   228    1
   211   163   164    1
   212   163   229    1
   213   163   230    1
   214   164   165    1
   215   164   231    1
   216   164   232    1
   217   165   166    1
   218   165   233    1
   219   165   234    1
   220   166   167    1
   221   166   235    1
   222   166   236    1
   223   167   168    1
   224   167   237    1
   225   167   238    1
   226   168   239    1
   227   168   240    1
   228   168   241    1
   229   169   170    1
   230   169   242    1
   231   169   243    1
   232   170   171    2
   233   170   172    1
   234   172   173    1
   235   172   181    1
   236   173   174    1
   237   173   244    1
   238   173   245    1
   239   174   175    1
   240   174   246    1
   241   174   247    1
   242   175   176    1
   243   175   248    1
   244   175   249    1
   245   176   177    1
   246   176   250    1
   247   176   251    1
   248   177   178    1
   249   177   252    1
   250   177   253    1
   251   178   179    1
   252   178   254    1
   253   178   255    1
   254   179   180    1
   255   179   256    1
   256   179   257    1
   257   180   258    1
   258   180   259    1
   259   180   260    1
   260   181   182    1
   261   181   261    1
   262   181   262    1
   263   182   183    1
   264   182   263    1
   265   182   264    1
   266   183   184    1
   267   183   265    1
   268   183   266    1
   269   184   185    1
   270   184   267    1
   271   184   268    1
   272   185   186    1
   273   185   269    1
   274   185   270    1
   275   186   187    1
   276   186   271    1
   277   186   272    1
   278   187   188    1
   279   187   273    1
   280   187   274    1
   281   188   275    1
   282   188   276    1
   283   188   277    1
   284   278   279    1
   285   278   327    1
   286   278   328    1
   287   278   329    1
   288   279   280    1
   289   279   330    1
   290   279   331    1
   291   280   281    1
   292   280   332    1
   293   280   333    1
   294   281   282    1
   295   281   334    1
   296   281   335    1
   297   282   283    1
   298   282   336    1
   299   282   337    1
   300   283   284    1
   301   283   338    1
   302   283   339    1
   303   284   285    1
   304   284   340    1
   305   284   341    1
   306   285   286    1
   307   285   342    1
   308   285   343    1
   309   286   287    1
   310   286   307    1
   311   287   288    1
   312   287   344    1
   313   287   345    1
   314   288   289    2
   315   288   290    1
   316   290   291    1
   317   290   299    1
   318   291   292    1
   319   291   346    1
   320   291   347    1
   321   292   293    1
   322   292   348    1
   323   292   349    1
   324   293   294    1
   325   293   350    1
   326   293   351    1
   327   294   295    1
   328   294   352    1
   329   294   353    1
   330   295   296    1
   331   295   354    1
   332   295   355    1
   333   296   297    1
   334   296   356    1
   335   296   357    1
   336   297   298    1
   337   297   358    1
   338   297   359    1
   339   298   360    1
   340   298   361    1
   341   298   362    1
   342   299   300    1
   343   299   363    1
   344   299   364    1
   345   300   301    1
   346   300   365    1
   347   300   366    1
   348   301   302    1
   349   301   367    1
   350   301   368    1
   351   302   303    1
   352   302   369    1
   353   302   370    1
   354   303   304    1
   355   303   371    1
   356   303   372    1
   357   304   305    1
   358   304   373    1
   359   304   374    1
   360   305   306    1
   361   305   375    1
   362   305   376    1
   363   306   377    1
   364   306   378    1
   365   306   379    1
   366   307   308    1
   367   307   380    1
   368   307   381    1
   369   308   309    2
   370   308   310    1
   371   310   311    1
   372   310   319    1
   373   311   312    1
   374   311   382    1
   375   311   383    1
   376   312   313    1
   377   312   384    1
   378   312   385    1
   379   313   314    1
   380   313   386    1
   381   313   387    1
   382   314   315    1
   383   314   388    1
   384   314   389    1
   385   315   316    1
   386   315   390    1
   387   315   391    1
   388   316   317    1
   389   316   392    1
   390   316   393    1
   391   317   318    1
   392   317   394    1
   393   317   395    1
   394   318   396    1
   395   318   397    1
   396   318   398    1
   397   319   320    1
   398   319   399    1
   399   319   400    1
   400   320   321    1
   401   320   401    1
   402   320   402    1
   403   321   322    1
   404   321   403    1
   405   321   404    1
   406   322   323    1
   407   322   405    1
   408   322   406    1
   409   323   324    1
   410   323   407    1
   411   323   408    1
   412   324   325    1
   413   324   409    1
   414   324   410    1
   415   325   326    1
   416   325   411    1
   417   325   412    1
   418   326   413    1
   419   326   414    1
   420   326   415    1
@<TRIPOS>SUBSTRUCTURE
     1 RES1      415 GROUP             0 ****  ****    0  
