@<TRIPOS>MOLECULE
cn9_YICLED_0_nunpairedes_0_charge_3 Charge: 3 Unpaired_Electrons: 6 XTB_Unpaired_Electrons: 0 XTB_Charge: 3
   307   315     1     0     0
SMALL
NoCharges
****
Generated from Architector

@<TRIPOS>ATOM
     1 Eu1      -0.2986   -0.0097    0.0441   Eu        1 RES1   0.0000
     2 C1        5.2308   -2.9882   -3.8617   C.3       1 RES1   0.0000
     3 C2        5.5545   -4.1976   -2.9903   C.3       1 RES1   0.0000
     4 C3        6.6154   -3.8958   -1.9300   C.3       1 RES1   0.0000
     5 C4        6.1305   -3.0830   -0.7235   C.3       1 RES1   0.0000
     6 C5        5.1808   -3.8530    0.2044   C.3       1 RES1   0.0000
     7 C6        5.1502   -3.2613    1.6177   C.3       1 RES1   0.0000
     8 C7        4.3549   -4.1269    2.6106   C.3       1 RES1   0.0000
     9 C8        3.0500   -3.5165    3.1429   C.3       1 RES1   0.0000
    10 N1        1.9866   -3.3199    2.1618   N.am      1 RES1   0.0000
    11 C9        1.5690   -4.4991    1.4194   C.3       1 RES1   0.0000
    12 C10       1.2414   -2.2205    2.0739   C.2       1 RES1   0.0000
    13 O1        0.2871   -2.1007    1.2828   O.2       1 RES1   0.0000
    14 C11       1.5579   -1.0361    2.9964   C.3       1 RES1   0.0000
    15 O2        0.7478    0.0753    2.6134   O.3       1 RES1   0.0000
    16 C12      -0.2424    0.4533    3.5597   C.3       1 RES1   0.0000
    17 C13      -1.5232    0.8136    2.8144   C.2       1 RES1   0.0000
    18 O3       -1.7041    0.3946    1.6612   O.2       1 RES1   0.0000
    19 N2       -2.4230    1.5568    3.4411   N.am      1 RES1   0.0000
    20 C14      -3.7179    1.8446    2.8208   C.3       1 RES1   0.0000
    21 C15      -4.7287    0.7879    3.1946   C.ar      1 RES1   0.0000
    22 C16      -5.7603    1.0675    4.0796   C.ar      1 RES1   0.0000
    23 C17      -6.6182    0.0610    4.4846   C.ar      1 RES1   0.0000
    24 C18      -6.4322   -1.2337    4.0349   C.ar      1 RES1   0.0000
    25 C19      -5.4121   -1.5298    3.1376   C.ar      1 RES1   0.0000
    26 C20      -5.1815   -2.9505    2.6755   C.3       1 RES1   0.0000
    27 N3       -3.7836   -3.3207    2.7930   N.am      1 RES1   0.0000
    28 C21      -3.3084   -4.0685    3.8119   C.2       1 RES1   0.0000
    29 O4       -3.9846   -4.6150    4.6523   O.2       1 RES1   0.0000
    30 C22      -1.7698   -4.0765    3.8142   C.3       1 RES1   0.0000
    31 O5       -1.3084   -2.7677    4.1278   O.3       1 RES1   0.0000
    32 C23      -1.4072   -2.5178    5.5254   C.3       1 RES1   0.0000
    33 C24      -0.1571   -3.1149    6.2105   C.2       1 RES1   0.0000
    34 O6        0.9233   -2.6870    5.8014   O.2       1 RES1   0.0000
    35 N4       -0.2830   -4.0801    7.1238   N.am      1 RES1   0.0000
    36 C25      -1.5312   -4.5144    7.7220   C.3       1 RES1   0.0000
    37 C26       0.9015   -4.6082    7.8123   C.3       1 RES1   0.0000
    38 C27       1.9491   -5.2466    6.9030   C.3       1 RES1   0.0000
    39 C28       1.4286   -6.4577    6.1221   C.3       1 RES1   0.0000
    40 C29       1.3850   -7.7601    6.9445   C.3       1 RES1   0.0000
    41 C30      -0.0249   -8.2767    7.2564   C.3       1 RES1   0.0000
    42 C31      -0.6377   -9.1741    6.1772   C.3       1 RES1   0.0000
    43 C32      -1.1134   -8.4646    4.9094   C.3       1 RES1   0.0000
    44 C33      -2.3262   -7.5748    5.1535   C.3       1 RES1   0.0000
    45 C34      -4.5820   -0.5050    2.7023   C.ar      1 RES1   0.0000
    46 H1        6.0970   -2.7383   -4.4679   H         1 RES1   0.0000
    47 H2        4.4158   -3.1950   -4.5487   H         1 RES1   0.0000
    48 H3        4.9753   -2.1037   -3.2764   H         1 RES1   0.0000
    49 H4        5.9363   -4.9833   -3.6408   H         1 RES1   0.0000
    50 H5        4.6612   -4.5986   -2.5078   H         1 RES1   0.0000
    51 H6        7.4309   -3.3439   -2.4013   H         1 RES1   0.0000
    52 H7        7.0302   -4.8354   -1.5623   H         1 RES1   0.0000
    53 H8        5.6750   -2.1489   -1.0647   H         1 RES1   0.0000
    54 H9        7.0159   -2.8138   -0.1412   H         1 RES1   0.0000
    55 H10       5.5517   -4.8770    0.2832   H         1 RES1   0.0000
    56 H11       4.1681   -3.8957   -0.2056   H         1 RES1   0.0000
    57 H12       4.7529   -2.2414    1.6078   H         1 RES1   0.0000
    58 H13       6.1846   -3.1936    1.9582   H         1 RES1   0.0000
    59 H14       4.9711   -4.3008    3.4939   H         1 RES1   0.0000
    60 H15       4.1853   -5.1068    2.1653   H         1 RES1   0.0000
    61 H16       3.2890   -2.5626    3.6056   H         1 RES1   0.0000
    62 H17       2.6680   -4.1754    3.9302   H         1 RES1   0.0000
    63 H18       2.1130   -5.3624    1.7918   H         1 RES1   0.0000
    64 H19       1.7680   -4.3791    0.3533   H         1 RES1   0.0000
    65 H20       0.4998   -4.6642    1.5570   H         1 RES1   0.0000
    66 H21       2.6020   -0.7144    2.9210   H         1 RES1   0.0000
    67 H22       1.3659   -1.3574    4.0281   H         1 RES1   0.0000
    68 H23       0.1229    1.2946    4.1659   H         1 RES1   0.0000
    69 H24      -0.4653   -0.3994    4.2099   H         1 RES1   0.0000
    70 H25      -2.3041    1.8167    4.4133   H         1 RES1   0.0000
    71 H26      -3.5491    1.8775    1.7392   H         1 RES1   0.0000
    72 H27      -4.0414    2.8234    3.1686   H         1 RES1   0.0000
    73 H28      -5.8887    2.0679    4.4588   H         1 RES1   0.0000
    74 H29      -7.4161    0.2770    5.1765   H         1 RES1   0.0000
    75 H30      -7.0710   -2.0208    4.4004   H         1 RES1   0.0000
    76 H31      -5.4887   -3.0719    1.6300   H         1 RES1   0.0000
    77 H32      -5.7571   -3.6479    3.2918   H         1 RES1   0.0000
    78 H33      -3.1181   -2.7960    2.2393   H         1 RES1   0.0000
    79 H34      -1.3860   -4.3116    2.8194   H         1 RES1   0.0000
    80 H35      -1.4071   -4.8126    4.5383   H         1 RES1   0.0000
    81 H36      -2.3740   -2.8555    5.9011   H         1 RES1   0.0000
    82 H37      -1.3540   -1.4325    5.6529   H         1 RES1   0.0000
    83 H38      -2.4036   -4.1821    7.1677   H         1 RES1   0.0000
    84 H39      -1.6091   -4.1480    8.7502   H         1 RES1   0.0000
    85 H40      -1.5549   -5.6057    7.7569   H         1 RES1   0.0000
    86 H41       0.5450   -5.3547    8.5192   H         1 RES1   0.0000
    87 H42       1.3679   -3.7889    8.3645   H         1 RES1   0.0000
    88 H43       2.7838   -5.5452    7.5402   H         1 RES1   0.0000
    89 H44       2.3208   -4.4835    6.2192   H         1 RES1   0.0000
    90 H45       2.0807   -6.6049    5.2584   H         1 RES1   0.0000
    91 H46       0.4336   -6.2227    5.7391   H         1 RES1   0.0000
    92 H47       1.9155   -7.6038    7.8877   H         1 RES1   0.0000
    93 H48       1.9308   -8.5426    6.4124   H         1 RES1   0.0000
    94 H49      -0.6898   -7.4349    7.4585   H         1 RES1   0.0000
    95 H50       0.0340   -8.8672    8.1726   H         1 RES1   0.0000
    96 H51      -1.4932   -9.6897    6.6182   H         1 RES1   0.0000
    97 H52       0.0950   -9.9383    5.9073   H         1 RES1   0.0000
    98 H53      -1.3878   -9.2336    4.1867   H         1 RES1   0.0000
    99 H54      -0.2956   -7.8871    4.4751   H         1 RES1   0.0000
   100 H55      -3.1337   -8.1527    5.5941   H         1 RES1   0.0000
   101 H56      -2.6913   -7.1450    4.2237   H         1 RES1   0.0000
   102 H57      -2.0990   -6.7565    5.8316   H         1 RES1   0.0000
   103 H58      -3.7859   -0.7157    1.9984   H         1 RES1   0.0000
   104 C35       6.2237    1.0437    0.0740   C.3       1 RES1   0.0000
   105 C36       5.9887    2.3536    0.8162   C.3       1 RES1   0.0000
   106 C37       5.9259    3.6184   -0.0539   C.3       1 RES1   0.0000
   107 C38       4.9627    3.7158   -1.2561   C.3       1 RES1   0.0000
   108 C39       3.5347    4.2717   -1.0836   C.3       1 RES1   0.0000
   109 C40       3.0824    4.8798   -2.4187   C.3       1 RES1   0.0000
   110 C41       1.6472    5.4285   -2.4687   C.3       1 RES1   0.0000
   111 C42       0.5679    4.4724   -3.0349   C.3       1 RES1   0.0000
   112 N5       -0.3074    3.8409   -2.0538   N.am      1 RES1   0.0000
   113 C43      -1.1167    4.7318   -1.2368   C.3       1 RES1   0.0000
   114 C44      -0.5267    2.5350   -1.9203   C.2       1 RES1   0.0000
   115 O7       -1.2282    2.0488   -1.0171   O.2       1 RES1   0.0000
   116 C45       0.0950    1.5500   -2.9281   C.3       1 RES1   0.0000
   117 O8       -0.3125    0.2317   -2.5904   O.3       1 RES1   0.0000
   118 C46      -1.6079   -0.1085   -3.1011   C.3       1 RES1   0.0000
   119 C47      -2.2536   -1.0668   -2.1090   C.2       1 RES1   0.0000
   120 O9       -2.0293   -0.9665   -0.8918   O.2       1 RES1   0.0000
   121 N6       -3.0248   -2.0365   -2.5841   N.am      1 RES1   0.0000
   122 C48      -3.5814   -3.0665   -1.7136   C.3       1 RES1   0.0000
   123 C49      -5.0309   -2.8504   -1.3447   C.ar      1 RES1   0.0000
   124 C50      -5.9393   -3.8881   -1.4893   C.ar      1 RES1   0.0000
   125 C51      -7.2610   -3.7048   -1.1218   C.ar      1 RES1   0.0000
   126 C52      -7.6729   -2.4937   -0.6045   C.ar      1 RES1   0.0000
   127 C53      -6.7761   -1.4412   -0.4495   C.ar      1 RES1   0.0000
   128 C54      -7.2878   -0.1429    0.1362   C.3       1 RES1   0.0000
   129 N7       -6.3375    0.9358    0.0149   N.am      1 RES1   0.0000
   130 C55      -6.4023    1.8612   -0.9621   C.2       1 RES1   0.0000
   131 O10      -7.3594    2.0553   -1.6809   O.2       1 RES1   0.0000
   132 C56      -5.0442    2.5434   -1.1895   C.3       1 RES1   0.0000
   133 O11      -4.2487    1.6134   -1.9179   O.3       1 RES1   0.0000
   134 C57      -4.6859    1.4977   -3.2683   C.3       1 RES1   0.0000
   135 C58      -4.0029    2.6094   -4.0855   C.2       1 RES1   0.0000
   136 O12      -2.7708    2.5658   -4.1514   O.2       1 RES1   0.0000
   137 N8       -4.7212    3.6028   -4.6104   N.am      1 RES1   0.0000
   138 C59      -6.1682    3.6917   -4.6551   C.3       1 RES1   0.0000
   139 C60      -4.0333    4.6773   -5.3271   C.3       1 RES1   0.0000
   140 C61      -3.2189    5.5890   -4.4067   C.3       1 RES1   0.0000
   141 C62      -4.0615    6.2462   -3.3096   C.3       1 RES1   0.0000
   142 C63      -4.8604    7.4687   -3.7879   C.3       1 RES1   0.0000
   143 C64      -6.2493    7.6089   -3.1553   C.3       1 RES1   0.0000
   144 C65      -6.2684    7.9363   -1.6589   C.3       1 RES1   0.0000
   145 C66      -6.0001    6.7744   -0.7003   C.3       1 RES1   0.0000
   146 C67      -7.0080    5.6377   -0.8250   C.3       1 RES1   0.0000
   147 C68      -5.4520   -1.6298   -0.8237   C.ar      1 RES1   0.0000
   148 H59       6.0838    0.2000    0.7497   H         1 RES1   0.0000
   149 H60       7.2302    0.9961   -0.3230   H         1 RES1   0.0000
   150 H61       5.5470    0.9386   -0.7686   H         1 RES1   0.0000
   151 H62       6.8065    2.5049    1.5223   H         1 RES1   0.0000
   152 H63       5.0919    2.2475    1.4148   H         1 RES1   0.0000
   153 H64       6.9186    3.7224   -0.4877   H         1 RES1   0.0000
   154 H65       5.7638    4.4765    0.6064   H         1 RES1   0.0000
   155 H66       4.9351    2.7604   -1.7768   H         1 RES1   0.0000
   156 H67       5.4649    4.4057   -1.9377   H         1 RES1   0.0000
   157 H68       3.5338    5.0590   -0.3255   H         1 RES1   0.0000
   158 H69       2.8164    3.5036   -0.7778   H         1 RES1   0.0000
   159 H70       3.2291    4.1478   -3.2160   H         1 RES1   0.0000
   160 H71       3.7562    5.7091   -2.6380   H         1 RES1   0.0000
   161 H72       1.6646    6.2906   -3.1355   H         1 RES1   0.0000
   162 H73       1.3699    5.8104   -1.4867   H         1 RES1   0.0000
   163 H74       1.0596    3.6969   -3.6193   H         1 RES1   0.0000
   164 H75      -0.0717    5.0497   -3.7130   H         1 RES1   0.0000
   165 H76      -0.9668    5.7533   -1.5743   H         1 RES1   0.0000
   166 H77      -0.8378    4.6419   -0.1873   H         1 RES1   0.0000
   167 H78      -2.1684    4.4587   -1.3405   H         1 RES1   0.0000
   168 H79       1.1904    1.5450   -2.8641   H         1 RES1   0.0000
   169 H80      -0.2397    1.8028   -3.9419   H         1 RES1   0.0000
   170 H81      -1.4974   -0.5745   -4.0922   H         1 RES1   0.0000
   171 H82      -2.2121    0.8128   -3.1889   H         1 RES1   0.0000
   172 H83      -3.2769   -2.0804   -3.5611   H         1 RES1   0.0000
   173 H84      -2.9642   -3.0880   -0.8074   H         1 RES1   0.0000
   174 H85      -3.4765   -4.0248   -2.2240   H         1 RES1   0.0000
   175 H86      -5.6180   -4.8340   -1.8945   H         1 RES1   0.0000
   176 H87      -7.9717   -4.5038   -1.2485   H         1 RES1   0.0000
   177 H88      -8.7030   -2.3588   -0.3236   H         1 RES1   0.0000
   178 H89      -7.5244   -0.2853    1.1959   H         1 RES1   0.0000
   179 H90      -8.2038    0.1592   -0.3792   H         1 RES1   0.0000
   180 H91      -5.4617    0.7988    0.4993   H         1 RES1   0.0000
   181 H92      -4.5152    2.7364   -0.2546   H         1 RES1   0.0000
   182 H93      -5.1741    3.4760   -1.7477   H         1 RES1   0.0000
   183 H94      -5.7749    1.4829   -3.3198   H         1 RES1   0.0000
   184 H95      -4.3148    0.5330   -3.6236   H         1 RES1   0.0000
   185 H96      -6.6565    2.9612   -4.0164   H         1 RES1   0.0000
   186 H97      -6.5229    3.5507   -5.6808   H         1 RES1   0.0000
   187 H98      -6.4795    4.6859   -4.3277   H         1 RES1   0.0000
   188 H99      -4.7964    5.2573   -5.8410   H         1 RES1   0.0000
   189 H100     -3.3624    4.2324   -6.0655   H         1 RES1   0.0000
   190 H101     -2.7502    6.3553   -5.0266   H         1 RES1   0.0000
   191 H102     -2.4310    4.9828   -3.9564   H         1 RES1   0.0000
   192 H103     -3.3938    6.5534   -2.5023   H         1 RES1   0.0000
   193 H104     -4.7407    5.4944   -2.9052   H         1 RES1   0.0000
   194 H105     -4.9909    7.4175   -4.8726   H         1 RES1   0.0000
   195 H106     -4.2878    8.3760   -3.5794   H         1 RES1   0.0000
   196 H107     -6.8383    6.7090   -3.3470   H         1 RES1   0.0000
   197 H108     -6.7518    8.4289   -3.6729   H         1 RES1   0.0000
   198 H109     -7.2552    8.3402   -1.4244   H         1 RES1   0.0000
   199 H110     -5.5404    8.7284   -1.4669   H         1 RES1   0.0000
   200 H111     -6.0555    7.1754    0.3127   H         1 RES1   0.0000
   201 H112     -4.9877    6.3942   -0.8405   H         1 RES1   0.0000
   202 H113     -8.0177    6.0104   -0.6796   H         1 RES1   0.0000
   203 H114     -6.8153    4.8733   -0.0744   H         1 RES1   0.0000
   204 H115     -6.9690    5.1606   -1.8011   H         1 RES1   0.0000
   205 H116     -4.7296   -0.8281   -0.7368   H         1 RES1   0.0000
   206 C69      -0.8366    1.5030    6.8509   C.3       1 RES1   0.0000
   207 C70      -1.1223    2.9561    6.4855   C.3       1 RES1   0.0000
   208 C71      -0.2072    3.9388    7.2190   C.3       1 RES1   0.0000
   209 C72       1.2797    3.8127    6.8718   C.3       1 RES1   0.0000
   210 C73       1.5569    4.0399    5.3851   C.3       1 RES1   0.0000
   211 C74       3.0488    4.1316    5.0807   C.3       1 RES1   0.0000
   212 C75       3.3879    4.5653    3.6532   C.3       1 RES1   0.0000
   213 C76       3.3436    3.4897    2.5620   C.3       1 RES1   0.0000
   214 N9        2.0497    3.1881    1.9483   N.am      1 RES1   0.0000
   215 C77       1.0248    4.2139    2.0269   C.3       1 RES1   0.0000
   216 C78       1.8455    2.1863    1.0992   C.2       1 RES1   0.0000
   217 O13       0.7261    1.9896    0.5775   O.2       1 RES1   0.0000
   218 C79       2.9378    1.1936    0.6756   C.3       1 RES1   0.0000
   219 O14       2.2337    0.1654   -0.0171   O.3       1 RES1   0.0000
   220 C80       3.0580   -0.7808   -0.6864   C.3       1 RES1   0.0000
   221 C81       2.0678   -1.7733   -1.3092   C.2       1 RES1   0.0000
   222 O15       0.8536   -1.5898   -1.1483   O.2       1 RES1   0.0000
   223 N10       2.5620   -2.8021   -1.9750   N.am      1 RES1   0.0000
   224 C82       1.6934   -3.7267   -2.6970   C.3       1 RES1   0.0000
   225 C83       1.7599   -3.4622   -4.1821   C.ar      1 RES1   0.0000
   226 C84       2.0895   -4.4723   -5.0743   C.ar      1 RES1   0.0000
   227 C85       2.2221   -4.1874   -6.4214   C.ar      1 RES1   0.0000
   228 C86       2.0499   -2.8937   -6.8776   C.ar      1 RES1   0.0000
   229 C87       1.7028   -1.8761   -5.9983   C.ar      1 RES1   0.0000
   230 C88       1.5542   -0.4555   -6.4860   C.3       1 RES1   0.0000
   231 N11       2.2797    0.4594   -5.6115   N.am      1 RES1   0.0000
   232 C89       3.6285    0.3657   -5.4949   C.2       1 RES1   0.0000
   233 O16       4.2752   -0.4930   -6.0441   O.2       1 RES1   0.0000
   234 C90       4.2461    1.3912   -4.5263   C.3       1 RES1   0.0000
   235 O17       5.0943    0.7427   -3.6072   O.3       1 RES1   0.0000
   236 C91       6.3985    0.4496   -4.1099   C.3       1 RES1   0.0000
   237 C92       7.4431    1.2379   -3.2965   C.2       1 RES1   0.0000
   238 O18       7.0421    2.0554   -2.4902   O.2       1 RES1   0.0000
   239 N12       8.7345    0.9612   -3.5201   N.am      1 RES1   0.0000
   240 C93       9.1834    0.0285   -4.5298   C.3       1 RES1   0.0000
   241 C94       9.8804    1.4648   -2.7512   C.3       1 RES1   0.0000
   242 C95       9.6753    2.4295   -1.5851   C.3       1 RES1   0.0000
   243 C96       9.2295    3.8574   -1.9184   C.3       1 RES1   0.0000
   244 C97      10.2000    4.6666   -2.7834   C.3       1 RES1   0.0000
   245 C98       9.9808    4.5594   -4.2961   C.3       1 RES1   0.0000
   246 C99       8.7423    5.3026   -4.8143   C.3       1 RES1   0.0000
   247 C100      7.4900    4.4391   -4.9756   C.3       1 RES1   0.0000
   248 C101      7.6373    3.3892   -6.0709   C.3       1 RES1   0.0000
   249 C102      1.5415   -2.1729   -4.6531   C.ar      1 RES1   0.0000
   250 H117     -1.5650    0.8308    6.3975   H         1 RES1   0.0000
   251 H118     -0.8973    1.3776    7.9280   H         1 RES1   0.0000
   252 H119      0.1584    1.1980    6.5354   H         1 RES1   0.0000
   253 H120     -2.1528    3.1950    6.7515   H         1 RES1   0.0000
   254 H121     -1.0176    3.1137    5.4075   H         1 RES1   0.0000
   255 H122     -0.3268    3.7921    8.2935   H         1 RES1   0.0000
   256 H123     -0.5335    4.9563    6.9892   H         1 RES1   0.0000
   257 H124      1.6570    2.8362    7.1798   H         1 RES1   0.0000
   258 H125      1.8191    4.5673    7.4480   H         1 RES1   0.0000
   259 H126      1.0752    4.9801    5.1015   H         1 RES1   0.0000
   260 H127      1.1164    3.2245    4.8051   H         1 RES1   0.0000
   261 H128      3.5387    3.1817    5.3017   H         1 RES1   0.0000
   262 H129      3.4787    4.8797    5.7457   H         1 RES1   0.0000
   263 H130      4.4244    4.9042    3.6546   H         1 RES1   0.0000
   264 H131      2.7876    5.4287    3.3768   H         1 RES1   0.0000
   265 H132      3.7402    2.5583    2.9765   H         1 RES1   0.0000
   266 H133      3.9962    3.8377    1.7574   H         1 RES1   0.0000
   267 H134      0.7789    4.4324    3.0593   H         1 RES1   0.0000
   268 H135      0.1357    3.8453    1.5227   H         1 RES1   0.0000
   269 H136      1.3887    5.1272    1.5518   H         1 RES1   0.0000
   270 H137      3.4963    0.7753    1.5233   H         1 RES1   0.0000
   271 H138      3.6523    1.6730   -0.0080   H         1 RES1   0.0000
   272 H139      3.7271   -1.2831    0.0310   H         1 RES1   0.0000
   273 H140      3.6592   -0.3095   -1.4839   H         1 RES1   0.0000
   274 H141      3.5448   -2.8330   -2.2323   H         1 RES1   0.0000
   275 H142      0.6795   -3.5864   -2.3073   H         1 RES1   0.0000
   276 H143      2.0307   -4.7416   -2.4777   H         1 RES1   0.0000
   277 H144      2.2526   -5.4769   -4.7183   H         1 RES1   0.0000
   278 H145      2.4910   -4.9673   -7.1142   H         1 RES1   0.0000
   279 H146      2.2062   -2.6741   -7.9201   H         1 RES1   0.0000
   280 H147      0.5036   -0.1515   -6.4921   H         1 RES1   0.0000
   281 H148      1.9498   -0.3887   -7.5055   H         1 RES1   0.0000
   282 H149      1.7990    1.2803   -5.2787   H         1 RES1   0.0000
   283 H150      3.4631    1.8885   -3.9408   H         1 RES1   0.0000
   284 H151      4.7930    2.1557   -5.0957   H         1 RES1   0.0000
   285 H152      6.4531    0.7087   -5.1673   H         1 RES1   0.0000
   286 H153      6.5625   -0.6208   -3.9864   H         1 RES1   0.0000
   287 H154      8.3652   -0.3241   -5.1461   H         1 RES1   0.0000
   288 H155      9.6743   -0.8315   -4.0639   H         1 RES1   0.0000
   289 H156      9.9156    0.5122   -5.1815   H         1 RES1   0.0000
   290 H157     10.5709    1.9300   -3.4615   H         1 RES1   0.0000
   291 H158     10.3746    0.5713   -2.3445   H         1 RES1   0.0000
   292 H159     10.6485    2.4849   -1.0850   H         1 RES1   0.0000
   293 H160      8.9686    2.0027   -0.8702   H         1 RES1   0.0000
   294 H161      9.1166    4.3706   -0.9583   H         1 RES1   0.0000
   295 H162      8.2516    3.8230   -2.3907   H         1 RES1   0.0000
   296 H163     11.2260    4.3705   -2.5452   H         1 RES1   0.0000
   297 H164     10.1013    5.7186   -2.5037   H         1 RES1   0.0000
   298 H165      9.9224    3.5154   -4.5991   H         1 RES1   0.0000
   299 H166     10.8651    4.9861   -4.7726   H         1 RES1   0.0000
   300 H167      8.9800    5.7264   -5.7921   H         1 RES1   0.0000
   301 H168      8.5189    6.1390   -4.1472   H         1 RES1   0.0000
   302 H169      6.6608    5.1019   -5.2308   H         1 RES1   0.0000
   303 H170      7.2400    3.9479   -4.0360   H         1 RES1   0.0000
   304 H171      7.9596    3.8502   -7.0007   H         1 RES1   0.0000
   305 H172      6.6859    2.8920   -6.2547   H         1 RES1   0.0000
   306 H173      8.3649    2.6298   -5.7961   H         1 RES1   0.0000
   307 H174      1.2769   -1.3894   -3.9536   H         1 RES1   0.0000
@<TRIPOS>BOND
     1     1    13    1
     2     1    15    1
     3     1    18    1
     4     1   115    1
     5     1   117    1
     6     1   120    1
     7     1   217    1
     8     1   219    1
     9     1   222    1
    10     2     3    1
    11     2    46    1
    12     2    47    1
    13     2    48    1
    14     3     4    1
    15     3    49    1
    16     3    50    1
    17     4     5    1
    18     4    51    1
    19     4    52    1
    20     5     6    1
    21     5    53    1
    22     5    54    1
    23     6     7    1
    24     6    55    1
    25     6    56    1
    26     7     8    1
    27     7    57    1
    28     7    58    1
    29     8     9    1
    30     8    59    1
    31     8    60    1
    32     9    10    1
    33     9    61    1
    34     9    62    1
    35    10    11    1
    36    10    12    1
    37    11    63    1
    38    11    64    1
    39    11    65    1
    40    12    13    2
    41    12    14    1
    42    14    15    1
    43    14    66    1
    44    14    67    1
    45    15    16    1
    46    16    17    1
    47    16    68    1
    48    16    69    1
    49    17    18    2
    50    17    19    1
    51    19    20    1
    52    19    70    1
    53    20    21    1
    54    20    71    1
    55    20    72    1
    56    21    22    1
    57    21    45    2
    58    22    23    2
    59    22    73    1
    60    23    24    1
    61    23    74    1
    62    24    25    2
    63    24    75    1
    64    25    26    1
    65    25    45    1
    66    26    27    1
    67    26    76    1
    68    26    77    1
    69    27    28    1
    70    27    78    1
    71    28    29    2
    72    28    30    1
    73    30    31    1
    74    30    79    1
    75    30    80    1
    76    31    32    1
    77    32    33    1
    78    32    81    1
    79    32    82    1
    80    33    34    2
    81    33    35    1
    82    35    36    1
    83    35    37    1
    84    36    83    1
    85    36    84    1
    86    36    85    1
    87    37    38    1
    88    37    86    1
    89    37    87    1
    90    38    39    1
    91    38    88    1
    92    38    89    1
    93    39    40    1
    94    39    90    1
    95    39    91    1
    96    40    41    1
    97    40    92    1
    98    40    93    1
    99    41    42    1
   100    41    94    1
   101    41    95    1
   102    42    43    1
   103    42    96    1
   104    42    97    1
   105    43    44    1
   106    43    98    1
   107    43    99    1
   108    44   100    1
   109    44   101    1
   110    44   102    1
   111    45   103    1
   112   104   105    1
   113   104   148    1
   114   104   149    1
   115   104   150    1
   116   105   106    1
   117   105   151    1
   118   105   152    1
   119   106   107    1
   120   106   153    1
   121   106   154    1
   122   107   108    1
   123   107   155    1
   124   107   156    1
   125   108   109    1
   126   108   157    1
   127   108   158    1
   128   109   110    1
   129   109   159    1
   130   109   160    1
   131   110   111    1
   132   110   161    1
   133   110   162    1
   134   111   112    1
   135   111   163    1
   136   111   164    1
   137   112   113    1
   138   112   114    1
   139   113   165    1
   140   113   166    1
   141   113   167    1
   142   114   115    2
   143   114   116    1
   144   116   117    1
   145   116   168    1
   146   116   169    1
   147   117   118    1
   148   118   119    1
   149   118   170    1
   150   118   171    1
   151   119   120    2
   152   119   121    1
   153   121   122    1
   154   121   172    1
   155   122   123    1
   156   122   173    1
   157   122   174    1
   158   123   124    1
   159   123   147    2
   160   124   125    2
   161   124   175    1
   162   125   126    1
   163   125   176    1
   164   126   127    2
   165   126   177    1
   166   127   128    1
   167   127   147    1
   168   128   129    1
   169   128   178    1
   170   128   179    1
   171   129   130    1
   172   129   180    1
   173   130   131    2
   174   130   132    1
   175   132   133    1
   176   132   181    1
   177   132   182    1
   178   133   134    1
   179   134   135    1
   180   134   183    1
   181   134   184    1
   182   135   136    2
   183   135   137    1
   184   137   138    1
   185   137   139    1
   186   138   185    1
   187   138   186    1
   188   138   187    1
   189   139   140    1
   190   139   188    1
   191   139   189    1
   192   140   141    1
   193   140   190    1
   194   140   191    1
   195   141   142    1
   196   141   192    1
   197   141   193    1
   198   142   143    1
   199   142   194    1
   200   142   195    1
   201   143   144    1
   202   143   196    1
   203   143   197    1
   204   144   145    1
   205   144   198    1
   206   144   199    1
   207   145   146    1
   208   145   200    1
   209   145   201    1
   210   146   202    1
   211   146   203    1
   212   146   204    1
   213   147   205    1
   214   206   207    1
   215   206   250    1
   216   206   251    1
   217   206   252    1
   218   207   208    1
   219   207   253    1
   220   207   254    1
   221   208   209    1
   222   208   255    1
   223   208   256    1
   224   209   210    1
   225   209   257    1
   226   209   258    1
   227   210   211    1
   228   210   259    1
   229   210   260    1
   230   211   212    1
   231   211   261    1
   232   211   262    1
   233   212   213    1
   234   212   263    1
   235   212   264    1
   236   213   214    1
   237   213   265    1
   238   213   266    1
   239   214   215    1
   240   214   216    1
   241   215   267    1
   242   215   268    1
   243   215   269    1
   244   216   217    2
   245   216   218    1
   246   218   219    1
   247   218   270    1
   248   218   271    1
   249   219   220    1
   250   220   221    1
   251   220   272    1
   252   220   273    1
   253   221   222    2
   254   221   223    1
   255   223   224    1
   256   223   274    1
   257   224   225    1
   258   224   275    1
   259   224   276    1
   260   225   226    1
   261   225   249    2
   262   226   227    2
   263   226   277    1
   264   227   228    1
   265   227   278    1
   266   228   229    2
   267   228   279    1
   268   229   230    1
   269   229   249    1
   270   230   231    1
   271   230   280    1
   272   230   281    1
   273   231   232    1
   274   231   282    1
   275   232   233    2
   276   232   234    1
   277   234   235    1
   278   234   283    1
   279   234   284    1
   280   235   236    1
   281   236   237    1
   282   236   285    1
   283   236   286    1
   284   237   238    2
   285   237   239    1
   286   239   240    1
   287   239   241    1
   288   240   287    1
   289   240   288    1
   290   240   289    1
   291   241   242    1
   292   241   290    1
   293   241   291    1
   294   242   243    1
   295   242   292    1
   296   242   293    1
   297   243   244    1
   298   243   294    1
   299   243   295    1
   300   244   245    1
   301   244   296    1
   302   244   297    1
   303   245   246    1
   304   245   298    1
   305   245   299    1
   306   246   247    1
   307   246   300    1
   308   246   301    1
   309   247   248    1
   310   247   302    1
   311   247   303    1
   312   248   304    1
   313   248   305    1
   314   248   306    1
   315   249   307    1
@<TRIPOS>SUBSTRUCTURE
     1 RES1      307 GROUP             0 ****  ****    0  
