@<TRIPOS>MOLECULE
am_c3_9H2O_c0_0_nunpairedes_0_charge_3 Charge: 3 Unpaired_Electrons: 6 XTB_Unpaired_Electrons: 0 XTB_Charge: 3
   244   249     1     0     0
SMALL
NoCharges
****
Generated from Architector

@<TRIPOS>ATOM
     1 Eu1      -0.1478    0.0589    0.6747   Eu        1 RES1   0.0000
     2 C1        4.7319    0.2434   -5.5784   C.3       1 RES1   0.0000
     3 C2        5.6069   -0.0049   -4.3540   C.3       1 RES1   0.0000
     4 C3        6.1204    1.2840   -3.7181   C.3       1 RES1   0.0000
     5 C4        7.1570    1.0305   -2.6223   C.3       1 RES1   0.0000
     6 C5        6.6556    0.4077   -1.3185   C.3       1 RES1   0.0000
     7 C6        5.6514    1.2675   -0.5244   C.3       1 RES1   0.0000
     8 C7        6.1254    1.4708    0.9189   C.3       1 RES1   0.0000
     9 C8        5.0332    1.8581    1.9252   C.3       1 RES1   0.0000
    10 N1        4.0237    0.8240    2.0914   N.am      1 RES1   0.0000
    11 C9        4.3917   -0.3871    2.8233   C.3       1 RES1   0.0000
    12 C10       5.1029   -1.4694    2.0130   C.3       1 RES1   0.0000
    13 C11       4.9272   -2.8506    2.6456   C.3       1 RES1   0.0000
    14 C12       5.5891   -3.9281    1.7689   C.3       1 RES1   0.0000
    15 C13       4.6074   -5.0080    1.3100   C.3       1 RES1   0.0000
    16 C14       5.1386   -5.8063    0.1199   C.3       1 RES1   0.0000
    17 C15       5.0874   -5.0306   -1.1941   C.3       1 RES1   0.0000
    18 C16       5.5500   -5.8908   -2.3629   C.3       1 RES1   0.0000
    19 C17       2.7686    0.9550    1.7022   C.2       1 RES1   0.0000
    20 O1        1.9515    0.0022    1.6878   O.2       1 RES1   0.0000
    21 C18       2.1934    2.3458    1.4036   C.3       1 RES1   0.0000
    22 O2        0.7987    2.3057    1.6880   O.3       1 RES1   0.0000
    23 C19       0.5994    2.4078    3.1061   C.3       1 RES1   0.0000
    24 C20      -0.8311    2.0286    3.4426   C.3       1 RES1   0.0000
    25 O3       -1.0155    0.7034    2.9555   O.3       1 RES1   0.0000
    26 C21      -2.1511    0.0754    3.5325   C.3       1 RES1   0.0000
    27 C22      -2.2277   -1.3263    2.9410   C.2       1 RES1   0.0000
    28 O4       -1.4648   -1.5766    1.9724   O.2       1 RES1   0.0000
    29 N2       -3.0736   -2.1887    3.4885   N.am      1 RES1   0.0000
    30 C23      -3.0546   -3.6036    3.0864   C.3       1 RES1   0.0000
    31 C24      -4.4213   -4.2217    2.7131   C.3       1 RES1   0.0000
    32 C25      -4.3728   -5.0658    1.4322   C.3       1 RES1   0.0000
    33 C26      -5.7481   -5.4542    0.8746   C.3       1 RES1   0.0000
    34 C27      -5.6452   -5.9665   -0.5674   C.3       1 RES1   0.0000
    35 C28      -6.9884   -5.9174   -1.3153   C.3       1 RES1   0.0000
    36 C29      -7.0792   -4.7123   -2.2576   C.3       1 RES1   0.0000
    37 C30      -6.3579   -4.9959   -3.5721   C.3       1 RES1   0.0000
    38 C31      -4.0802   -1.8190    4.4920   C.3       1 RES1   0.0000
    39 C32      -3.5888   -1.3863    5.8913   C.3       1 RES1   0.0000
    40 C33      -3.9958    0.0478    6.2755   C.3       1 RES1   0.0000
    41 C34      -5.3577    0.1280    6.9676   C.3       1 RES1   0.0000
    42 C35      -6.5523   -0.2648    6.0996   C.3       1 RES1   0.0000
    43 C36      -6.8343    0.6862    4.9330   C.3       1 RES1   0.0000
    44 C37      -7.4555    2.0046    5.3891   C.3       1 RES1   0.0000
    45 C38      -7.9019    2.8660    4.2157   C.3       1 RES1   0.0000
    46 H1        4.5605   -0.6879   -6.1146   H         1 RES1   0.0000
    47 H2        5.2236    0.9435   -6.2491   H         1 RES1   0.0000
    48 H3        3.7616    0.6615   -5.3091   H         1 RES1   0.0000
    49 H4        6.4694   -0.5956   -4.6575   H         1 RES1   0.0000
    50 H5        5.0595   -0.5902   -3.6115   H         1 RES1   0.0000
    51 H6        5.2822    1.8781   -3.3362   H         1 RES1   0.0000
    52 H7        6.6042    1.8702   -4.5026   H         1 RES1   0.0000
    53 H8        7.6653    1.9640   -2.3846   H         1 RES1   0.0000
    54 H9        7.9112    0.3615   -3.0347   H         1 RES1   0.0000
    55 H10       7.5399    0.2514   -0.7016   H         1 RES1   0.0000
    56 H11       6.2328   -0.5809   -1.5082   H         1 RES1   0.0000
    57 H12       4.6738    0.7785   -0.5160   H         1 RES1   0.0000
    58 H13       5.5364    2.2417   -1.0010   H         1 RES1   0.0000
    59 H14       6.8873    2.2537    0.9469   H         1 RES1   0.0000
    60 H15       6.5813    0.5495    1.2713   H         1 RES1   0.0000
    61 H16       4.5699    2.7925    1.6149   H         1 RES1   0.0000
    62 H17       5.5130    2.0205    2.8929   H         1 RES1   0.0000
    63 H18       3.4580   -0.8055    3.2064   H         1 RES1   0.0000
    64 H19       5.0066   -0.0800    3.6709   H         1 RES1   0.0000
    65 H20       6.1702   -1.2679    1.9517   H         1 RES1   0.0000
    66 H21       4.7066   -1.4861    0.9953   H         1 RES1   0.0000
    67 H22       3.8626   -3.0604    2.7680   H         1 RES1   0.0000
    68 H23       5.3723   -2.8494    3.6400   H         1 RES1   0.0000
    69 H24       6.4144   -4.3947    2.3071   H         1 RES1   0.0000
    70 H25       6.0209   -3.4433    0.8919   H         1 RES1   0.0000
    71 H26       3.6545   -4.5452    1.0326   H         1 RES1   0.0000
    72 H27       4.4081   -5.6847    2.1424   H         1 RES1   0.0000
    73 H28       4.5471   -6.7152    0.0075   H         1 RES1   0.0000
    74 H29       6.1661   -6.1077    0.3197   H         1 RES1   0.0000
    75 H30       5.7140   -4.1379   -1.1249   H         1 RES1   0.0000
    76 H31       4.0573   -4.7013   -1.3702   H         1 RES1   0.0000
    77 H32       6.5688   -6.2300   -2.2022   H         1 RES1   0.0000
    78 H33       5.5210   -5.3315   -3.2944   H         1 RES1   0.0000
    79 H34       4.9147   -6.7669   -2.4714   H         1 RES1   0.0000
    80 H35       2.3230    2.6197    0.3530   H         1 RES1   0.0000
    81 H36       2.6610    3.1074    2.0341   H         1 RES1   0.0000
    82 H37       0.8088    3.4328    3.4318   H         1 RES1   0.0000
    83 H38       1.2640    1.7068    3.6271   H         1 RES1   0.0000
    84 H39      -1.5335    2.7118    2.9500   H         1 RES1   0.0000
    85 H40      -0.9629    2.0592    4.5326   H         1 RES1   0.0000
    86 H41      -3.0664    0.6402    3.3101   H         1 RES1   0.0000
    87 H42      -2.0141    0.0200    4.6151   H         1 RES1   0.0000
    88 H43      -2.6238   -4.1558    3.9263   H         1 RES1   0.0000
    89 H44      -2.3650   -3.6582    2.2430   H         1 RES1   0.0000
    90 H45      -5.1509   -3.4314    2.5595   H         1 RES1   0.0000
    91 H46      -4.7839   -4.8505    3.5253   H         1 RES1   0.0000
    92 H47      -3.7974   -5.9773    1.5962   H         1 RES1   0.0000
    93 H48      -3.8848   -4.4773    0.6585   H         1 RES1   0.0000
    94 H49      -6.4010   -4.5794    0.8733   H         1 RES1   0.0000
    95 H50      -6.2276   -6.2055    1.5017   H         1 RES1   0.0000
    96 H51      -5.2313   -6.9740   -0.5791   H         1 RES1   0.0000
    97 H52      -4.9316   -5.3365   -1.1047   H         1 RES1   0.0000
    98 H53      -7.8047   -5.8856   -0.5962   H         1 RES1   0.0000
    99 H54      -7.1205   -6.8248   -1.9027   H         1 RES1   0.0000
   100 H55      -6.6388   -3.8345   -1.7777   H         1 RES1   0.0000
   101 H56      -8.1198   -4.4708   -2.4713   H         1 RES1   0.0000
   102 H57      -5.4241   -5.5231   -3.3841   H         1 RES1   0.0000
   103 H58      -6.1413   -4.0777   -4.1141   H         1 RES1   0.0000
   104 H59      -6.9686   -5.6254   -4.2133   H         1 RES1   0.0000
   105 H60      -4.7074   -2.7029    4.6068   H         1 RES1   0.0000
   106 H61      -4.7024   -1.0202    4.0772   H         1 RES1   0.0000
   107 H62      -2.5080   -1.5249    5.9558   H         1 RES1   0.0000
   108 H63      -4.0145   -2.0588    6.6380   H         1 RES1   0.0000
   109 H64      -4.0203    0.6984    5.4009   H         1 RES1   0.0000
   110 H65      -3.2465    0.4490    6.9597   H         1 RES1   0.0000
   111 H66      -5.5014    1.1478    7.3171   H         1 RES1   0.0000
   112 H67      -5.3356   -0.5138    7.8466   H         1 RES1   0.0000
   113 H68      -7.4435   -0.2908    6.7288   H         1 RES1   0.0000
   114 H69      -6.4102   -1.2774    5.7224   H         1 RES1   0.0000
   115 H70      -7.5297    0.1992    4.2470   H         1 RES1   0.0000
   116 H71      -5.9183    0.8990    4.3691   H         1 RES1   0.0000
   117 H72      -6.7366    2.5624    5.9920   H         1 RES1   0.0000
   118 H73      -8.3220    1.7875    6.0145   H         1 RES1   0.0000
   119 H74      -7.0642    3.0978    3.5603   H         1 RES1   0.0000
   120 H75      -8.3243    3.7972    4.5800   H         1 RES1   0.0000
   121 H76      -8.6641    2.3579    3.6306   H         1 RES1   0.0000
   122 C39       0.2975   -3.7411    5.6241   C.3       1 RES1   0.0000
   123 C40       0.7568   -3.0825    4.3285   C.3       1 RES1   0.0000
   124 C41       1.2840   -4.0653    3.2785   C.3       1 RES1   0.0000
   125 C42       0.2590   -5.1209    2.8487   C.3       1 RES1   0.0000
   126 C43       0.5163   -5.6742    1.4412   C.3       1 RES1   0.0000
   127 C44       0.0627   -4.7244    0.3112   C.3       1 RES1   0.0000
   128 C45      -1.3624   -5.0302   -0.1510   C.3       1 RES1   0.0000
   129 C46      -1.9755   -4.2554   -1.3394   C.3       1 RES1   0.0000
   130 N3       -2.3093   -2.8389   -1.1393   N.am      1 RES1   0.0000
   131 C47      -3.7219   -2.4141   -1.1794   C.3       1 RES1   0.0000
   132 C48      -4.2489   -1.7049    0.0738   C.3       1 RES1   0.0000
   133 C49      -5.7639   -1.9137    0.2032   C.3       1 RES1   0.0000
   134 C50      -6.3801   -1.2155    1.4262   C.3       1 RES1   0.0000
   135 C51      -7.7773   -1.7382    1.8436   C.3       1 RES1   0.0000
   136 C52      -7.8286   -2.3886    3.2459   C.3       1 RES1   0.0000
   137 C53      -8.0606   -3.9032    3.2745   C.3       1 RES1   0.0000
   138 C54      -7.8799   -4.4725    4.6815   C.3       1 RES1   0.0000
   139 C55      -1.3956   -1.8895   -1.0995   C.2       1 RES1   0.0000
   140 O5       -1.6622   -0.6933   -0.8189   O.2       1 RES1   0.0000
   141 C56       0.0570   -2.1592   -1.4952   C.3       1 RES1   0.0000
   142 O6        0.8654   -1.8696   -0.3524   O.3       1 RES1   0.0000
   143 C57       2.2489   -2.1012   -0.6047   C.3       1 RES1   0.0000
   144 C58       2.7837   -1.0543   -1.5842   C.3       1 RES1   0.0000
   145 O7        2.1579    0.1629   -1.1964   O.3       1 RES1   0.0000
   146 C59       2.2259    1.1954   -2.1606   C.3       1 RES1   0.0000
   147 C60       1.0124    2.0934   -1.9190   C.2       1 RES1   0.0000
   148 O8        0.1565    1.7135   -1.0830   O.2       1 RES1   0.0000
   149 N4        0.9197    3.2087   -2.6157   N.am      1 RES1   0.0000
   150 C61      -0.2454    4.0764   -2.5013   C.3       1 RES1   0.0000
   151 C62      -1.1731    4.0111   -3.7162   C.3       1 RES1   0.0000
   152 C63      -1.9539    2.7002   -3.8420   C.3       1 RES1   0.0000
   153 C64      -1.1515    1.5351   -4.4279   C.3       1 RES1   0.0000
   154 C65      -2.0581    0.4665   -5.0394   C.3       1 RES1   0.0000
   155 C66      -1.2935   -0.5562   -5.8783   C.3       1 RES1   0.0000
   156 C67      -0.3914   -1.4760   -5.0591   C.3       1 RES1   0.0000
   157 C68       0.1845   -2.6005   -5.9140   C.3       1 RES1   0.0000
   158 C69       2.0560    3.7587   -3.3393   C.3       1 RES1   0.0000
   159 C70       2.9299    4.5567   -2.3597   C.3       1 RES1   0.0000
   160 C71       4.3071    4.9396   -2.8954   C.3       1 RES1   0.0000
   161 C72       5.1093    5.6851   -1.8239   C.3       1 RES1   0.0000
   162 C73       6.5581    5.9392   -2.2552   C.3       1 RES1   0.0000
   163 C74       7.4676    4.7418   -1.9893   C.3       1 RES1   0.0000
   164 C75       8.9231    4.9732   -2.4009   C.3       1 RES1   0.0000
   165 C76       9.1458    4.8907   -3.9056   C.3       1 RES1   0.0000
   166 H77      -0.0075   -2.9870    6.3462   H         1 RES1   0.0000
   167 H78      -0.5442   -4.4073    5.4584   H         1 RES1   0.0000
   168 H79       1.1046   -4.3154    6.0683   H         1 RES1   0.0000
   169 H80      -0.0704   -2.5139    3.8902   H         1 RES1   0.0000
   170 H81       1.5552   -2.3719    4.5617   H         1 RES1   0.0000
   171 H82       1.5913   -3.4799    2.4036   H         1 RES1   0.0000
   172 H83       2.1684   -4.5694    3.6704   H         1 RES1   0.0000
   173 H84       0.2760   -5.9491    3.5582   H         1 RES1   0.0000
   174 H85      -0.7352   -4.6852    2.8811   H         1 RES1   0.0000
   175 H86       1.5855   -5.8697    1.3443   H         1 RES1   0.0000
   176 H87       0.0128   -6.6378    1.3438   H         1 RES1   0.0000
   177 H88       0.1320   -3.7009    0.6879   H         1 RES1   0.0000
   178 H89       0.7506   -4.8459   -0.5267   H         1 RES1   0.0000
   179 H90      -1.3857   -6.0704   -0.4790   H         1 RES1   0.0000
   180 H91      -2.0075   -4.9566    0.7174   H         1 RES1   0.0000
   181 H92      -1.3397   -4.3650   -2.2229   H         1 RES1   0.0000
   182 H93      -2.9201   -4.7454   -1.5793   H         1 RES1   0.0000
   183 H94      -3.8451   -1.7422   -2.0338   H         1 RES1   0.0000
   184 H95      -4.3254   -3.2994   -1.3693   H         1 RES1   0.0000
   185 H96      -4.0296   -0.6387    0.0160   H         1 RES1   0.0000
   186 H97      -3.7393   -2.1010    0.9468   H         1 RES1   0.0000
   187 H98      -6.2450   -1.5453   -0.7058   H         1 RES1   0.0000
   188 H99      -5.9463   -2.9820    0.2693   H         1 RES1   0.0000
   189 H100     -5.7018   -1.3271    2.2731   H         1 RES1   0.0000
   190 H101     -6.4356   -0.1452    1.2186   H         1 RES1   0.0000
   191 H102     -8.4725   -0.8993    1.8292   H         1 RES1   0.0000
   192 H103     -8.1428   -2.4598    1.1143   H         1 RES1   0.0000
   193 H104     -6.8991   -2.1869    3.7797   H         1 RES1   0.0000
   194 H105     -8.6338   -1.9371    3.8258   H         1 RES1   0.0000
   195 H106     -9.0648   -4.1316    2.9163   H         1 RES1   0.0000
   196 H107     -7.3525   -4.4103    2.6234   H         1 RES1   0.0000
   197 H108     -8.6461   -4.1171    5.3672   H         1 RES1   0.0000
   198 H109     -7.9175   -5.5613    4.6679   H         1 RES1   0.0000
   199 H110     -6.9091   -4.1767    5.0810   H         1 RES1   0.0000
   200 H111      0.2549   -3.1810   -1.8224   H         1 RES1   0.0000
   201 H112      0.2697   -1.4513   -2.3156   H         1 RES1   0.0000
   202 H113      2.7287   -1.9989    0.3705   H         1 RES1   0.0000
   203 H114      2.4189   -3.1106   -0.9938   H         1 RES1   0.0000
   204 H115      3.8733   -0.9732   -1.5193   H         1 RES1   0.0000
   205 H116      2.5229   -1.3035   -2.6197   H         1 RES1   0.0000
   206 H117      3.1831    1.7192   -2.0731   H         1 RES1   0.0000
   207 H118      2.1483    0.7916   -3.1807   H         1 RES1   0.0000
   208 H119     -0.7977    3.7860   -1.6058   H         1 RES1   0.0000
   209 H120      0.1054    5.1022   -2.3765   H         1 RES1   0.0000
   210 H121     -1.8881    4.8274   -3.5944   H         1 RES1   0.0000
   211 H122     -0.6082    4.1889   -4.6346   H         1 RES1   0.0000
   212 H123     -2.3484    2.4160   -2.8625   H         1 RES1   0.0000
   213 H124     -2.8081    2.8905   -4.4933   H         1 RES1   0.0000
   214 H125     -0.4892    1.9143   -5.2080   H         1 RES1   0.0000
   215 H126     -0.5339    1.0787   -3.6509   H         1 RES1   0.0000
   216 H127     -2.6140   -0.0402   -4.2467   H         1 RES1   0.0000
   217 H128     -2.7881    0.9571   -5.6830   H         1 RES1   0.0000
   218 H129     -2.0100   -1.1708   -6.4225   H         1 RES1   0.0000
   219 H130     -0.6898   -0.0297   -6.6184   H         1 RES1   0.0000
   220 H131      0.4262   -0.8881   -4.6257   H         1 RES1   0.0000
   221 H132     -0.9745   -1.9072   -4.2384   H         1 RES1   0.0000
   222 H133      0.6264   -2.1950   -6.8195   H         1 RES1   0.0000
   223 H134      0.9509   -3.1554   -5.3772   H         1 RES1   0.0000
   224 H135     -0.5930   -3.3008   -6.2068   H         1 RES1   0.0000
   225 H136      2.6221    2.9603   -3.8186   H         1 RES1   0.0000
   226 H137      1.6732    4.4085   -4.1232   H         1 RES1   0.0000
   227 H138      2.3973    5.4619   -2.0647   H         1 RES1   0.0000
   228 H139      3.0744    3.9601   -1.4520   H         1 RES1   0.0000
   229 H140      4.8451    4.0386   -3.1937   H         1 RES1   0.0000
   230 H141      4.2119    5.5796   -3.7726   H         1 RES1   0.0000
   231 H142      4.6227    6.6407   -1.6218   H         1 RES1   0.0000
   232 H143      5.1073    5.1126   -0.8888   H         1 RES1   0.0000
   233 H144      6.5681    6.1781   -3.3178   H         1 RES1   0.0000
   234 H145      6.9517    6.8048   -1.7212   H         1 RES1   0.0000
   235 H146      7.4387    4.5129   -0.9195   H         1 RES1   0.0000
   236 H147      7.0820    3.8780   -2.5327   H         1 RES1   0.0000
   237 H148      9.2484    5.9490   -2.0398   H         1 RES1   0.0000
   238 H149      9.5476    4.2186   -1.9170   H         1 RES1   0.0000
   239 H150      8.6063    5.6736   -4.4315   H         1 RES1   0.0000
   240 H151     10.2028    5.0048   -4.1291   H         1 RES1   0.0000
   241 H152      8.8225    3.9246   -4.2899   H         1 RES1   0.0000
   242 O9       -2.0032    1.8099    0.6084   O.3       1 RES1   0.0000
   243 H153     -2.7456    1.6522    0.0048   H         1 RES1   0.0000
   244 H154     -1.5794    2.6195    0.2811   H         1 RES1   0.0000
@<TRIPOS>BOND
     1     1    20    1
     2     1    22    1
     3     1    25    1
     4     1    28    1
     5     1   140    1
     6     1   142    1
     7     1   145    1
     8     1   148    1
     9     1   242    1
    10     2     3    1
    11     2    46    1
    12     2    47    1
    13     2    48    1
    14     3     4    1
    15     3    49    1
    16     3    50    1
    17     4     5    1
    18     4    51    1
    19     4    52    1
    20     5     6    1
    21     5    53    1
    22     5    54    1
    23     6     7    1
    24     6    55    1
    25     6    56    1
    26     7     8    1
    27     7    57    1
    28     7    58    1
    29     8     9    1
    30     8    59    1
    31     8    60    1
    32     9    10    1
    33     9    61    1
    34     9    62    1
    35    10    11    1
    36    10    19    1
    37    11    12    1
    38    11    63    1
    39    11    64    1
    40    12    13    1
    41    12    65    1
    42    12    66    1
    43    13    14    1
    44    13    67    1
    45    13    68    1
    46    14    15    1
    47    14    69    1
    48    14    70    1
    49    15    16    1
    50    15    71    1
    51    15    72    1
    52    16    17    1
    53    16    73    1
    54    16    74    1
    55    17    18    1
    56    17    75    1
    57    17    76    1
    58    18    77    1
    59    18    78    1
    60    18    79    1
    61    19    20    2
    62    19    21    1
    63    21    22    1
    64    21    80    1
    65    21    81    1
    66    22    23    1
    67    23    24    1
    68    23    82    1
    69    23    83    1
    70    24    25    1
    71    24    84    1
    72    24    85    1
    73    25    26    1
    74    26    27    1
    75    26    86    1
    76    26    87    1
    77    27    28    2
    78    27    29    1
    79    29    30    1
    80    29    38    1
    81    30    31    1
    82    30    88    1
    83    30    89    1
    84    31    32    1
    85    31    90    1
    86    31    91    1
    87    32    33    1
    88    32    92    1
    89    32    93    1
    90    33    34    1
    91    33    94    1
    92    33    95    1
    93    34    35    1
    94    34    96    1
    95    34    97    1
    96    35    36    1
    97    35    98    1
    98    35    99    1
    99    36    37    1
   100    36   100    1
   101    36   101    1
   102    37   102    1
   103    37   103    1
   104    37   104    1
   105    38    39    1
   106    38   105    1
   107    38   106    1
   108    39    40    1
   109    39   107    1
   110    39   108    1
   111    40    41    1
   112    40   109    1
   113    40   110    1
   114    41    42    1
   115    41   111    1
   116    41   112    1
   117    42    43    1
   118    42   113    1
   119    42   114    1
   120    43    44    1
   121    43   115    1
   122    43   116    1
   123    44    45    1
   124    44   117    1
   125    44   118    1
   126    45   119    1
   127    45   120    1
   128    45   121    1
   129   122   123    1
   130   122   166    1
   131   122   167    1
   132   122   168    1
   133   123   124    1
   134   123   169    1
   135   123   170    1
   136   124   125    1
   137   124   171    1
   138   124   172    1
   139   125   126    1
   140   125   173    1
   141   125   174    1
   142   126   127    1
   143   126   175    1
   144   126   176    1
   145   127   128    1
   146   127   177    1
   147   127   178    1
   148   128   129    1
   149   128   179    1
   150   128   180    1
   151   129   130    1
   152   129   181    1
   153   129   182    1
   154   130   131    1
   155   130   139    1
   156   131   132    1
   157   131   183    1
   158   131   184    1
   159   132   133    1
   160   132   185    1
   161   132   186    1
   162   133   134    1
   163   133   187    1
   164   133   188    1
   165   134   135    1
   166   134   189    1
   167   134   190    1
   168   135   136    1
   169   135   191    1
   170   135   192    1
   171   136   137    1
   172   136   193    1
   173   136   194    1
   174   137   138    1
   175   137   195    1
   176   137   196    1
   177   138   197    1
   178   138   198    1
   179   138   199    1
   180   139   140    2
   181   139   141    1
   182   141   142    1
   183   141   200    1
   184   141   201    1
   185   142   143    1
   186   143   144    1
   187   143   202    1
   188   143   203    1
   189   144   145    1
   190   144   204    1
   191   144   205    1
   192   145   146    1
   193   146   147    1
   194   146   206    1
   195   146   207    1
   196   147   148    2
   197   147   149    1
   198   149   150    1
   199   149   158    1
   200   150   151    1
   201   150   208    1
   202   150   209    1
   203   151   152    1
   204   151   210    1
   205   151   211    1
   206   152   153    1
   207   152   212    1
   208   152   213    1
   209   153   154    1
   210   153   214    1
   211   153   215    1
   212   154   155    1
   213   154   216    1
   214   154   217    1
   215   155   156    1
   216   155   218    1
   217   155   219    1
   218   156   157    1
   219   156   220    1
   220   156   221    1
   221   157   222    1
   222   157   223    1
   223   157   224    1
   224   158   159    1
   225   158   225    1
   226   158   226    1
   227   159   160    1
   228   159   227    1
   229   159   228    1
   230   160   161    1
   231   160   229    1
   232   160   230    1
   233   161   162    1
   234   161   231    1
   235   161   232    1
   236   162   163    1
   237   162   233    1
   238   162   234    1
   239   163   164    1
   240   163   235    1
   241   163   236    1
   242   164   165    1
   243   164   237    1
   244   164   238    1
   245   165   239    1
   246   165   240    1
   247   165   241    1
   248   242   243    1
   249   242   244    1
@<TRIPOS>SUBSTRUCTURE
     1 RES1      244 GROUP             0 ****  ****    0  
