@<TRIPOS>MOLECULE
tricapped_trigonal_prismatic_0_nunpairedes_0_charge_2 Charge: 2 Unpaired_Electrons: 6 XTB_Unpaired_Electrons: 0 XTB_Charge: 2
    70    78     1     0     0
SMALL
NoCharges
****
Generated from Architector

@<TRIPOS>ATOM
     1 Eu1       0.2723   -0.2752    0.0902   Eu        1 RES1   0.0000
     2 C1       -0.9357   -4.6168   -0.0284   C.3       1 RES1   0.0000
     3 C2       -2.2777   -4.6817   -0.7577   C.3       1 RES1   0.0000
     4 C3       -3.1952   -3.4884   -0.4639   C.3       1 RES1   0.0000
     5 C4       -2.5305   -2.2226    0.0905   C.3       1 RES1   0.0000
     6 O1       -1.7047   -1.3841   -0.7724   O.3       1 RES1   0.0000
     7 C5       -1.5919   -1.7464   -2.1537   C.3       1 RES1   0.0000
     8 C6       -0.8100   -0.6644   -2.9194   C.3       1 RES1   0.0000
     9 O2        0.4284   -0.3968   -2.2491   O.3       1 RES1   0.0000
    10 C7        1.4379    0.2967   -2.9972   C.3       1 RES1   0.0000
    11 C8        2.4050    0.9440   -1.9776   C.3       1 RES1   0.0000
    12 O3        1.7345    1.4712   -0.8301   O.3       1 RES1   0.0000
    13 C9        1.3266    2.8517   -0.9051   C.3       1 RES1   0.0000
    14 C10       1.1384    3.3396    0.5402   C.3       1 RES1   0.0000
    15 C11       0.3100    4.6353    0.6406   C.3       1 RES1   0.0000
    16 C12       0.2171    5.3522   -0.6976   C.3       1 RES1   0.0000
    17 C13      -0.4190    4.4589   -1.7693   C.3       1 RES1   0.0000
    18 C14      -0.0023    2.9792   -1.6720   C.3       1 RES1   0.0000
    19 O4       -0.8890    2.0110   -1.0302   O.3       1 RES1   0.0000
    20 C15      -2.1441    2.4802   -0.5544   C.3       1 RES1   0.0000
    21 C16      -2.7650    1.4270    0.3644   C.3       1 RES1   0.0000
    22 O5       -1.7524    0.8615    1.2046   O.3       1 RES1   0.0000
    23 C17      -2.2857    0.2910    2.4089   C.3       1 RES1   0.0000
    24 C18      -1.2738   -0.7543    2.8936   C.3       1 RES1   0.0000
    25 O6       -0.8343   -1.5703    1.8062   O.3       1 RES1   0.0000
    26 C19      -1.7642   -2.6099    1.3982   C.3       1 RES1   0.0000
    27 C20      -1.0111   -3.9585    1.3479   C.3       1 RES1   0.0000
    28 H1       -0.2159   -4.0907   -0.6437   H         1 RES1   0.0000
    29 H2       -0.5573   -5.6297    0.0986   H         1 RES1   0.0000
    30 H3       -2.8168   -5.5853   -0.4855   H         1 RES1   0.0000
    31 H4       -2.0772   -4.7516   -1.8263   H         1 RES1   0.0000
    32 H5       -3.9006   -3.7811    0.3183   H         1 RES1   0.0000
    33 H6       -3.8034   -3.2506   -1.3364   H         1 RES1   0.0000
    34 H7       -3.3578   -1.5534    0.3818   H         1 RES1   0.0000
    35 H8       -2.5844   -1.8163   -2.6140   H         1 RES1   0.0000
    36 H9       -1.0699   -2.7029   -2.2466   H         1 RES1   0.0000
    37 H10      -1.3957    0.2637   -2.9879   H         1 RES1   0.0000
    38 H11      -0.6213   -1.0458   -3.9261   H         1 RES1   0.0000
    39 H12       0.9791    1.0437   -3.6506   H         1 RES1   0.0000
    40 H13       2.0049   -0.4098   -3.6162   H         1 RES1   0.0000
    41 H14       3.0101    1.7140   -2.4679   H         1 RES1   0.0000
    42 H15       3.0806    0.1727   -1.5900   H         1 RES1   0.0000
    43 H16       2.1051    3.4297   -1.4133   H         1 RES1   0.0000
    44 H17       2.1250    3.4765    0.9849   H         1 RES1   0.0000
    45 H18       0.6130    2.5508    1.1015   H         1 RES1   0.0000
    46 H19       0.7497    5.2965    1.3812   H         1 RES1   0.0000
    47 H20      -0.6946    4.4110    0.9958   H         1 RES1   0.0000
    48 H21       1.2090    5.6559   -1.0214   H         1 RES1   0.0000
    49 H22      -0.3762    6.2612   -0.5962   H         1 RES1   0.0000
    50 H23      -0.0960    4.8243   -2.7472   H         1 RES1   0.0000
    51 H24      -1.5024    4.5383   -1.7640   H         1 RES1   0.0000
    52 H25       0.1123    2.6065   -2.6972   H         1 RES1   0.0000
    53 H26      -2.8339    2.6617   -1.3886   H         1 RES1   0.0000
    54 H27      -2.0215    3.4095    0.0063   H         1 RES1   0.0000
    55 H28      -3.2403    0.6396   -0.2336   H         1 RES1   0.0000
    56 H29      -3.5295    1.9168    0.9707   H         1 RES1   0.0000
    57 H30      -3.2534   -0.1797    2.2084   H         1 RES1   0.0000
    58 H31      -2.4211    1.0780    3.1619   H         1 RES1   0.0000
    59 H32      -1.7121   -1.3563    3.7002   H         1 RES1   0.0000
    60 H33      -0.3892   -0.2369    3.2816   H         1 RES1   0.0000
    61 H34      -2.5380   -2.6947    2.1705   H         1 RES1   0.0000
    62 H35      -1.4934   -4.6433    2.0438   H         1 RES1   0.0000
    63 H36       0.0066   -3.7876    1.7155   H         1 RES1   0.0000
    64 N1        1.9794   -2.1323   -0.2148   N.3       1 RES1   0.0000
    65 O7        2.7735   -2.9728   -0.4608   O.2       1 RES1   0.0000
    66 O8        2.2884   -1.0521    0.3319   O.co2     1 RES1   0.0000
    67 O9        0.7784   -2.2558   -0.4866   O.co2     1 RES1   0.0000
    68 O10       1.5048    0.5557    2.1989   O.3       1 RES1   0.0000
    69 H37       1.9207   -0.1570    2.7115   H         1 RES1   0.0000
    70 H38       2.2464    1.1347    1.9665   H         1 RES1   0.0000
@<TRIPOS>BOND
     1     1     6    1
     2     1     9    1
     3     1    12    1
     4     1    19    1
     5     1    22    1
     6     1    25    1
     7     1    66    1
     8     1    67    1
     9     1    68    1
    10     2     3    1
    11     2    27    1
    12     2    28    1
    13     2    29    1
    14     3     4    1
    15     3    30    1
    16     3    31    1
    17     4     5    1
    18     4    32    1
    19     4    33    1
    20     5     6    1
    21     5    26    1
    22     5    34    1
    23     6     7    1
    24     7     8    1
    25     7    35    1
    26     7    36    1
    27     8     9    1
    28     8    37    1
    29     8    38    1
    30     9    10    1
    31    10    11    1
    32    10    39    1
    33    10    40    1
    34    11    12    1
    35    11    41    1
    36    11    42    1
    37    12    13    1
    38    13    14    1
    39    13    18    1
    40    13    43    1
    41    14    15    1
    42    14    44    1
    43    14    45    1
    44    15    16    1
    45    15    46    1
    46    15    47    1
    47    16    17    1
    48    16    48    1
    49    16    49    1
    50    17    18    1
    51    17    50    1
    52    17    51    1
    53    18    19    1
    54    18    52    1
    55    19    20    1
    56    20    21    1
    57    20    53    1
    58    20    54    1
    59    21    22    1
    60    21    55    1
    61    21    56    1
    62    22    23    1
    63    23    24    1
    64    23    57    1
    65    23    58    1
    66    24    25    1
    67    24    59    1
    68    24    60    1
    69    25    26    1
    70    26    27    1
    71    26    61    1
    72    27    62    1
    73    27    63    1
    74    64    65    2
    75    64    66    1
    76    64    67    1
    77    68    69    1
    78    68    70    1
@<TRIPOS>SUBSTRUCTURE
     1 RES1       70 GROUP             0 ****  ****    0  
