@<TRIPOS>MOLECULE
am_c3_9H2O_c0_0_nunpairedes_0_charge_3 Charge: 3 Unpaired_Electrons: 6 XTB_Unpaired_Electrons: 0 XTB_Charge: 3
   355   363     1     0     0
SMALL
NoCharges
****
Generated from Architector

@<TRIPOS>ATOM
     1 Eu1      -0.1374    0.0760   -1.1247   Eu        1 RES1   0.0000
     2 C1       -8.0720   -0.6233    8.2420   C.3       1 RES1   0.0000
     3 C2       -9.2269   -1.5973    8.0431   C.3       1 RES1   0.0000
     4 C3       -9.1743   -2.3238    6.6974   C.3       1 RES1   0.0000
     5 C4       -8.1783   -3.4878    6.6719   C.3       1 RES1   0.0000
     6 C5       -7.8833   -3.9308    5.2352   C.3       1 RES1   0.0000
     7 C6       -7.2309   -5.3176    5.1207   C.3       1 RES1   0.0000
     8 C7       -5.9616   -5.4843    5.9534   C.3       1 RES1   0.0000
     9 O1       -6.9977   -5.6874    3.7507   O.3       1 RES1   0.0000
    10 C8       -6.0001   -5.1692    2.9820   C.ar      1 RES1   0.0000
    11 C9       -6.0571   -3.9114    2.3717   C.ar      1 RES1   0.0000
    12 C10      -5.0653   -3.5096    1.4813   C.ar      1 RES1   0.0000
    13 C11      -5.1826   -2.1977    0.7140   C.3       1 RES1   0.0000
    14 N1       -4.3207   -1.1052    1.1843   N.am      1 RES1   0.0000
    15 C12      -3.2156   -0.6185    0.6268   C.2       1 RES1   0.0000
    16 O2       -2.6199   -1.0693   -0.3542   O.2       1 RES1   0.0000
    17 C13      -2.6132    0.6037    1.3408   C.3       1 RES1   0.0000
    18 O3       -1.6508    1.2321    0.4904   O.3       1 RES1   0.0000
    19 C14      -2.1810    2.3320   -0.2816   C.3       1 RES1   0.0000
    20 C15      -1.8566    2.1828   -1.7748   C.2       1 RES1   0.0000
    21 O4       -1.7888    1.0008   -2.2055   O.2       1 RES1   0.0000
    22 N2       -1.7296    3.2312   -2.5760   N.am      1 RES1   0.0000
    23 C16      -1.2545    4.5523   -2.1670   C.3       1 RES1   0.0000
    24 C17      -2.1647    5.7949   -2.0397   C.3       1 RES1   0.0000
    25 C18      -3.4176    5.9209   -2.9032   C.3       1 RES1   0.0000
    26 C19      -3.1567    6.3895   -4.3291   C.3       1 RES1   0.0000
    27 C20      -1.5898    2.9327   -3.9998   C.3       1 RES1   0.0000
    28 C21      -2.9255    2.8134   -4.7355   C.3       1 RES1   0.0000
    29 C22      -2.7216    2.9093   -6.2494   C.3       1 RES1   0.0000
    30 C23      -1.9414    1.7338   -6.8219   C.3       1 RES1   0.0000
    31 C24      -4.0240   -4.3815    1.1875   C.ar      1 RES1   0.0000
    32 C25      -3.9920   -5.6659    1.7120   C.ar      1 RES1   0.0000
    33 C26      -3.0107   -6.6990    1.2213   C.3       1 RES1   0.0000
    34 N3       -1.6045   -6.3422    1.3182   N.am      1 RES1   0.0000
    35 C27      -0.7710   -6.4863    0.2775   C.2       1 RES1   0.0000
    36 O5       -1.1363   -6.5755   -0.8812   O.2       1 RES1   0.0000
    37 C28       0.7277   -6.6409    0.5920   C.3       1 RES1   0.0000
    38 O6        1.2939   -5.6985    1.4857   O.3       1 RES1   0.0000
    39 C29       1.4673   -6.0800    2.8399   C.3       1 RES1   0.0000
    40 C30       0.7438   -5.0876    3.7580   C.2       1 RES1   0.0000
    41 O7       -0.4658   -4.9578    3.6045   O.2       1 RES1   0.0000
    42 N4        1.4127   -4.4616    4.7399   N.am      1 RES1   0.0000
    43 C31       0.6713   -4.1200    5.9583   C.3       1 RES1   0.0000
    44 C32       0.1712   -2.6817    6.1229   C.3       1 RES1   0.0000
    45 C33      -0.6158   -2.5306    7.4296   C.3       1 RES1   0.0000
    46 C34       0.2363   -2.6894    8.6826   C.3       1 RES1   0.0000
    47 C35       2.8596   -4.3388    4.7877   C.3       1 RES1   0.0000
    48 C36       3.3244   -2.9145    5.0912   C.3       1 RES1   0.0000
    49 C37       2.8439   -1.8863    4.0682   C.3       1 RES1   0.0000
    50 C38       3.3528   -0.4898    4.4017   C.3       1 RES1   0.0000
    51 C39      -4.9636   -6.0354    2.6281   C.ar      1 RES1   0.0000
    52 H1       -8.1685   -0.1104    9.1943   H         1 RES1   0.0000
    53 H2       -7.1133   -1.1369    8.2345   H         1 RES1   0.0000
    54 H3       -8.0714    0.1326    7.4580   H         1 RES1   0.0000
    55 H4       -9.2298   -2.3257    8.8532   H         1 RES1   0.0000
    56 H5      -10.1596   -1.0374    8.1066   H         1 RES1   0.0000
    57 H6      -10.1676   -2.7074    6.4612   H         1 RES1   0.0000
    58 H7       -8.9136   -1.6028    5.9179   H         1 RES1   0.0000
    59 H8       -7.2500   -3.1878    7.1623   H         1 RES1   0.0000
    60 H9       -8.5974   -4.3232    7.2334   H         1 RES1   0.0000
    61 H10      -8.8220   -3.9716    4.6783   H         1 RES1   0.0000
    62 H11      -7.2496   -3.1796    4.7580   H         1 RES1   0.0000
    63 H12      -7.9642   -6.0642    5.4566   H         1 RES1   0.0000
    64 H13      -5.1914   -4.7820    5.6474   H         1 RES1   0.0000
    65 H14      -6.1708   -5.3380    7.0081   H         1 RES1   0.0000
    66 H15      -5.5716   -6.4911    5.8318   H         1 RES1   0.0000
    67 H16      -6.9048   -3.2703    2.5527   H         1 RES1   0.0000
    68 H17      -4.9490   -2.3793   -0.3393   H         1 RES1   0.0000
    69 H18      -6.2141   -1.8345    0.7766   H         1 RES1   0.0000
    70 H19      -4.7177   -0.5398    1.9231   H         1 RES1   0.0000
    71 H20      -3.3833    1.3208    1.6374   H         1 RES1   0.0000
    72 H21      -2.0717    0.2717    2.2351   H         1 RES1   0.0000
    73 H22      -1.7381    3.2413    0.1283   H         1 RES1   0.0000
    74 H23      -3.2732    2.3677   -0.2073   H         1 RES1   0.0000
    75 H24      -0.7819    4.4163   -1.2024   H         1 RES1   0.0000
    76 H25      -0.4523    4.7849   -2.8664   H         1 RES1   0.0000
    77 H26      -2.4979    5.8900   -1.0097   H         1 RES1   0.0000
    78 H27      -1.5278    6.6634   -2.2337   H         1 RES1   0.0000
    79 H28      -3.9690    4.9809   -2.8744   H         1 RES1   0.0000
    80 H29      -4.0550    6.6719   -2.4312   H         1 RES1   0.0000
    81 H30      -2.4786    5.7236   -4.8522   H         1 RES1   0.0000
    82 H31      -4.0897    6.4251   -4.8874   H         1 RES1   0.0000
    83 H32      -2.7291    7.3916   -4.3284   H         1 RES1   0.0000
    84 H33      -1.0019    3.7288   -4.4544   H         1 RES1   0.0000
    85 H34      -1.0309    1.9969   -4.0789   H         1 RES1   0.0000
    86 H35      -3.4133    1.8672   -4.4917   H         1 RES1   0.0000
    87 H36      -3.5722    3.6316   -4.4213   H         1 RES1   0.0000
    88 H37      -3.7004    2.9544   -6.7253   H         1 RES1   0.0000
    89 H38      -2.2187    3.8498   -6.4845   H         1 RES1   0.0000
    90 H39      -2.4978    0.8114   -6.6816   H         1 RES1   0.0000
    91 H40      -1.7873    1.8748   -7.8881   H         1 RES1   0.0000
    92 H41      -0.9745    1.6450   -6.3315   H         1 RES1   0.0000
    93 H42      -3.2519   -4.0770    0.4996   H         1 RES1   0.0000
    94 H43      -3.1669   -7.6320    1.7769   H         1 RES1   0.0000
    95 H44      -3.2044   -6.9038    0.1617   H         1 RES1   0.0000
    96 H45      -1.2487   -6.0817    2.2335   H         1 RES1   0.0000
    97 H46       0.8622   -7.6661    0.9559   H         1 RES1   0.0000
    98 H47       1.2647   -6.5491   -0.3578   H         1 RES1   0.0000
    99 H48       1.0054   -7.0514    3.0499   H         1 RES1   0.0000
   100 H49       2.5337   -6.1855    3.0443   H         1 RES1   0.0000
   101 H50      -0.2112   -4.7662    5.9791   H         1 RES1   0.0000
   102 H51       1.3190   -4.3783    6.7989   H         1 RES1   0.0000
   103 H52       0.9977   -1.9733    6.1325   H         1 RES1   0.0000
   104 H53      -0.4796   -2.4354    5.2821   H         1 RES1   0.0000
   105 H54      -1.0749   -1.5388    7.4348   H         1 RES1   0.0000
   106 H55      -1.4184   -3.2687    7.4558   H         1 RES1   0.0000
   107 H56       1.1151   -2.0515    8.6410   H         1 RES1   0.0000
   108 H57      -0.3471   -2.4047    9.5522   H         1 RES1   0.0000
   109 H58       0.5579   -3.7173    8.8207   H         1 RES1   0.0000
   110 H59       3.2639   -5.0161    5.5478   H         1 RES1   0.0000
   111 H60       3.2833   -4.6150    3.8216   H         1 RES1   0.0000
   112 H61       3.0108   -2.6246    6.0938   H         1 RES1   0.0000
   113 H62       4.4122   -2.9276    5.0820   H         1 RES1   0.0000
   114 H63       3.2073   -2.1539    3.0773   H         1 RES1   0.0000
   115 H64       1.7518   -1.8915    4.0364   H         1 RES1   0.0000
   116 H65       4.4195   -0.4082    4.2125   H         1 RES1   0.0000
   117 H66       2.8641    0.2697    3.7971   H         1 RES1   0.0000
   118 H67       3.1774   -0.2671    5.4495   H         1 RES1   0.0000
   119 H68      -4.9502   -7.0231    3.0605   H         1 RES1   0.0000
   120 C40       2.4246    7.0942    8.5931   C.3       1 RES1   0.0000
   121 C41       2.3474    8.5920    8.3249   C.3       1 RES1   0.0000
   122 C42       1.8974    8.9181    6.9005   C.3       1 RES1   0.0000
   123 C43       0.3852    8.7970    6.7138   C.3       1 RES1   0.0000
   124 C44      -0.0010    8.8503    5.2358   C.3       1 RES1   0.0000
   125 C45      -1.5108    8.9987    5.0018   C.3       1 RES1   0.0000
   126 C46      -2.3376    7.9299    5.7120   C.3       1 RES1   0.0000
   127 O8       -1.8155    9.0450    3.5971   O.3       1 RES1   0.0000
   128 C47      -1.8359    7.8981    2.8612   C.ar      1 RES1   0.0000
   129 C48      -0.6780    7.3189    2.3326   C.ar      1 RES1   0.0000
   130 C49      -0.7429    6.1697    1.5535   C.ar      1 RES1   0.0000
   131 C50       0.5226    5.5756    0.9444   C.3       1 RES1   0.0000
   132 N5        0.8767    4.2033    1.3556   N.am      1 RES1   0.0000
   133 C51       1.0072    3.1148    0.5950   C.2       1 RES1   0.0000
   134 O9        0.4794    2.9159   -0.4998   O.2       1 RES1   0.0000
   135 C52       1.8345    1.9496    1.1609   C.3       1 RES1   0.0000
   136 O10       1.8387    0.9028    0.1845   O.3       1 RES1   0.0000
   137 C53       2.8773    1.0281   -0.8150   C.3       1 RES1   0.0000
   138 C54       2.3320    0.5664   -2.1710   C.2       1 RES1   0.0000
   139 O11       1.2195    1.0596   -2.4909   O.2       1 RES1   0.0000
   140 N6        2.9678   -0.2177   -3.0280   N.am      1 RES1   0.0000
   141 C55       3.9832   -1.2230   -2.7720   C.3       1 RES1   0.0000
   142 C56       5.1807   -1.2157   -3.7249   C.3       1 RES1   0.0000
   143 C57       6.1917   -0.0989   -3.4709   C.3       1 RES1   0.0000
   144 C58       7.4313   -0.3096   -4.3369   C.3       1 RES1   0.0000
   145 C59       2.3786   -0.2825   -4.3665   C.3       1 RES1   0.0000
   146 C60       2.6787    1.0249   -5.1153   C.3       1 RES1   0.0000
   147 C61       2.9559    0.8455   -6.6063   C.3       1 RES1   0.0000
   148 C62       1.7840    0.2707   -7.3872   C.3       1 RES1   0.0000
   149 C63      -1.9974    5.6392    1.2752   C.ar      1 RES1   0.0000
   150 C64      -3.1674    6.2407    1.7165   C.ar      1 RES1   0.0000
   151 C65      -4.5207    5.7675    1.2472   C.3       1 RES1   0.0000
   152 N7       -4.7960    4.3465    1.3828   N.am      1 RES1   0.0000
   153 C66      -5.1856    3.6117    0.3270   C.2       1 RES1   0.0000
   154 O12      -4.9476    3.9033   -0.8309   O.2       1 RES1   0.0000
   155 C67      -6.0284    2.3631    0.6502   C.3       1 RES1   0.0000
   156 O13      -5.4933    1.5510    1.6807   O.3       1 RES1   0.0000
   157 C68      -6.1882    1.4492    2.9140   C.3       1 RES1   0.0000
   158 C69      -5.1364    1.5604    4.0283   C.2       1 RES1   0.0000
   159 O14      -4.3955    2.5353    3.9707   O.2       1 RES1   0.0000
   160 N8       -5.0889    0.6838    5.0424   N.am      1 RES1   0.0000
   161 C70      -4.4689    1.1438    6.2879   C.3       1 RES1   0.0000
   162 C71      -2.9544    0.9544    6.4033   C.3       1 RES1   0.0000
   163 C72      -2.4042    1.6580    7.6470   C.3       1 RES1   0.0000
   164 C73      -2.9239    1.0732    8.9535   C.3       1 RES1   0.0000
   165 C74      -5.7372   -0.6150    5.0869   C.3       1 RES1   0.0000
   166 C75      -4.7852   -1.7597    5.4582   C.3       1 RES1   0.0000
   167 C76      -3.6502   -1.9752    4.4557   C.3       1 RES1   0.0000
   168 C77      -3.0154   -3.3529    4.6025   C.3       1 RES1   0.0000
   169 C78      -3.0774    7.3586    2.5258   C.ar      1 RES1   0.0000
   170 H69       2.7420    6.9057    9.6141   H         1 RES1   0.0000
   171 H70       1.4588    6.6166    8.4510   H         1 RES1   0.0000
   172 H71       3.1443    6.6238    7.9262   H         1 RES1   0.0000
   173 H72       1.6621    9.0531    9.0354   H         1 RES1   0.0000
   174 H73       3.3338    9.0219    8.4946   H         1 RES1   0.0000
   175 H74       2.2044    9.9337    6.6469   H         1 RES1   0.0000
   176 H75       2.4016    8.2419    6.2061   H         1 RES1   0.0000
   177 H76       0.0349    7.8583    7.1465   H         1 RES1   0.0000
   178 H77      -0.1028    9.6124    7.2471   H         1 RES1   0.0000
   179 H78       0.4925    9.7012    4.7612   H         1 RES1   0.0000
   180 H79       0.3519    7.9405    4.7430   H         1 RES1   0.0000
   181 H80      -1.8280    9.9890    5.3529   H         1 RES1   0.0000
   182 H81      -1.9689    6.9306    5.4859   H         1 RES1   0.0000
   183 H82      -2.3100    8.0886    6.7841   H         1 RES1   0.0000
   184 H83      -3.3760    7.9934    5.4000   H         1 RES1   0.0000
   185 H84       0.2709    7.7965    2.5154   H         1 RES1   0.0000
   186 H85       0.4455    5.5969   -0.1459   H         1 RES1   0.0000
   187 H86       1.3728    6.2120    1.2158   H         1 RES1   0.0000
   188 H87       1.4086    4.1609    2.2143   H         1 RES1   0.0000
   189 H88       2.8530    2.2783    1.3897   H         1 RES1   0.0000
   190 H89       1.3804    1.5307    2.0681   H         1 RES1   0.0000
   191 H90       3.1365    2.0805   -0.9850   H         1 RES1   0.0000
   192 H91       3.7517    0.4908   -0.4528   H         1 RES1   0.0000
   193 H92       4.3421   -1.1359   -1.7516   H         1 RES1   0.0000
   194 H93       3.4653   -2.1859   -2.8682   H         1 RES1   0.0000
   195 H94       5.6870   -2.1759   -3.5961   H         1 RES1   0.0000
   196 H95       4.8668   -1.1628   -4.7675   H         1 RES1   0.0000
   197 H96       5.7471    0.8759   -3.6871   H         1 RES1   0.0000
   198 H97       6.4920   -0.1005   -2.4209   H         1 RES1   0.0000
   199 H98       7.1574   -0.3599   -5.3881   H         1 RES1   0.0000
   200 H99       8.1395    0.5033   -4.2002   H         1 RES1   0.0000
   201 H100      7.9322   -1.2404   -4.0752   H         1 RES1   0.0000
   202 H101      2.8132   -1.1347   -4.8839   H         1 RES1   0.0000
   203 H102      1.3009   -0.4441   -4.2607   H         1 RES1   0.0000
   204 H103      1.8578    1.7281   -4.9714   H         1 RES1   0.0000
   205 H104      3.5674    1.4693   -4.6624   H         1 RES1   0.0000
   206 H105      3.2090    1.8287   -7.0055   H         1 RES1   0.0000
   207 H106      3.8297    0.2047   -6.7369   H         1 RES1   0.0000
   208 H107      0.9026    0.8946   -7.2684   H         1 RES1   0.0000
   209 H108      2.0348    0.2332   -8.4430   H         1 RES1   0.0000
   210 H109      1.5492   -0.7374   -7.0545   H         1 RES1   0.0000
   211 H110     -2.0924    4.7427    0.6959   H         1 RES1   0.0000
   212 H111     -5.3062    6.3201    1.7750   H         1 RES1   0.0000
   213 H112     -4.6201    5.9898    0.1777   H         1 RES1   0.0000
   214 H113     -4.8673    3.9559    2.3147   H         1 RES1   0.0000
   215 H114     -7.0304    2.7269    0.9009   H         1 RES1   0.0000
   216 H115     -6.1012    1.7603   -0.2636   H         1 RES1   0.0000
   217 H116     -6.8656    2.2967    3.0729   H         1 RES1   0.0000
   218 H117     -6.8004    0.5451    2.9224   H         1 RES1   0.0000
   219 H118     -4.6667    2.2164    6.3700   H         1 RES1   0.0000
   220 H119     -4.9723    0.6291    7.1072   H         1 RES1   0.0000
   221 H120     -2.7054   -0.1055    6.4524   H         1 RES1   0.0000
   222 H121     -2.4780    1.3747    5.5151   H         1 RES1   0.0000
   223 H122     -1.3148    1.5764    7.6291   H         1 RES1   0.0000
   224 H123     -2.6626    2.7170    7.5987   H         1 RES1   0.0000
   225 H124     -2.7379    0.0035    8.9995   H         1 RES1   0.0000
   226 H125     -2.4144    1.5411    9.7893   H         1 RES1   0.0000
   227 H126     -3.9886    1.2483    9.0727   H         1 RES1   0.0000
   228 H127     -6.5509   -0.5878    5.8190   H         1 RES1   0.0000
   229 H128     -6.1730   -0.8475    4.1143   H         1 RES1   0.0000
   230 H129     -4.3750   -1.6159    6.4588   H         1 RES1   0.0000
   231 H130     -5.3907   -2.6651    5.4846   H         1 RES1   0.0000
   232 H131     -4.0392   -1.9036    3.4424   H         1 RES1   0.0000
   233 H132     -2.8945   -1.1944    4.5725   H         1 RES1   0.0000
   234 H133     -3.6886   -4.1300    4.2513   H         1 RES1   0.0000
   235 H134     -2.1095   -3.4349    4.0097   H         1 RES1   0.0000
   236 H135     -2.7740   -3.5547    5.6410   H         1 RES1   0.0000
   237 H136     -3.9743    7.8352    2.8888   H         1 RES1   0.0000
   238 C79       4.1820   -5.8705    8.1879   C.3       1 RES1   0.0000
   239 C80       5.6662   -6.2136    8.1274   C.3       1 RES1   0.0000
   240 C81       6.3515   -5.6869    6.8645   C.3       1 RES1   0.0000
   241 C82       6.6584   -4.1872    6.9199   C.3       1 RES1   0.0000
   242 C83       7.0520   -3.6616    5.5360   C.3       1 RES1   0.0000
   243 C84       7.4809   -2.1854    5.5179   C.3       1 RES1   0.0000
   244 C85       6.5455   -1.2467    6.2818   C.3       1 RES1   0.0000
   245 O15       7.7546   -1.6575    4.2073   O.3       1 RES1   0.0000
   246 C86       6.8970   -1.4339    3.1812   C.ar      1 RES1   0.0000
   247 C87       6.0781   -2.3799    2.5485   C.ar      1 RES1   0.0000
   248 C88       5.4272   -2.0707    1.3567   C.ar      1 RES1   0.0000
   249 C89       4.5932   -3.1009    0.6044   C.3       1 RES1   0.0000
   250 N9        3.1601   -3.1360    0.9534   N.am      1 RES1   0.0000
   251 C90       2.1436   -2.4713    0.3977   C.2       1 RES1   0.0000
   252 O16       2.1920   -1.6645   -0.5306   O.2       1 RES1   0.0000
   253 C91       0.7636   -2.7261    1.0333   C.3       1 RES1   0.0000
   254 O17      -0.2378   -2.1902    0.1652   O.3       1 RES1   0.0000
   255 C92      -0.7167   -3.1354   -0.8070   C.3       1 RES1   0.0000
   256 C93      -0.9927   -2.4162   -2.1308   C.2       1 RES1   0.0000
   257 O18      -0.1184   -1.5847   -2.4970   O.2       1 RES1   0.0000
   258 N10      -2.0171   -2.7121   -2.9044   N.am      1 RES1   0.0000
   259 C94      -3.1986   -3.4548   -2.4922   C.3       1 RES1   0.0000
   260 C95      -3.0922   -4.9822   -2.5889   C.3       1 RES1   0.0000
   261 C96      -3.1331   -5.5538   -4.0097   C.3       1 RES1   0.0000
   262 C97      -4.4657   -5.3615   -4.7324   C.3       1 RES1   0.0000
   263 C98      -2.0156   -2.1239   -4.2432   C.3       1 RES1   0.0000
   264 C99      -0.8885   -2.7101   -5.1083   C.3       1 RES1   0.0000
   265 C100     -1.3135   -3.0019   -6.5492   C.3       1 RES1   0.0000
   266 C101     -1.7222   -1.7691   -7.3418   C.3       1 RES1   0.0000
   267 C102      5.6290   -0.8280    0.7755   C.ar      1 RES1   0.0000
   268 C103      6.4368    0.1284    1.3735   C.ar      1 RES1   0.0000
   269 C104      6.7089    1.4577    0.7232   C.3       1 RES1   0.0000
   270 N11       5.8056    2.4974    1.1900   N.am      1 RES1   0.0000
   271 C105      5.2961    3.4305    0.3676   C.2       1 RES1   0.0000
   272 O19       5.2299    3.3173   -0.8401   O.2       1 RES1   0.0000
   273 C106      4.7883    4.6846    1.0982   C.3       1 RES1   0.0000
   274 O20       3.6404    4.3697    1.8657   O.3       1 RES1   0.0000
   275 C107      3.5662    4.8138    3.2057   C.3       1 RES1   0.0000
   276 C108      3.3441    3.5776    4.0972   C.2       1 RES1   0.0000
   277 O21       3.8237    2.5172    3.7217   O.2       1 RES1   0.0000
   278 N12       2.6958    3.7229    5.2660   N.am      1 RES1   0.0000
   279 C109      2.9052    2.7167    6.3073   C.3       1 RES1   0.0000
   280 C110      1.6886    1.8505    6.6347   C.3       1 RES1   0.0000
   281 C111      1.9413    0.8960    7.8067   C.3       1 RES1   0.0000
   282 C112      1.8349    1.5667    9.1689   C.3       1 RES1   0.0000
   283 C113      1.9271    4.9064    5.6214   C.3       1 RES1   0.0000
   284 C114      0.6271    5.0722    4.8193   C.3       1 RES1   0.0000
   285 C115     -0.3229    3.8834    4.9368   C.3       1 RES1   0.0000
   286 C116     -1.5705    4.0602    4.0826   C.3       1 RES1   0.0000
   287 C117      7.0353   -0.1760    2.5812   C.ar      1 RES1   0.0000
   288 H137      3.7445   -6.2305    9.1143   H         1 RES1   0.0000
   289 H138      4.0185   -4.7966    8.1371   H         1 RES1   0.0000
   290 H139      3.6462   -6.3448    7.3669   H         1 RES1   0.0000
   291 H140      6.1671   -5.8157    9.0093   H         1 RES1   0.0000
   292 H141      5.7666   -7.2985    8.1597   H         1 RES1   0.0000
   293 H142      7.2812   -6.2350    6.7072   H         1 RES1   0.0000
   294 H143      5.7065   -5.8929    6.0056   H         1 RES1   0.0000
   295 H144      5.7771   -3.6510    7.2768   H         1 RES1   0.0000
   296 H145      7.4691   -4.0102    7.6266   H         1 RES1   0.0000
   297 H146      7.8837   -4.2554    5.1497   H         1 RES1   0.0000
   298 H147      6.2018   -3.8189    4.8709   H         1 RES1   0.0000
   299 H148      8.4692   -2.1230    5.9933   H         1 RES1   0.0000
   300 H149      5.5079   -1.3819    5.9968   H         1 RES1   0.0000
   301 H150      6.6374   -1.4171    7.3496   H         1 RES1   0.0000
   302 H151      6.8282   -0.2162    6.0808   H         1 RES1   0.0000
   303 H152      5.9996   -3.3778    2.9450   H         1 RES1   0.0000
   304 H153      4.6736   -2.9019   -0.4675   H         1 RES1   0.0000
   305 H154      4.9877   -4.1008    0.8054   H         1 RES1   0.0000
   306 H155      2.8904   -3.8742    1.5907   H         1 RES1   0.0000
   307 H156      0.5905   -3.7887    1.2320   H         1 RES1   0.0000
   308 H157      0.6903   -2.1684    1.9764   H         1 RES1   0.0000
   309 H158      0.0703   -3.8588   -1.0474   H         1 RES1   0.0000
   310 H159     -1.5805   -3.6654   -0.4010   H         1 RES1   0.0000
   311 H160     -3.4321   -3.1672   -1.4664   H         1 RES1   0.0000
   312 H161     -4.0242   -3.1076   -3.1170   H         1 RES1   0.0000
   313 H162     -2.1829   -5.3396   -2.1026   H         1 RES1   0.0000
   314 H163     -3.9354   -5.3998   -2.0344   H         1 RES1   0.0000
   315 H164     -2.3288   -5.1171   -4.6036   H         1 RES1   0.0000
   316 H165     -2.9450   -6.6269   -3.9275   H         1 RES1   0.0000
   317 H166     -4.6386   -4.3229   -5.0094   H         1 RES1   0.0000
   318 H167     -4.4780   -5.9486   -5.6478   H         1 RES1   0.0000
   319 H168     -5.2990   -5.7000   -4.1197   H         1 RES1   0.0000
   320 H169     -2.9790   -2.3471   -4.6959   H         1 RES1   0.0000
   321 H170     -1.9036   -1.0390   -4.1347   H         1 RES1   0.0000
   322 H171     -0.0277   -2.0412   -5.1074   H         1 RES1   0.0000
   323 H172     -0.5668   -3.6516   -4.6565   H         1 RES1   0.0000
   324 H173     -0.4701   -3.4818   -7.0470   H         1 RES1   0.0000
   325 H174     -2.1378   -3.7169   -6.5488   H         1 RES1   0.0000
   326 H175     -0.9451   -1.0106   -7.3089   H         1 RES1   0.0000
   327 H176     -1.8831   -2.0430   -8.3808   H         1 RES1   0.0000
   328 H177     -2.6466   -1.3500   -6.9514   H         1 RES1   0.0000
   329 H178      5.2009   -0.6254   -0.1911   H         1 RES1   0.0000
   330 H179      7.7315    1.7697    0.9688   H         1 RES1   0.0000
   331 H180      6.6142    1.4044   -0.3647   H         1 RES1   0.0000
   332 H181      5.7420    2.6196    2.1911   H         1 RES1   0.0000
   333 H182      5.5938    5.0729    1.7293   H         1 RES1   0.0000
   334 H183      4.5294    5.4377    0.3444   H         1 RES1   0.0000
   335 H184      4.5001    5.2793    3.5439   H         1 RES1   0.0000
   336 H185      2.7846    5.5708    3.2761   H         1 RES1   0.0000
   337 H186      3.7119    2.0711    5.9564   H         1 RES1   0.0000
   338 H187      3.2378    3.2393    7.2093   H         1 RES1   0.0000
   339 H188      0.8432    2.4890    6.8846   H         1 RES1   0.0000
   340 H189      1.4229    1.2669    5.7500   H         1 RES1   0.0000
   341 H190      1.1942    0.1009    7.7534   H         1 RES1   0.0000
   342 H191      2.9288    0.4392    7.7113   H         1 RES1   0.0000
   343 H192      0.8726    2.0594    9.2805   H         1 RES1   0.0000
   344 H193      1.9280    0.8161    9.9473   H         1 RES1   0.0000
   345 H194      2.6204    2.3010    9.3178   H         1 RES1   0.0000
   346 H195      1.6625    4.8149    6.6749   H         1 RES1   0.0000
   347 H196      2.5422    5.8058    5.5141   H         1 RES1   0.0000
   348 H197      0.1163    5.9585    5.1977   H         1 RES1   0.0000
   349 H198      0.8289    5.2553    3.7641   H         1 RES1   0.0000
   350 H199      0.1915    2.9683    4.6321   H         1 RES1   0.0000
   351 H200     -0.6249    3.7838    5.9801   H         1 RES1   0.0000
   352 H201     -1.3339    4.0022    3.0250   H         1 RES1   0.0000
   353 H202     -2.3068    3.2943    4.3004   H         1 RES1   0.0000
   354 H203     -2.0341    5.0250    4.2674   H         1 RES1   0.0000
   355 H204      7.6809    0.5425    3.0625   H         1 RES1   0.0000
@<TRIPOS>BOND
     1     1    16    1
     2     1    18    1
     3     1    21    1
     4     1   134    1
     5     1   136    1
     6     1   139    1
     7     1   252    1
     8     1   254    1
     9     1   257    1
    10     2     3    1
    11     2    52    1
    12     2    53    1
    13     2    54    1
    14     3     4    1
    15     3    55    1
    16     3    56    1
    17     4     5    1
    18     4    57    1
    19     4    58    1
    20     5     6    1
    21     5    59    1
    22     5    60    1
    23     6     7    1
    24     6    61    1
    25     6    62    1
    26     7     8    1
    27     7     9    1
    28     7    63    1
    29     8    64    1
    30     8    65    1
    31     8    66    1
    32     9    10    1
    33    10    11    1
    34    10    51    2
    35    11    12    2
    36    11    67    1
    37    12    13    1
    38    12    31    1
    39    13    14    1
    40    13    68    1
    41    13    69    1
    42    14    15    1
    43    14    70    1
    44    15    16    2
    45    15    17    1
    46    17    18    1
    47    17    71    1
    48    17    72    1
    49    18    19    1
    50    19    20    1
    51    19    73    1
    52    19    74    1
    53    20    21    2
    54    20    22    1
    55    22    23    1
    56    22    27    1
    57    23    24    1
    58    23    75    1
    59    23    76    1
    60    24    25    1
    61    24    77    1
    62    24    78    1
    63    25    26    1
    64    25    79    1
    65    25    80    1
    66    26    81    1
    67    26    82    1
    68    26    83    1
    69    27    28    1
    70    27    84    1
    71    27    85    1
    72    28    29    1
    73    28    86    1
    74    28    87    1
    75    29    30    1
    76    29    88    1
    77    29    89    1
    78    30    90    1
    79    30    91    1
    80    30    92    1
    81    31    32    2
    82    31    93    1
    83    32    33    1
    84    32    51    1
    85    33    34    1
    86    33    94    1
    87    33    95    1
    88    34    35    1
    89    34    96    1
    90    35    36    2
    91    35    37    1
    92    37    38    1
    93    37    97    1
    94    37    98    1
    95    38    39    1
    96    39    40    1
    97    39    99    1
    98    39   100    1
    99    40    41    2
   100    40    42    1
   101    42    43    1
   102    42    47    1
   103    43    44    1
   104    43   101    1
   105    43   102    1
   106    44    45    1
   107    44   103    1
   108    44   104    1
   109    45    46    1
   110    45   105    1
   111    45   106    1
   112    46   107    1
   113    46   108    1
   114    46   109    1
   115    47    48    1
   116    47   110    1
   117    47   111    1
   118    48    49    1
   119    48   112    1
   120    48   113    1
   121    49    50    1
   122    49   114    1
   123    49   115    1
   124    50   116    1
   125    50   117    1
   126    50   118    1
   127    51   119    1
   128   120   121    1
   129   120   170    1
   130   120   171    1
   131   120   172    1
   132   121   122    1
   133   121   173    1
   134   121   174    1
   135   122   123    1
   136   122   175    1
   137   122   176    1
   138   123   124    1
   139   123   177    1
   140   123   178    1
   141   124   125    1
   142   124   179    1
   143   124   180    1
   144   125   126    1
   145   125   127    1
   146   125   181    1
   147   126   182    1
   148   126   183    1
   149   126   184    1
   150   127   128    1
   151   128   129    1
   152   128   169    2
   153   129   130    2
   154   129   185    1
   155   130   131    1
   156   130   149    1
   157   131   132    1
   158   131   186    1
   159   131   187    1
   160   132   133    1
   161   132   188    1
   162   133   134    2
   163   133   135    1
   164   135   136    1
   165   135   189    1
   166   135   190    1
   167   136   137    1
   168   137   138    1
   169   137   191    1
   170   137   192    1
   171   138   139    2
   172   138   140    1
   173   140   141    1
   174   140   145    1
   175   141   142    1
   176   141   193    1
   177   141   194    1
   178   142   143    1
   179   142   195    1
   180   142   196    1
   181   143   144    1
   182   143   197    1
   183   143   198    1
   184   144   199    1
   185   144   200    1
   186   144   201    1
   187   145   146    1
   188   145   202    1
   189   145   203    1
   190   146   147    1
   191   146   204    1
   192   146   205    1
   193   147   148    1
   194   147   206    1
   195   147   207    1
   196   148   208    1
   197   148   209    1
   198   148   210    1
   199   149   150    2
   200   149   211    1
   201   150   151    1
   202   150   169    1
   203   151   152    1
   204   151   212    1
   205   151   213    1
   206   152   153    1
   207   152   214    1
   208   153   154    2
   209   153   155    1
   210   155   156    1
   211   155   215    1
   212   155   216    1
   213   156   157    1
   214   157   158    1
   215   157   217    1
   216   157   218    1
   217   158   159    2
   218   158   160    1
   219   160   161    1
   220   160   165    1
   221   161   162    1
   222   161   219    1
   223   161   220    1
   224   162   163    1
   225   162   221    1
   226   162   222    1
   227   163   164    1
   228   163   223    1
   229   163   224    1
   230   164   225    1
   231   164   226    1
   232   164   227    1
   233   165   166    1
   234   165   228    1
   235   165   229    1
   236   166   167    1
   237   166   230    1
   238   166   231    1
   239   167   168    1
   240   167   232    1
   241   167   233    1
   242   168   234    1
   243   168   235    1
   244   168   236    1
   245   169   237    1
   246   238   239    1
   247   238   288    1
   248   238   289    1
   249   238   290    1
   250   239   240    1
   251   239   291    1
   252   239   292    1
   253   240   241    1
   254   240   293    1
   255   240   294    1
   256   241   242    1
   257   241   295    1
   258   241   296    1
   259   242   243    1
   260   242   297    1
   261   242   298    1
   262   243   244    1
   263   243   245    1
   264   243   299    1
   265   244   300    1
   266   244   301    1
   267   244   302    1
   268   245   246    1
   269   246   247    1
   270   246   287    2
   271   247   248    2
   272   247   303    1
   273   248   249    1
   274   248   267    1
   275   249   250    1
   276   249   304    1
   277   249   305    1
   278   250   251    1
   279   250   306    1
   280   251   252    2
   281   251   253    1
   282   253   254    1
   283   253   307    1
   284   253   308    1
   285   254   255    1
   286   255   256    1
   287   255   309    1
   288   255   310    1
   289   256   257    2
   290   256   258    1
   291   258   259    1
   292   258   263    1
   293   259   260    1
   294   259   311    1
   295   259   312    1
   296   260   261    1
   297   260   313    1
   298   260   314    1
   299   261   262    1
   300   261   315    1
   301   261   316    1
   302   262   317    1
   303   262   318    1
   304   262   319    1
   305   263   264    1
   306   263   320    1
   307   263   321    1
   308   264   265    1
   309   264   322    1
   310   264   323    1
   311   265   266    1
   312   265   324    1
   313   265   325    1
   314   266   326    1
   315   266   327    1
   316   266   328    1
   317   267   268    2
   318   267   329    1
   319   268   269    1
   320   268   287    1
   321   269   270    1
   322   269   330    1
   323   269   331    1
   324   270   271    1
   325   270   332    1
   326   271   272    2
   327   271   273    1
   328   273   274    1
   329   273   333    1
   330   273   334    1
   331   274   275    1
   332   275   276    1
   333   275   335    1
   334   275   336    1
   335   276   277    2
   336   276   278    1
   337   278   279    1
   338   278   283    1
   339   279   280    1
   340   279   337    1
   341   279   338    1
   342   280   281    1
   343   280   339    1
   344   280   340    1
   345   281   282    1
   346   281   341    1
   347   281   342    1
   348   282   343    1
   349   282   344    1
   350   282   345    1
   351   283   284    1
   352   283   346    1
   353   283   347    1
   354   284   285    1
   355   284   348    1
   356   284   349    1
   357   285   286    1
   358   285   350    1
   359   285   351    1
   360   286   352    1
   361   286   353    1
   362   286   354    1
   363   287   355    1
@<TRIPOS>SUBSTRUCTURE
     1 RES1      355 GROUP             0 ****  ****    0  
