@<TRIPOS>MOLECULE
am_c3_9H2O_c0_0_nunpairedes_0_charge_3 Charge: 3 Unpaired_Electrons: 6 XTB_Unpaired_Electrons: 0 XTB_Charge: 3
    68    77     1     0     0
SMALL
NoCharges
****
Generated from Architector

@<TRIPOS>ATOM
     1 Eu1      -0.3056    0.0782   -0.1135   Eu        1 RES1   0.0000
     2 C1       -0.8933   -3.6050   -0.6332   C.3       1 RES1   0.0000
     3 C2       -0.3477   -4.1572    0.7021   C.3       1 RES1   0.0000
     4 C3        0.9763   -4.9126    0.4881   C.3       1 RES1   0.0000
     5 C4       -1.4035   -5.0867    1.3353   C.3       1 RES1   0.0000
     6 C5       -1.2212   -5.2500    2.8377   C.3       1 RES1   0.0000
     7 C6       -1.2698   -3.9223    3.5917   C.3       1 RES1   0.0000
     8 C7       -2.6190   -3.1707    3.3816   C.3       1 RES1   0.0000
     9 C8       -1.0631   -4.1467    5.0850   C.3       1 RES1   0.0000
    10 C9       -0.3437   -2.9335    2.9817   C.ar      1 RES1   0.0000
    11 N1       -0.1008   -1.8220    3.6362   N.ar      1 RES1   0.0000
    12 C10       0.3399   -0.7763    2.9506   C.ar      1 RES1   0.0000
    13 C11      -0.4542    0.4372    3.2990   C.ar      1 RES1   0.0000
    14 C12      -0.7185    1.0880    4.4927   C.ar      1 RES1   0.0000
    15 C13      -1.9246    1.7839    4.5890   C.ar      1 RES1   0.0000
    16 C14      -2.8855    1.6604    3.5895   C.ar      1 RES1   0.0000
    17 C15      -2.5374    0.9846    2.4210   C.ar      1 RES1   0.0000
    18 C16      -3.4241    0.5267    1.3227   C.ar      1 RES1   0.0000
    19 C17      -4.7210    0.0921    1.5785   C.ar      1 RES1   0.0000
    20 C18      -5.4275   -0.5408    0.5626   C.ar      1 RES1   0.0000
    21 C19      -4.8602   -0.6284   -0.7006   C.ar      1 RES1   0.0000
    22 C20      -3.5673   -0.1456   -0.8942   C.ar      1 RES1   0.0000
    23 C21      -2.9194   -0.0685   -2.2272   C.ar      1 RES1   0.0000
    24 C22      -3.6680    0.2372   -3.3634   C.ar      1 RES1   0.0000
    25 C23      -3.0086    0.4560   -4.5648   C.ar      1 RES1   0.0000
    26 C24      -1.6298    0.3240   -4.5988   C.ar      1 RES1   0.0000
    27 C25      -0.9590   -0.0038   -3.4332   C.ar      1 RES1   0.0000
    28 N2       -1.5718   -0.1815   -2.2523   N.ar      1 RES1   0.0000
    29 N3       -2.8368    0.3495    0.1240   N.ar      1 RES1   0.0000
    30 N4       -1.2998    0.5004    2.2504   N.ar      1 RES1   0.0000
    31 N5        0.8667   -0.8423    1.7275   N.ar      1 RES1   0.0000
    32 N6        0.6536   -1.9866    1.0390   N.ar      1 RES1   0.0000
    33 C26      -0.0045   -2.9876    1.5879   C.ar      1 RES1   0.0000
    34 H1       -1.2314   -4.4306   -1.2570   H         1 RES1   0.0000
    35 H2       -0.1317   -3.0511   -1.2000   H         1 RES1   0.0000
    36 H3       -1.7576   -2.9473   -0.4425   H         1 RES1   0.0000
    37 H4        0.8352   -5.7317   -0.2101   H         1 RES1   0.0000
    38 H5        1.3481   -5.3248    1.4230   H         1 RES1   0.0000
    39 H6        1.7317   -4.2436    0.0858   H         1 RES1   0.0000
    40 H7       -1.3470   -6.0754    0.8761   H         1 RES1   0.0000
    41 H8       -2.3956   -4.6911    1.1226   H         1 RES1   0.0000
    42 H9       -0.2582   -5.7190    3.0349   H         1 RES1   0.0000
    43 H10      -1.9856   -5.9093    3.2465   H         1 RES1   0.0000
    44 H11      -3.4224   -3.7720    3.7957   H         1 RES1   0.0000
    45 H12      -2.8229   -2.9751    2.3294   H         1 RES1   0.0000
    46 H13      -2.5973   -2.2148    3.9041   H         1 RES1   0.0000
    47 H14      -1.7617   -4.9068    5.4270   H         1 RES1   0.0000
    48 H15      -1.2312   -3.2265    5.6361   H         1 RES1   0.0000
    49 H16      -0.0539   -4.4910    5.2854   H         1 RES1   0.0000
    50 H17      -0.0408    1.0438    5.3286   H         1 RES1   0.0000
    51 H18      -2.1619    2.3521    5.4767   H         1 RES1   0.0000
    52 H19      -3.8646    2.0934    3.7247   H         1 RES1   0.0000
    53 H20      -5.1309    0.2119    2.5661   H         1 RES1   0.0000
    54 H21      -6.4088   -0.9542    0.7463   H         1 RES1   0.0000
    55 H22      -5.3766   -1.1003   -1.5217   H         1 RES1   0.0000
    56 H23      -4.7406    0.3397   -3.3005   H         1 RES1   0.0000
    57 H24      -3.5600    0.7150   -5.4543   H         1 RES1   0.0000
    58 H25      -1.0800    0.4783   -5.5133   H         1 RES1   0.0000
    59 H26       0.1148   -0.1490   -3.4400   H         1 RES1   0.0000
    60 O1        1.4998    1.7127    0.5689   O.3       1 RES1   0.0000
    61 H27       2.2446    1.3614    1.0845   H         1 RES1   0.0000
    62 H28       1.6026    2.6746    0.6289   H         1 RES1   0.0000
    63 O2        1.8228   -0.4054   -1.3780   O.3       1 RES1   0.0000
    64 H29       2.5447    0.2101   -1.5802   H         1 RES1   0.0000
    65 H30       2.2407   -1.2789   -1.4522   H         1 RES1   0.0000
    66 O3       -0.7541    2.4850   -1.0263   O.3       1 RES1   0.0000
    67 H31      -1.5051    3.0407   -0.7612   H         1 RES1   0.0000
    68 H32      -0.3242    3.0071   -1.7201   H         1 RES1   0.0000
@<TRIPOS>BOND
     1     1    11    1
     2     1    28    1
     3     1    29    1
     4     1    30    1
     5     1    31    1
     6     1    32    1
     7     1    60    1
     8     1    63    1
     9     1    66    1
    10     2     3    1
    11     2    34    1
    12     2    35    1
    13     2    36    1
    14     3     4    1
    15     3     5    1
    16     3    33    1
    17     4    37    1
    18     4    38    1
    19     4    39    1
    20     5     6    1
    21     5    40    1
    22     5    41    1
    23     6     7    1
    24     6    42    1
    25     6    43    1
    26     7     8    1
    27     7     9    1
    28     7    10    1
    29     8    44    1
    30     8    45    1
    31     8    46    1
    32     9    47    1
    33     9    48    1
    34     9    49    1
    35    10    11    1
    36    10    33    2
    37    11    12    2
    38    12    13    1
    39    12    31    1
    40    13    14    1
    41    13    30    2
    42    14    15    2
    43    14    50    1
    44    15    16    1
    45    15    51    1
    46    16    17    2
    47    16    52    1
    48    17    18    1
    49    17    30    1
    50    18    19    1
    51    18    29    2
    52    19    20    2
    53    19    53    1
    54    20    21    1
    55    20    54    1
    56    21    22    2
    57    21    55    1
    58    22    23    1
    59    22    29    1
    60    23    24    1
    61    23    28    2
    62    24    25    2
    63    24    56    1
    64    25    26    1
    65    25    57    1
    66    26    27    2
    67    26    58    1
    68    27    28    1
    69    27    59    1
    70    31    32    2
    71    32    33    1
    72    60    61    1
    73    60    62    1
    74    63    64    1
    75    63    65    1
    76    66    67    1
    77    66    68    1
@<TRIPOS>SUBSTRUCTURE
     1 RES1       68 GROUP             0 ****  ****    0  
