@<TRIPOS>MOLECULE
am_c3_9H2O_c0_0_nunpairedes_0_charge_3 Charge: 3 Unpaired_Electrons: 6 XTB_Unpaired_Electrons: 0 XTB_Charge: 3
   160   171     1     0     0
SMALL
NoCharges
****
Generated from Architector

@<TRIPOS>ATOM
     1 Eu1      -0.0587    0.0915    0.0200   Eu        1 RES1   0.0000
     2 C1        3.8333   -1.6707   -5.1049   C.3       1 RES1   0.0000
     3 C2        2.3737   -1.2492   -5.2326   C.3       1 RES1   0.0000
     4 C3        1.4747   -2.0949   -4.3292   C.3       1 RES1   0.0000
     5 C4       -0.0121   -1.7582   -4.5210   C.3       1 RES1   0.0000
     6 N1       -0.9365   -2.4630   -3.6199   N.am      1 RES1   0.0000
     7 C5       -1.6789   -3.5862   -4.1808   C.3       1 RES1   0.0000
     8 C6       -1.4642   -4.9509   -3.5104   C.3       1 RES1   0.0000
     9 C7       -0.0256   -5.4681   -3.5664   C.3       1 RES1   0.0000
    10 C8        0.8351   -4.9527   -2.4177   C.3       1 RES1   0.0000
    11 C9       -1.0744   -1.9045   -2.4179   C.2       1 RES1   0.0000
    12 O1       -0.3144   -0.9486   -2.1156   O.2       1 RES1   0.0000
    13 C10      -2.1411   -2.2072   -1.3933   C.ar      1 RES1   0.0000
    14 C11      -3.2782   -3.0197   -1.5176   C.ar      1 RES1   0.0000
    15 C12      -4.2087   -3.0187   -0.5027   C.ar      1 RES1   0.0000
    16 C13      -4.0609   -2.1739    0.6051   C.ar      1 RES1   0.0000
    17 C14      -5.0367   -2.1030    1.6397   C.ar      1 RES1   0.0000
    18 C15      -4.8601   -1.2686    2.6899   C.ar      1 RES1   0.0000
    19 C16      -3.7196   -0.4173    2.7582   C.ar      1 RES1   0.0000
    20 C17      -3.4779    0.4333    3.8454   C.ar      1 RES1   0.0000
    21 C18      -2.3195    1.1772    3.9135   C.ar      1 RES1   0.0000
    22 C19      -1.4498    1.1916    2.8093   C.ar      1 RES1   0.0000
    23 C20      -0.0729    1.8294    2.6868   C.2       1 RES1   0.0000
    24 O2        0.6246    1.3987    1.7347   O.2       1 RES1   0.0000
    25 N2        0.4447    2.7364    3.5146   N.am      1 RES1   0.0000
    26 C21      -0.1497    3.2947    4.7270   C.3       1 RES1   0.0000
    27 C22      -1.3812    4.1979    4.5486   C.3       1 RES1   0.0000
    28 C23      -1.1569    5.4736    3.7392   C.3       1 RES1   0.0000
    29 C24      -1.1871    5.2275    2.2375   C.3       1 RES1   0.0000
    30 C25       1.8757    3.0508    3.3452   C.3       1 RES1   0.0000
    31 C26       2.1907    4.5317    3.0960   C.3       1 RES1   0.0000
    32 C27       3.6919    4.8311    3.0755   C.3       1 RES1   0.0000
    33 C28       4.4510    4.2037    1.9145   C.3       1 RES1   0.0000
    34 N3       -1.7287    0.4589    1.7292   N.ar      1 RES1   0.0000
    35 C29      -2.7573   -0.3996    1.7194   C.ar      1 RES1   0.0000
    36 C30      -2.9029   -1.3552    0.6356   C.ar      1 RES1   0.0000
    37 N4       -1.9685   -1.4326   -0.3184   N.ar      1 RES1   0.0000
    38 H1        4.4694   -0.9794   -5.6484   H         1 RES1   0.0000
    39 H2        3.9867   -2.6657   -5.5128   H         1 RES1   0.0000
    40 H3        4.1452   -1.6817   -4.0629   H         1 RES1   0.0000
    41 H4        2.0645   -1.3621   -6.2716   H         1 RES1   0.0000
    42 H5        2.2708   -0.1940   -4.9679   H         1 RES1   0.0000
    43 H6        1.7509   -1.9150   -3.2862   H         1 RES1   0.0000
    44 H7        1.6508   -3.1463   -4.5578   H         1 RES1   0.0000
    45 H8       -0.3063   -1.9791   -5.5491   H         1 RES1   0.0000
    46 H9       -0.1549   -0.6849   -4.3392   H         1 RES1   0.0000
    47 H10      -1.3635   -3.6773   -5.2219   H         1 RES1   0.0000
    48 H11      -2.7434   -3.3249   -4.2153   H         1 RES1   0.0000
    49 H12      -2.1093   -5.6437   -4.0537   H         1 RES1   0.0000
    50 H13      -1.7872   -4.9391   -2.4678   H         1 RES1   0.0000
    51 H14       0.4267   -5.2093   -4.5236   H         1 RES1   0.0000
    52 H15      -0.0512   -6.5560   -3.5123   H         1 RES1   0.0000
    53 H16       0.9195   -3.8677   -2.4279   H         1 RES1   0.0000
    54 H17       1.8322   -5.3795   -2.4878   H         1 RES1   0.0000
    55 H18       0.4095   -5.2526   -1.4605   H         1 RES1   0.0000
    56 H19      -3.4755   -3.6336   -2.3768   H         1 RES1   0.0000
    57 H20      -5.0820   -3.6470   -0.5704   H         1 RES1   0.0000
    58 H21      -5.9135   -2.7289    1.5559   H         1 RES1   0.0000
    59 H22      -5.5771   -1.2198    3.4951   H         1 RES1   0.0000
    60 H23      -4.1881    0.4598    4.6555   H         1 RES1   0.0000
    61 H24      -2.1237    1.7101    4.8256   H         1 RES1   0.0000
    62 H25       0.6307    3.8851    5.2120   H         1 RES1   0.0000
    63 H26      -0.3633    2.4743    5.4243   H         1 RES1   0.0000
    64 H27      -1.6919    4.4747    5.5578   H         1 RES1   0.0000
    65 H28      -2.2035    3.6569    4.0790   H         1 RES1   0.0000
    66 H29      -0.2193    5.9477    4.0232   H         1 RES1   0.0000
    67 H30      -1.9557    6.1719    3.9864   H         1 RES1   0.0000
    68 H31      -0.4070    4.5363    1.9289   H         1 RES1   0.0000
    69 H32      -1.0458    6.1713    1.7201   H         1 RES1   0.0000
    70 H33      -2.1482    4.8157    1.9305   H         1 RES1   0.0000
    71 H34       2.2550    2.4553    2.5107   H         1 RES1   0.0000
    72 H35       2.3695    2.7196    4.2659   H         1 RES1   0.0000
    73 H36       1.7569    5.1374    3.8917   H         1 RES1   0.0000
    74 H37       1.7536    4.8556    2.1493   H         1 RES1   0.0000
    75 H38       4.1411    4.5164    4.0172   H         1 RES1   0.0000
    76 H39       3.7950    5.9143    3.0083   H         1 RES1   0.0000
    77 H40       4.4782    3.1186    1.9896   H         1 RES1   0.0000
    78 H41       5.4748    4.5680    1.9211   H         1 RES1   0.0000
    79 H42       3.9965    4.4821    0.9651   H         1 RES1   0.0000
    80 C31      -2.1348   -4.7534    1.7872   C.3       1 RES1   0.0000
    81 C32      -1.3891   -5.7766    2.6371   C.3       1 RES1   0.0000
    82 C33       0.1327   -5.5967    2.6289   C.3       1 RES1   0.0000
    83 C34       0.6812   -4.5222    3.5841   C.3       1 RES1   0.0000
    84 N5        0.2721   -3.1636    3.2571   N.am      1 RES1   0.0000
    85 C35      -0.4116   -2.4233    4.3310   C.3       1 RES1   0.0000
    86 C36      -1.7513   -2.9756    4.8295   C.3       1 RES1   0.0000
    87 C37      -2.2736   -2.1788    6.0298   C.3       1 RES1   0.0000
    88 C38      -1.4270   -2.2995    7.2916   C.3       1 RES1   0.0000
    89 C39       0.5651   -2.4655    2.1583   C.2       1 RES1   0.0000
    90 O3       -0.0293   -1.3815    1.9529   O.2       1 RES1   0.0000
    91 C40       1.6702   -2.7328    1.1651   C.ar      1 RES1   0.0000
    92 C41       2.6222   -3.7615    1.1387   C.ar      1 RES1   0.0000
    93 C42       3.7230   -3.6294    0.3201   C.ar      1 RES1   0.0000
    94 C43       3.8935   -2.4828   -0.4673   C.ar      1 RES1   0.0000
    95 C44       5.0797   -2.2334   -1.2145   C.ar      1 RES1   0.0000
    96 C45       5.2125   -1.0926   -1.9316   C.ar      1 RES1   0.0000
    97 C46       4.1416   -0.1531   -2.0075   C.ar      1 RES1   0.0000
    98 C47       4.2293    1.0230   -2.7665   C.ar      1 RES1   0.0000
    99 C48       3.1638    1.8921   -2.8304   C.ar      1 RES1   0.0000
   100 C49       2.0014    1.5921   -2.1068   C.ar      1 RES1   0.0000
   101 C50       0.8211    2.5053   -1.9034   C.2       1 RES1   0.0000
   102 O4        0.1612    2.3033   -0.8535   O.2       1 RES1   0.0000
   103 N6        0.4913    3.5335   -2.6878   N.am      1 RES1   0.0000
   104 C51       0.7851    3.7070   -4.1035   C.3       1 RES1   0.0000
   105 C52       0.1159    2.6660   -5.0170   C.3       1 RES1   0.0000
   106 C53      -1.3863    2.8331   -5.2810   C.3       1 RES1   0.0000
   107 C54      -2.2926    2.3062   -4.1752   C.3       1 RES1   0.0000
   108 C55      -0.4492    4.4882   -2.0915   C.3       1 RES1   0.0000
   109 C56       0.1676    5.3339   -0.9706   C.3       1 RES1   0.0000
   110 C57       1.2281    6.3537   -1.3866   C.3       1 RES1   0.0000
   111 C58       2.5602    5.7345   -1.7894   C.3       1 RES1   0.0000
   112 N7        1.9224    0.5032   -1.3425   N.ar      1 RES1   0.0000
   113 C59       2.9363   -0.3708   -1.2984   C.ar      1 RES1   0.0000
   114 C60       2.8276   -1.5498   -0.4657   C.ar      1 RES1   0.0000
   115 N8        1.7592   -1.6962    0.3232   N.ar      1 RES1   0.0000
   116 H43      -3.2020   -4.9575    1.8268   H         1 RES1   0.0000
   117 H44      -1.8187   -4.8145    0.7457   H         1 RES1   0.0000
   118 H45      -1.9653   -3.7369    2.1357   H         1 RES1   0.0000
   119 H46      -1.6149   -6.7694    2.2461   H         1 RES1   0.0000
   120 H47      -1.7637   -5.7507    3.6590   H         1 RES1   0.0000
   121 H48       0.4510   -5.3941    1.6035   H         1 RES1   0.0000
   122 H49       0.5890   -6.5382    2.9407   H         1 RES1   0.0000
   123 H50       1.7746   -4.5810    3.6493   H         1 RES1   0.0000
   124 H51       0.3111   -4.7345    4.5893   H         1 RES1   0.0000
   125 H52      -0.5695   -1.4002    3.9758   H         1 RES1   0.0000
   126 H53       0.2956   -2.3976    5.1674   H         1 RES1   0.0000
   127 H54      -1.6437   -4.0171    5.1313   H         1 RES1   0.0000
   128 H55      -2.4995   -2.9322    4.0325   H         1 RES1   0.0000
   129 H56      -3.2707   -2.5571    6.2541   H         1 RES1   0.0000
   130 H57      -2.3668   -1.1265    5.7542   H         1 RES1   0.0000
   131 H58      -1.3080   -3.3408    7.5811   H         1 RES1   0.0000
   132 H59      -1.9264   -1.7814    8.1058   H         1 RES1   0.0000
   133 H60      -0.4412   -1.8543    7.1737   H         1 RES1   0.0000
   134 H61       2.5304   -4.6553    1.7276   H         1 RES1   0.0000
   135 H62       4.4756   -4.4015    0.2992   H         1 RES1   0.0000
   136 H63       5.8701   -2.9683   -1.1823   H         1 RES1   0.0000
   137 H64       6.1201   -0.8744   -2.4753   H         1 RES1   0.0000
   138 H65       5.1432    1.2457   -3.2934   H         1 RES1   0.0000
   139 H66       3.2676    2.7959   -3.4033   H         1 RES1   0.0000
   140 H67       1.8599    3.7059   -4.2992   H         1 RES1   0.0000
   141 H68       0.4304    4.7015   -4.3784   H         1 RES1   0.0000
   142 H69       0.3219    1.6612   -4.6342   H         1 RES1   0.0000
   143 H70       0.6222    2.7670   -5.9768   H         1 RES1   0.0000
   144 H71      -1.6204    2.2915   -6.1980   H         1 RES1   0.0000
   145 H72      -1.6207    3.8802   -5.4702   H         1 RES1   0.0000
   146 H73      -2.0741    1.2530   -3.9881   H         1 RES1   0.0000
   147 H74      -3.3323    2.3886   -4.4821   H         1 RES1   0.0000
   148 H75      -2.1613    2.8923   -3.2700   H         1 RES1   0.0000
   149 H76      -1.2923    3.9363   -1.6572   H         1 RES1   0.0000
   150 H77      -0.8312    5.1431   -2.8723   H         1 RES1   0.0000
   151 H78       0.5865    4.6608   -0.2208   H         1 RES1   0.0000
   152 H79      -0.6703    5.8711   -0.5215   H         1 RES1   0.0000
   153 H80       1.3950    7.0111   -0.5313   H         1 RES1   0.0000
   154 H81       0.8500    6.9727   -2.1999   H         1 RES1   0.0000
   155 H82       2.9129    5.0511   -1.0181   H         1 RES1   0.0000
   156 H83       3.3097    6.5097   -1.9206   H         1 RES1   0.0000
   157 H84       2.4737    5.1934   -2.7262   H         1 RES1   0.0000
   158 O5       -2.2717    1.1726   -0.9889   O.3       1 RES1   0.0000
   159 H85      -2.2638    1.3487   -1.9442   H         1 RES1   0.0000
   160 H86      -2.3863    2.0363   -0.5649   H         1 RES1   0.0000
@<TRIPOS>BOND
     1     1    12    1
     2     1    24    1
     3     1    34    1
     4     1    37    1
     5     1    90    1
     6     1   102    1
     7     1   112    1
     8     1   115    1
     9     1   158    1
    10     2     3    1
    11     2    38    1
    12     2    39    1
    13     2    40    1
    14     3     4    1
    15     3    41    1
    16     3    42    1
    17     4     5    1
    18     4    43    1
    19     4    44    1
    20     5     6    1
    21     5    45    1
    22     5    46    1
    23     6     7    1
    24     6    11    1
    25     7     8    1
    26     7    47    1
    27     7    48    1
    28     8     9    1
    29     8    49    1
    30     8    50    1
    31     9    10    1
    32     9    51    1
    33     9    52    1
    34    10    53    1
    35    10    54    1
    36    10    55    1
    37    11    12    2
    38    11    13    1
    39    13    14    1
    40    13    37    2
    41    14    15    2
    42    14    56    1
    43    15    16    1
    44    15    57    1
    45    16    17    1
    46    16    36    2
    47    17    18    2
    48    17    58    1
    49    18    19    1
    50    18    59    1
    51    19    20    1
    52    19    35    2
    53    20    21    2
    54    20    60    1
    55    21    22    1
    56    21    61    1
    57    22    23    1
    58    22    34    2
    59    23    24    2
    60    23    25    1
    61    25    26    1
    62    25    30    1
    63    26    27    1
    64    26    62    1
    65    26    63    1
    66    27    28    1
    67    27    64    1
    68    27    65    1
    69    28    29    1
    70    28    66    1
    71    28    67    1
    72    29    68    1
    73    29    69    1
    74    29    70    1
    75    30    31    1
    76    30    71    1
    77    30    72    1
    78    31    32    1
    79    31    73    1
    80    31    74    1
    81    32    33    1
    82    32    75    1
    83    32    76    1
    84    33    77    1
    85    33    78    1
    86    33    79    1
    87    34    35    1
    88    35    36    1
    89    36    37    1
    90    80    81    1
    91    80   116    1
    92    80   117    1
    93    80   118    1
    94    81    82    1
    95    81   119    1
    96    81   120    1
    97    82    83    1
    98    82   121    1
    99    82   122    1
   100    83    84    1
   101    83   123    1
   102    83   124    1
   103    84    85    1
   104    84    89    1
   105    85    86    1
   106    85   125    1
   107    85   126    1
   108    86    87    1
   109    86   127    1
   110    86   128    1
   111    87    88    1
   112    87   129    1
   113    87   130    1
   114    88   131    1
   115    88   132    1
   116    88   133    1
   117    89    90    2
   118    89    91    1
   119    91    92    1
   120    91   115    2
   121    92    93    2
   122    92   134    1
   123    93    94    1
   124    93   135    1
   125    94    95    1
   126    94   114    2
   127    95    96    2
   128    95   136    1
   129    96    97    1
   130    96   137    1
   131    97    98    1
   132    97   113    2
   133    98    99    2
   134    98   138    1
   135    99   100    1
   136    99   139    1
   137   100   101    1
   138   100   112    2
   139   101   102    2
   140   101   103    1
   141   103   104    1
   142   103   108    1
   143   104   105    1
   144   104   140    1
   145   104   141    1
   146   105   106    1
   147   105   142    1
   148   105   143    1
   149   106   107    1
   150   106   144    1
   151   106   145    1
   152   107   146    1
   153   107   147    1
   154   107   148    1
   155   108   109    1
   156   108   149    1
   157   108   150    1
   158   109   110    1
   159   109   151    1
   160   109   152    1
   161   110   111    1
   162   110   153    1
   163   110   154    1
   164   111   155    1
   165   111   156    1
   166   111   157    1
   167   112   113    1
   168   113   114    1
   169   114   115    1
   170   158   159    1
   171   158   160    1
@<TRIPOS>SUBSTRUCTURE
     1 RES1      160 GROUP             0 ****  ****    0  
