@<TRIPOS>MOLECULE
cn9_YICLED_0_nunpairedes_0_charge_3 Charge: 3 Unpaired_Electrons: 6 XTB_Unpaired_Electrons: 0 XTB_Charge: 3
   325   333     1     0     0
SMALL
NoCharges
****
Generated from Architector

@<TRIPOS>ATOM
     1 Eu1       0.1739    0.0397   -0.7278   Eu        1 RES1   0.0000
     2 C1        1.7614   -6.1613    4.1202   C.3       1 RES1   0.0000
     3 C2        0.6165   -6.0893    3.1115   C.3       1 RES1   0.0000
     4 C3       -0.3996   -7.1906    3.4100   C.3       1 RES1   0.0000
     5 C4       -0.0473   -4.7043    3.1500   C.3       1 RES1   0.0000
     6 C5       -0.8622   -4.4285    1.8798   C.3       1 RES1   0.0000
     7 N1       -1.9245   -3.4587    2.0973   N.am      1 RES1   0.0000
     8 C6       -3.1525   -3.9486    2.7223   C.3       1 RES1   0.0000
     9 C7       -3.2702   -3.7732    4.2451   C.3       1 RES1   0.0000
    10 C8       -4.7158   -3.9740    4.7374   C.3       1 RES1   0.0000
    11 C9       -4.7302   -4.1614    6.2540   C.3       1 RES1   0.0000
    12 C10      -5.6307   -2.8070    4.3675   C.3       1 RES1   0.0000
    13 C11      -1.8398   -2.2484    1.5455   C.2       1 RES1   0.0000
    14 O1       -0.9586   -1.8877    0.7531   O.2       1 RES1   0.0000
    15 C12      -2.9085   -1.2333    1.9653   C.3       1 RES1   0.0000
    16 O2       -2.3791    0.0721    1.9070   O.3       1 RES1   0.0000
    17 C13      -1.6510    0.4804    3.0501   C.3       1 RES1   0.0000
    18 C14      -0.1949    0.7991    2.6956   C.2       1 RES1   0.0000
    19 O3        0.3322    0.3472    1.6757   O.2       1 RES1   0.0000
    20 N2        0.4783    1.5726    3.5456   N.am      1 RES1   0.0000
    21 C15       0.0379    2.2536    4.7491   C.3       1 RES1   0.0000
    22 C16       0.6099    1.6817    6.0277   C.ar      1 RES1   0.0000
    23 C17       0.8874    2.5449    7.0794   C.ar      1 RES1   0.0000
    24 C18       1.3316    2.0476    8.2888   C.ar      1 RES1   0.0000
    25 C19       1.4851    0.6844    8.4637   C.ar      1 RES1   0.0000
    26 C20       1.2089   -0.1896    7.4221   C.ar      1 RES1   0.0000
    27 C21       1.3764   -1.6660    7.6014   C.3       1 RES1   0.0000
    28 N3        2.4048   -2.1758    6.7109   N.am      1 RES1   0.0000
    29 C22       2.6511   -3.4931    6.6038   C.2       1 RES1   0.0000
    30 O4        1.9630   -4.3533    7.1001   O.2       1 RES1   0.0000
    31 C23       3.9269   -3.8000    5.8099   C.3       1 RES1   0.0000
    32 O5        3.7398   -3.4331    4.4525   O.3       1 RES1   0.0000
    33 C24       4.9388   -3.2316    3.7403   C.3       1 RES1   0.0000
    34 C25       5.1007   -1.7401    3.4306   C.2       1 RES1   0.0000
    35 O6        4.1261   -0.9970    3.5000   O.2       1 RES1   0.0000
    36 N4        6.3134   -1.2722    3.0932   N.am      1 RES1   0.0000
    37 C26       6.4599    0.1727    2.9410   C.3       1 RES1   0.0000
    38 C27       6.2991    0.9208    4.2672   C.3       1 RES1   0.0000
    39 C28       6.0233    2.4140    4.0502   C.3       1 RES1   0.0000
    40 C29       5.5316    3.0441    5.3523   C.3       1 RES1   0.0000
    41 C30       7.2664    3.1451    3.5502   C.3       1 RES1   0.0000
    42 C31       7.4634   -2.0766    2.7363   C.3       1 RES1   0.0000
    43 C32       7.6143   -2.1863    1.2072   C.3       1 RES1   0.0000
    44 C33       6.8955   -3.3885    0.5761   C.3       1 RES1   0.0000
    45 C34       7.6112   -4.6914    0.9215   C.3       1 RES1   0.0000
    46 C35       6.8257   -3.2309   -0.9458   C.3       1 RES1   0.0000
    47 C36       0.7745    0.3164    6.2032   C.ar      1 RES1   0.0000
    48 H1        2.2236   -7.1455    4.0864   H         1 RES1   0.0000
    49 H2        1.4007   -5.9880    5.1328   H         1 RES1   0.0000
    50 H3        2.5167   -5.4120    3.8952   H         1 RES1   0.0000
    51 H4        1.0221   -6.2453    2.1024   H         1 RES1   0.0000
    52 H5       -0.7636   -7.1016    4.4314   H         1 RES1   0.0000
    53 H6        0.0635   -8.1681    3.3055   H         1 RES1   0.0000
    54 H7       -1.2507   -7.1522    2.7328   H         1 RES1   0.0000
    55 H8        0.7158   -3.9332    3.2783   H         1 RES1   0.0000
    56 H9       -0.6944   -4.6645    4.0242   H         1 RES1   0.0000
    57 H10      -1.3202   -5.3549    1.5220   H         1 RES1   0.0000
    58 H11      -0.2099   -4.0241    1.1041   H         1 RES1   0.0000
    59 H12      -3.2136   -5.0167    2.5018   H         1 RES1   0.0000
    60 H13      -3.9972   -3.4646    2.2278   H         1 RES1   0.0000
    61 H14      -2.9179   -2.7870    4.5593   H         1 RES1   0.0000
    62 H15      -2.6446   -4.5168    4.7400   H         1 RES1   0.0000
    63 H16      -5.1110   -4.8844    4.2760   H         1 RES1   0.0000
    64 H17      -4.3349   -3.2802    6.7552   H         1 RES1   0.0000
    65 H18      -4.1401   -5.0254    6.5487   H         1 RES1   0.0000
    66 H19      -5.7495   -4.3141    6.5974   H         1 RES1   0.0000
    67 H20      -5.2674   -1.8824    4.8154   H         1 RES1   0.0000
    68 H21      -6.6272   -2.9963    4.7579   H         1 RES1   0.0000
    69 H22      -5.7194   -2.6792    3.2896   H         1 RES1   0.0000
    70 H23      -3.3086   -1.4350    2.9623   H         1 RES1   0.0000
    71 H24      -3.7328   -1.2529    1.2468   H         1 RES1   0.0000
    72 H25      -1.6494   -0.2881    3.8333   H         1 RES1   0.0000
    73 H26      -2.1617    1.3670    3.4398   H         1 RES1   0.0000
    74 H27       1.4465    1.7265    3.2873   H         1 RES1   0.0000
    75 H28      -1.0514    2.2143    4.8255   H         1 RES1   0.0000
    76 H29       0.3251    3.3082    4.6672   H         1 RES1   0.0000
    77 H30       0.7476    3.6070    6.9512   H         1 RES1   0.0000
    78 H31       1.5598    2.7197    9.0982   H         1 RES1   0.0000
    79 H32       1.8070    0.3042    9.4187   H         1 RES1   0.0000
    80 H33       0.4460   -2.2043    7.3904   H         1 RES1   0.0000
    81 H34       1.6561   -1.8953    8.6343   H         1 RES1   0.0000
    82 H35       3.0104   -1.5216    6.2424   H         1 RES1   0.0000
    83 H36       4.1442   -4.8739    5.8901   H         1 RES1   0.0000
    84 H37       4.7499   -3.2257    6.2565   H         1 RES1   0.0000
    85 H38       4.8709   -3.7971    2.8025   H         1 RES1   0.0000
    86 H39       5.7920   -3.6065    4.3105   H         1 RES1   0.0000
    87 H40       5.6911    0.5344    2.2520   H         1 RES1   0.0000
    88 H41       7.4431    0.3667    2.5156   H         1 RES1   0.0000
    89 H42       7.1892    0.7902    4.8856   H         1 RES1   0.0000
    90 H43       5.4489    0.4953    4.7996   H         1 RES1   0.0000
    91 H44       5.2249    2.5139    3.2995   H         1 RES1   0.0000
    92 H45       6.2761    2.9314    6.1363   H         1 RES1   0.0000
    93 H46       4.6092    2.5717    5.6852   H         1 RES1   0.0000
    94 H47       5.3413    4.1059    5.2153   H         1 RES1   0.0000
    95 H48       7.6105    2.7464    2.5984   H         1 RES1   0.0000
    96 H49       8.0740    3.0477    4.2711   H         1 RES1   0.0000
    97 H50       7.0557    4.2036    3.4185   H         1 RES1   0.0000
    98 H51       7.3799   -3.0655    3.1804   H         1 RES1   0.0000
    99 H52       8.3525   -1.6016    3.1578   H         1 RES1   0.0000
   100 H53       8.6744   -2.2487    0.9611   H         1 RES1   0.0000
   101 H54       7.2286   -1.2668    0.7593   H         1 RES1   0.0000
   102 H55       5.8711   -3.4272    0.9700   H         1 RES1   0.0000
   103 H56       8.6070   -4.6895    0.4863   H         1 RES1   0.0000
   104 H57       7.0668   -5.5458    0.5260   H         1 RES1   0.0000
   105 H58       7.7105   -4.8220    1.9959   H         1 RES1   0.0000
   106 H59       7.8216   -3.0869   -1.3591   H         1 RES1   0.0000
   107 H60       6.2130   -2.3756   -1.2312   H         1 RES1   0.0000
   108 H61       6.4028   -4.1234   -1.4052   H         1 RES1   0.0000
   109 H62       0.5759   -0.3661    5.3888   H         1 RES1   0.0000
   110 C37      -2.8248    7.3435    2.2047   C.3       1 RES1   0.0000
   111 C38      -3.1639    5.8969    2.5668   C.3       1 RES1   0.0000
   112 C39      -4.6664    5.7873    2.8157   C.3       1 RES1   0.0000
   113 C40      -2.7066    4.9741    1.4238   C.3       1 RES1   0.0000
   114 C41      -2.6363    3.4769    1.7707   C.3       1 RES1   0.0000
   115 N5       -3.3092    2.6270    0.7896   N.am      1 RES1   0.0000
   116 C42      -4.7659    2.5874    0.8800   C.3       1 RES1   0.0000
   117 C43      -5.5255    3.3355   -0.2234   C.3       1 RES1   0.0000
   118 C44      -7.0457    3.0819   -0.1894   C.3       1 RES1   0.0000
   119 C45      -7.6845    3.7613   -1.3991   C.3       1 RES1   0.0000
   120 C46      -7.4166    1.5979   -0.2094   C.3       1 RES1   0.0000
   121 C47      -2.5910    1.8172    0.0117   C.2       1 RES1   0.0000
   122 O7       -1.3474    1.7883    0.0184   O.2       1 RES1   0.0000
   123 C48      -3.3371    0.9140   -0.9797   C.3       1 RES1   0.0000
   124 O8       -2.3736    0.1965   -1.7265   O.3       1 RES1   0.0000
   125 C49      -2.8530   -0.3025   -2.9762   C.3       1 RES1   0.0000
   126 C50      -1.6158   -0.8862   -3.6647   C.2       1 RES1   0.0000
   127 O9       -0.6345   -1.0956   -2.9506   O.2       1 RES1   0.0000
   128 N6       -1.5504   -1.1421   -4.9743   N.am      1 RES1   0.0000
   129 C51      -2.5180   -1.1690   -6.0708   C.3       1 RES1   0.0000
   130 C52      -1.9565   -0.5171   -7.3256   C.ar      1 RES1   0.0000
   131 C53      -1.4028   -1.2787   -8.3473   C.ar      1 RES1   0.0000
   132 C54      -0.8496   -0.6501   -9.4525   C.ar      1 RES1   0.0000
   133 C55      -0.8389    0.7321   -9.5612   C.ar      1 RES1   0.0000
   134 C56      -1.4255    1.5179   -8.5733   C.ar      1 RES1   0.0000
   135 C57      -1.5115    3.0281   -8.7217   C.3       1 RES1   0.0000
   136 N7       -0.4239    3.7638   -8.0667   N.am      1 RES1   0.0000
   137 C58      -0.6425    4.9026   -7.3503   C.2       1 RES1   0.0000
   138 O10      -1.7501    5.3020   -7.0769   O.2       1 RES1   0.0000
   139 C59       0.6239    5.6246   -6.8446   C.3       1 RES1   0.0000
   140 O11       0.4386    5.9175   -5.4702   O.3       1 RES1   0.0000
   141 C60       1.5646    6.0172   -4.6243   C.3       1 RES1   0.0000
   142 C61       1.6555    4.6803   -3.8345   C.2       1 RES1   0.0000
   143 O12       0.8422    3.8373   -4.1658   O.2       1 RES1   0.0000
   144 N8        2.5381    4.4387   -2.8482   N.am      1 RES1   0.0000
   145 C62       2.5302    3.0998   -2.2090   C.3       1 RES1   0.0000
   146 C63       3.2282    2.0321   -3.0778   C.3       1 RES1   0.0000
   147 C64       3.2078    0.5269   -2.7021   C.3       1 RES1   0.0000
   148 C65       2.2374   -0.3103   -3.5380   C.3       1 RES1   0.0000
   149 C66       4.5493   -0.1751   -2.9356   C.3       1 RES1   0.0000
   150 C67       3.4173    5.4927   -2.3653   C.3       1 RES1   0.0000
   151 C68       3.5342    5.6262   -0.8434   C.3       1 RES1   0.0000
   152 C69       2.1986    5.7009   -0.0802   C.3       1 RES1   0.0000
   153 C70       1.9065    7.1188    0.4034   C.3       1 RES1   0.0000
   154 C71       2.2053    4.7497    1.1174   C.3       1 RES1   0.0000
   155 C72      -1.9862    0.8652   -7.4785   C.ar      1 RES1   0.0000
   156 H63      -3.1841    8.0168    2.9767   H         1 RES1   0.0000
   157 H64      -3.2946    7.6237    1.2647   H         1 RES1   0.0000
   158 H65      -1.7526    7.4914    2.1073   H         1 RES1   0.0000
   159 H66      -2.6239    5.6324    3.4854   H         1 RES1   0.0000
   160 H67      -5.2200    6.0142    1.9064   H         1 RES1   0.0000
   161 H68      -4.9659    6.5013    3.5773   H         1 RES1   0.0000
   162 H69      -4.9553    4.7974    3.1608   H         1 RES1   0.0000
   163 H70      -1.7158    5.2962    1.1020   H         1 RES1   0.0000
   164 H71      -3.3890    5.1136    0.5844   H         1 RES1   0.0000
   165 H72      -3.1091    3.3116    2.7447   H         1 RES1   0.0000
   166 H73      -1.5961    3.1485    1.8112   H         1 RES1   0.0000
   167 H74      -5.0400    3.0337    1.8382   H         1 RES1   0.0000
   168 H75      -5.0846    1.5448    0.9021   H         1 RES1   0.0000
   169 H76      -5.1533    3.0513   -1.2098   H         1 RES1   0.0000
   170 H77      -5.3599    4.4082   -0.1051   H         1 RES1   0.0000
   171 H78      -7.4453    3.5326    0.7238   H         1 RES1   0.0000
   172 H79      -7.3547    3.2836   -2.3179   H         1 RES1   0.0000
   173 H80      -7.4278    4.8150   -1.4527   H         1 RES1   0.0000
   174 H81      -8.7648    3.6721   -1.3551   H         1 RES1   0.0000
   175 H82      -6.8968    1.0783   -1.0124   H         1 RES1   0.0000
   176 H83      -8.4820    1.4887   -0.3935   H         1 RES1   0.0000
   177 H84      -7.2039    1.1072    0.7366   H         1 RES1   0.0000
   178 H85      -3.9576    1.5228   -1.6469   H         1 RES1   0.0000
   179 H86      -3.9857    0.2213   -0.4251   H         1 RES1   0.0000
   180 H87      -3.3181    0.5013   -3.5593   H         1 RES1   0.0000
   181 H88      -3.5874   -1.1029   -2.8008   H         1 RES1   0.0000
   182 H89      -0.6476   -1.5339   -5.2369   H         1 RES1   0.0000
   183 H90      -3.4376   -0.6784   -5.7564   H         1 RES1   0.0000
   184 H91      -2.7396   -2.2186   -6.2892   H         1 RES1   0.0000
   185 H92      -1.4149   -2.3573   -8.2906   H         1 RES1   0.0000
   186 H93      -0.4292   -1.2505  -10.2438   H         1 RES1   0.0000
   187 H94      -0.4062    1.1936  -10.4371   H         1 RES1   0.0000
   188 H95      -2.4330    3.4039   -8.2682   H         1 RES1   0.0000
   189 H96      -1.5313    3.2943   -9.7854   H         1 RES1   0.0000
   190 H97       0.5081    3.5792   -8.4075   H         1 RES1   0.0000
   191 H98       0.7233    6.5675   -7.4031   H         1 RES1   0.0000
   192 H99       1.5146    5.0142   -7.0165   H         1 RES1   0.0000
   193 H100      1.3593    6.8623   -3.9545   H         1 RES1   0.0000
   194 H101      2.4707    6.2372   -5.2009   H         1 RES1   0.0000
   195 H102      1.4876    2.8077   -2.0264   H         1 RES1   0.0000
   196 H103      3.0380    3.2003   -1.2571   H         1 RES1   0.0000
   197 H104      4.2598    2.3453   -3.1840   H         1 RES1   0.0000
   198 H105      2.7382    2.0807   -4.0335   H         1 RES1   0.0000
   199 H106      2.8859    0.4099   -1.6661   H         1 RES1   0.0000
   200 H107      2.6388   -0.4476   -4.5411   H         1 RES1   0.0000
   201 H108      1.2710    0.1676   -3.6179   H         1 RES1   0.0000
   202 H109      2.1318   -1.2868   -3.0646   H         1 RES1   0.0000
   203 H110      4.8924    0.0155   -3.9504   H         1 RES1   0.0000
   204 H111      4.3988   -1.2491   -2.8553   H         1 RES1   0.0000
   205 H112      5.3244    0.1045   -2.2368   H         1 RES1   0.0000
   206 H113      3.0386    6.4334   -2.7606   H         1 RES1   0.0000
   207 H114      4.4246    5.3394   -2.7636   H         1 RES1   0.0000
   208 H115      4.1088    6.5363   -0.6611   H         1 RES1   0.0000
   209 H116      4.1298    4.7985   -0.4580   H         1 RES1   0.0000
   210 H117      1.3915    5.3949   -0.7510   H         1 RES1   0.0000
   211 H118      2.6394    7.4215    1.1457   H         1 RES1   0.0000
   212 H119      0.9255    7.1661    0.8705   H         1 RES1   0.0000
   213 H120      1.9293    7.8317   -0.4162   H         1 RES1   0.0000
   214 H121      3.0646    4.9617    1.7510   H         1 RES1   0.0000
   215 H122      2.2346    3.7092    0.8000   H         1 RES1   0.0000
   216 H123      1.3053    4.8912    1.7114   H         1 RES1   0.0000
   217 H124     -2.5001    1.4385   -6.7319   H         1 RES1   0.0000
   218 C73       1.0089   -3.7511   -5.9828   C.3       1 RES1   0.0000
   219 C74       0.4258   -4.5075   -4.7868   C.3       1 RES1   0.0000
   220 C75       0.6171   -6.0088   -4.9883   C.3       1 RES1   0.0000
   221 C76       1.1310   -4.0262   -3.5110   C.3       1 RES1   0.0000
   222 C77       0.5707   -4.5958   -2.1998   C.3       1 RES1   0.0000
   223 N9        1.4655   -4.2836   -1.0828   N.am      1 RES1   0.0000
   224 C78       2.1386   -5.3977   -0.4402   C.3       1 RES1   0.0000
   225 C79       3.2611   -6.0059   -1.2857   C.3       1 RES1   0.0000
   226 C80       3.5759   -7.4534   -0.8799   C.3       1 RES1   0.0000
   227 C81       4.7086   -7.9901   -1.7494   C.3       1 RES1   0.0000
   228 C82       3.9492   -7.5657    0.5959   C.3       1 RES1   0.0000
   229 C83       1.5596   -3.0111   -0.7164   C.2       1 RES1   0.0000
   230 O13       0.8133   -2.1420   -1.1900   O.2       1 RES1   0.0000
   231 C84       2.6733   -2.5278    0.2177   C.3       1 RES1   0.0000
   232 O14       2.6480   -1.1160    0.0631   O.3       1 RES1   0.0000
   233 C85       3.8385   -0.4630    0.4846   C.3       1 RES1   0.0000
   234 C86       3.6243    1.0258    0.2669   C.2       1 RES1   0.0000
   235 O15       2.4591    1.4523    0.2953   O.2       1 RES1   0.0000
   236 N10       4.6546    1.8808    0.1462   N.am      1 RES1   0.0000
   237 C87       6.0420    1.7852   -0.3381   C.3       1 RES1   0.0000
   238 C88       6.3117    2.8562   -1.3925   C.ar      1 RES1   0.0000
   239 C89       6.5281    4.1707   -0.9816   C.ar      1 RES1   0.0000
   240 C90       6.7054    5.1788   -1.9145   C.ar      1 RES1   0.0000
   241 C91       6.5226    4.9261   -3.2695   C.ar      1 RES1   0.0000
   242 C92       6.2584    3.6330   -3.7095   C.ar      1 RES1   0.0000
   243 C93       5.8874    3.3317   -5.1558   C.3       1 RES1   0.0000
   244 N11       4.4416    3.3210   -5.4356   N.am      1 RES1   0.0000
   245 C94       3.7805    2.2081   -5.8667   C.2       1 RES1   0.0000
   246 O16       4.3474    1.1562   -6.0431   O.2       1 RES1   0.0000
   247 C95       2.2658    2.3715   -6.2096   C.3       1 RES1   0.0000
   248 O17       1.4449    1.5465   -5.3846   O.3       1 RES1   0.0000
   249 C96       0.0520    1.8198   -5.3131   C.3       1 RES1   0.0000
   250 C97      -0.5161    2.0856   -3.8844   C.2       1 RES1   0.0000
   251 O18      -0.0672    1.5201   -2.8656   O.2       1 RES1   0.0000
   252 N12      -1.6041    2.8850   -3.7779   N.am      1 RES1   0.0000
   253 C98      -1.7422    3.6195   -2.5184   C.3       1 RES1   0.0000
   254 C99      -1.1987    5.0556   -2.6090   C.3       1 RES1   0.0000
   255 C100     -2.0576    6.1408   -1.9603   C.3       1 RES1   0.0000
   256 C101     -1.2858    7.4568   -2.0350   C.3       1 RES1   0.0000
   257 C102     -3.4306    6.2959   -2.6091   C.3       1 RES1   0.0000
   258 C103     -2.3696    3.4577   -4.8823   C.3       1 RES1   0.0000
   259 C104     -3.9035    3.3733   -4.7236   C.3       1 RES1   0.0000
   260 C105     -4.5682    2.0934   -5.2680   C.3       1 RES1   0.0000
   261 C106     -4.9601    2.2660   -6.7348   C.3       1 RES1   0.0000
   262 C107     -5.8136    1.6927   -4.4725   C.3       1 RES1   0.0000
   263 C108      6.2797    2.6013   -2.7642   C.ar      1 RES1   0.0000
   264 H125      0.4977   -4.0256   -6.9010   H         1 RES1   0.0000
   265 H126      2.0618   -3.9928   -6.1001   H         1 RES1   0.0000
   266 H127      0.9369   -2.6712   -5.8626   H         1 RES1   0.0000
   267 H128     -0.6463   -4.2831   -4.7164   H         1 RES1   0.0000
   268 H129      1.6761   -6.2570   -4.9635   H         1 RES1   0.0000
   269 H130      0.2182   -6.3239   -5.9479   H         1 RES1   0.0000
   270 H131      0.1081   -6.5827   -4.2196   H         1 RES1   0.0000
   271 H132      1.0301   -2.9437   -3.4520   H         1 RES1   0.0000
   272 H133      2.1959   -4.2683   -3.5945   H         1 RES1   0.0000
   273 H134      0.4702   -5.6787   -2.2510   H         1 RES1   0.0000
   274 H135     -0.4071   -4.1443   -1.9999   H         1 RES1   0.0000
   275 H136      1.3870   -6.1748   -0.2656   H         1 RES1   0.0000
   276 H137      2.5166   -5.0744    0.5285   H         1 RES1   0.0000
   277 H138      4.1647   -5.4003   -1.1946   H         1 RES1   0.0000
   278 H139      2.9524   -6.0070   -2.3316   H         1 RES1   0.0000
   279 H140      2.6831   -8.0598   -1.0631   H         1 RES1   0.0000
   280 H141      5.6296   -7.4491   -1.5460   H         1 RES1   0.0000
   281 H142      4.4716   -7.8894   -2.8055   H         1 RES1   0.0000
   282 H143      4.8797   -9.0408   -1.5371   H         1 RES1   0.0000
   283 H144      4.7784   -6.9006    0.8257   H         1 RES1   0.0000
   284 H145      4.2576   -8.5823    0.8244   H         1 RES1   0.0000
   285 H146      3.1114   -7.3189    1.2430   H         1 RES1   0.0000
   286 H147      3.6396   -2.9237   -0.1276   H         1 RES1   0.0000
   287 H148      2.4920   -2.8150    1.2648   H         1 RES1   0.0000
   288 H149      4.7092   -0.8752   -0.0427   H         1 RES1   0.0000
   289 H150      3.9584   -0.5863    1.5760   H         1 RES1   0.0000
   290 H151      4.3514    2.8479    0.2253   H         1 RES1   0.0000
   291 H152      6.2197    0.7885   -0.7359   H         1 RES1   0.0000
   292 H153      6.7200    1.9415    0.5061   H         1 RES1   0.0000
   293 H154      6.5710    4.4076    0.0717   H         1 RES1   0.0000
   294 H155      6.9262    6.1855   -1.5896   H         1 RES1   0.0000
   295 H156      6.5886    5.7469   -3.9697   H         1 RES1   0.0000
   296 H157      6.2391    2.3341   -5.4279   H         1 RES1   0.0000
   297 H158      6.3554    4.0663   -5.8182   H         1 RES1   0.0000
   298 H159      3.9273    4.1666   -5.2459   H         1 RES1   0.0000
   299 H160      2.1757    2.0534   -7.2580   H         1 RES1   0.0000
   300 H161      1.9643    3.4125   -6.1084   H         1 RES1   0.0000
   301 H162     -0.4652    0.9528   -5.7302   H         1 RES1   0.0000
   302 H163     -0.1574    2.7021   -5.9113   H         1 RES1   0.0000
   303 H164     -1.1729    3.0701   -1.7704   H         1 RES1   0.0000
   304 H165     -2.7895    3.6167   -2.2194   H         1 RES1   0.0000
   305 H166     -1.0321    5.3272   -3.6490   H         1 RES1   0.0000
   306 H167     -0.2218    5.0828   -2.1235   H         1 RES1   0.0000
   307 H168     -2.1899    5.8888   -0.9071   H         1 RES1   0.0000
   308 H169     -1.1245    7.7468   -3.0698   H         1 RES1   0.0000
   309 H170     -0.3187    7.3619   -1.5466   H         1 RES1   0.0000
   310 H171     -1.8362    8.2504   -1.5398   H         1 RES1   0.0000
   311 H172     -3.3354    6.4114   -3.6858   H         1 RES1   0.0000
   312 H173     -3.9267    7.1801   -2.2136   H         1 RES1   0.0000
   313 H174     -4.0712    5.4396   -2.4040   H         1 RES1   0.0000
   314 H175     -2.0813    2.9678   -5.8011   H         1 RES1   0.0000
   315 H176     -2.1114    4.5117   -5.0048   H         1 RES1   0.0000
   316 H177     -4.3171    4.2288   -5.2614   H         1 RES1   0.0000
   317 H178     -4.1724    3.5059   -3.6768   H         1 RES1   0.0000
   318 H179     -3.8434    1.2755   -5.1940   H         1 RES1   0.0000
   319 H180     -5.7851    2.9666   -6.8146   H         1 RES1   0.0000
   320 H181     -5.2750    1.3198   -7.1688   H         1 RES1   0.0000
   321 H182     -4.1397    2.6570   -7.3278   H         1 RES1   0.0000
   322 H183     -6.5676    2.4707   -4.5478   H         1 RES1   0.0000
   323 H184     -5.5993    1.5217   -3.4162   H         1 RES1   0.0000
   324 H185     -6.2410    0.7793   -4.8825   H         1 RES1   0.0000
   325 H186      6.2710    1.5935   -3.1424   H         1 RES1   0.0000
@<TRIPOS>BOND
     1     1    14    1
     2     1    16    1
     3     1    19    1
     4     1   122    1
     5     1   124    1
     6     1   127    1
     7     1   230    1
     8     1   232    1
     9     1   235    1
    10     2     3    1
    11     2    48    1
    12     2    49    1
    13     2    50    1
    14     3     4    1
    15     3     5    1
    16     3    51    1
    17     4    52    1
    18     4    53    1
    19     4    54    1
    20     5     6    1
    21     5    55    1
    22     5    56    1
    23     6     7    1
    24     6    57    1
    25     6    58    1
    26     7     8    1
    27     7    13    1
    28     8     9    1
    29     8    59    1
    30     8    60    1
    31     9    10    1
    32     9    61    1
    33     9    62    1
    34    10    11    1
    35    10    12    1
    36    10    63    1
    37    11    64    1
    38    11    65    1
    39    11    66    1
    40    12    67    1
    41    12    68    1
    42    12    69    1
    43    13    14    2
    44    13    15    1
    45    15    16    1
    46    15    70    1
    47    15    71    1
    48    16    17    1
    49    17    18    1
    50    17    72    1
    51    17    73    1
    52    18    19    2
    53    18    20    1
    54    20    21    1
    55    20    74    1
    56    21    22    1
    57    21    75    1
    58    21    76    1
    59    22    23    1
    60    22    47    2
    61    23    24    2
    62    23    77    1
    63    24    25    1
    64    24    78    1
    65    25    26    2
    66    25    79    1
    67    26    27    1
    68    26    47    1
    69    27    28    1
    70    27    80    1
    71    27    81    1
    72    28    29    1
    73    28    82    1
    74    29    30    2
    75    29    31    1
    76    31    32    1
    77    31    83    1
    78    31    84    1
    79    32    33    1
    80    33    34    1
    81    33    85    1
    82    33    86    1
    83    34    35    2
    84    34    36    1
    85    36    37    1
    86    36    42    1
    87    37    38    1
    88    37    87    1
    89    37    88    1
    90    38    39    1
    91    38    89    1
    92    38    90    1
    93    39    40    1
    94    39    41    1
    95    39    91    1
    96    40    92    1
    97    40    93    1
    98    40    94    1
    99    41    95    1
   100    41    96    1
   101    41    97    1
   102    42    43    1
   103    42    98    1
   104    42    99    1
   105    43    44    1
   106    43   100    1
   107    43   101    1
   108    44    45    1
   109    44    46    1
   110    44   102    1
   111    45   103    1
   112    45   104    1
   113    45   105    1
   114    46   106    1
   115    46   107    1
   116    46   108    1
   117    47   109    1
   118   110   111    1
   119   110   156    1
   120   110   157    1
   121   110   158    1
   122   111   112    1
   123   111   113    1
   124   111   159    1
   125   112   160    1
   126   112   161    1
   127   112   162    1
   128   113   114    1
   129   113   163    1
   130   113   164    1
   131   114   115    1
   132   114   165    1
   133   114   166    1
   134   115   116    1
   135   115   121    1
   136   116   117    1
   137   116   167    1
   138   116   168    1
   139   117   118    1
   140   117   169    1
   141   117   170    1
   142   118   119    1
   143   118   120    1
   144   118   171    1
   145   119   172    1
   146   119   173    1
   147   119   174    1
   148   120   175    1
   149   120   176    1
   150   120   177    1
   151   121   122    2
   152   121   123    1
   153   123   124    1
   154   123   178    1
   155   123   179    1
   156   124   125    1
   157   125   126    1
   158   125   180    1
   159   125   181    1
   160   126   127    2
   161   126   128    1
   162   128   129    1
   163   128   182    1
   164   129   130    1
   165   129   183    1
   166   129   184    1
   167   130   131    1
   168   130   155    2
   169   131   132    2
   170   131   185    1
   171   132   133    1
   172   132   186    1
   173   133   134    2
   174   133   187    1
   175   134   135    1
   176   134   155    1
   177   135   136    1
   178   135   188    1
   179   135   189    1
   180   136   137    1
   181   136   190    1
   182   137   138    2
   183   137   139    1
   184   139   140    1
   185   139   191    1
   186   139   192    1
   187   140   141    1
   188   141   142    1
   189   141   193    1
   190   141   194    1
   191   142   143    2
   192   142   144    1
   193   144   145    1
   194   144   150    1
   195   145   146    1
   196   145   195    1
   197   145   196    1
   198   146   147    1
   199   146   197    1
   200   146   198    1
   201   147   148    1
   202   147   149    1
   203   147   199    1
   204   148   200    1
   205   148   201    1
   206   148   202    1
   207   149   203    1
   208   149   204    1
   209   149   205    1
   210   150   151    1
   211   150   206    1
   212   150   207    1
   213   151   152    1
   214   151   208    1
   215   151   209    1
   216   152   153    1
   217   152   154    1
   218   152   210    1
   219   153   211    1
   220   153   212    1
   221   153   213    1
   222   154   214    1
   223   154   215    1
   224   154   216    1
   225   155   217    1
   226   218   219    1
   227   218   264    1
   228   218   265    1
   229   218   266    1
   230   219   220    1
   231   219   221    1
   232   219   267    1
   233   220   268    1
   234   220   269    1
   235   220   270    1
   236   221   222    1
   237   221   271    1
   238   221   272    1
   239   222   223    1
   240   222   273    1
   241   222   274    1
   242   223   224    1
   243   223   229    1
   244   224   225    1
   245   224   275    1
   246   224   276    1
   247   225   226    1
   248   225   277    1
   249   225   278    1
   250   226   227    1
   251   226   228    1
   252   226   279    1
   253   227   280    1
   254   227   281    1
   255   227   282    1
   256   228   283    1
   257   228   284    1
   258   228   285    1
   259   229   230    2
   260   229   231    1
   261   231   232    1
   262   231   286    1
   263   231   287    1
   264   232   233    1
   265   233   234    1
   266   233   288    1
   267   233   289    1
   268   234   235    2
   269   234   236    1
   270   236   237    1
   271   236   290    1
   272   237   238    1
   273   237   291    1
   274   237   292    1
   275   238   239    1
   276   238   263    2
   277   239   240    2
   278   239   293    1
   279   240   241    1
   280   240   294    1
   281   241   242    2
   282   241   295    1
   283   242   243    1
   284   242   263    1
   285   243   244    1
   286   243   296    1
   287   243   297    1
   288   244   245    1
   289   244   298    1
   290   245   246    2
   291   245   247    1
   292   247   248    1
   293   247   299    1
   294   247   300    1
   295   248   249    1
   296   249   250    1
   297   249   301    1
   298   249   302    1
   299   250   251    2
   300   250   252    1
   301   252   253    1
   302   252   258    1
   303   253   254    1
   304   253   303    1
   305   253   304    1
   306   254   255    1
   307   254   305    1
   308   254   306    1
   309   255   256    1
   310   255   257    1
   311   255   307    1
   312   256   308    1
   313   256   309    1
   314   256   310    1
   315   257   311    1
   316   257   312    1
   317   257   313    1
   318   258   259    1
   319   258   314    1
   320   258   315    1
   321   259   260    1
   322   259   316    1
   323   259   317    1
   324   260   261    1
   325   260   262    1
   326   260   318    1
   327   261   319    1
   328   261   320    1
   329   261   321    1
   330   262   322    1
   331   262   323    1
   332   262   324    1
   333   263   325    1
@<TRIPOS>SUBSTRUCTURE
     1 RES1      325 GROUP             0 ****  ****    0  
