@<TRIPOS>MOLECULE
am_c3_9H2O_c0_0_nunpairedes_0_charge_3 Charge: 3 Unpaired_Electrons: 6 XTB_Unpaired_Electrons: 0 XTB_Charge: 3
   358   363     1     0     0
SMALL
NoCharges
****
Generated from Architector

@<TRIPOS>ATOM
     1 Eu1      -0.1368    0.1388   -0.0041   Eu        1 RES1   0.0000
     2 C1       -1.1646   -6.7723    0.7693   C.3       1 RES1   0.0000
     3 C2       -0.1432   -7.0371   -0.3318   C.3       1 RES1   0.0000
     4 C3       -0.7149   -6.9308   -1.7505   C.3       1 RES1   0.0000
     5 C4       -1.2473   -5.5322   -2.0933   C.3       1 RES1   0.0000
     6 C5       -1.4430   -5.3075   -3.6002   C.3       1 RES1   0.0000
     7 C6       -2.6011   -6.1519   -4.1512   C.3       1 RES1   0.0000
     8 C7       -2.8011   -6.0317   -5.6581   C.3       1 RES1   0.0000
     9 C8       -1.7036   -3.8278   -3.9678   C.3       1 RES1   0.0000
    10 N1       -0.8545   -2.8383   -3.3130   N.am      1 RES1   0.0000
    11 C9        0.5847   -3.0627   -3.4809   C.3       1 RES1   0.0000
    12 C10       1.3559   -2.5325   -4.7161   C.3       1 RES1   0.0000
    13 C11       0.8467   -3.0839   -6.0578   C.3       1 RES1   0.0000
    14 C12      -0.2957   -2.3078   -6.7097   C.3       1 RES1   0.0000
    15 C13       1.5608   -1.0138   -4.7223   C.3       1 RES1   0.0000
    16 C14       2.6578   -0.6111   -5.7169   C.3       1 RES1   0.0000
    17 C15       3.1784    0.8139   -5.5280   C.3       1 RES1   0.0000
    18 C16       2.1942    1.8826   -5.9847   C.3       1 RES1   0.0000
    19 C17      -1.2448   -1.8822   -2.4648   C.2       1 RES1   0.0000
    20 O1       -0.4164   -1.0935   -1.9520   O.2       1 RES1   0.0000
    21 C18      -2.7128   -1.7079   -2.0972   C.3       1 RES1   0.0000
    22 C19      -2.9776   -1.5739   -0.5766   C.3       1 RES1   0.0000
    23 O2       -2.7600   -0.3252    0.0767   O.3       1 RES1   0.0000
    24 C20      -3.8998    0.5497   -0.0468   C.3       1 RES1   0.0000
    25 C21      -3.9031    1.8359    0.8035   C.3       1 RES1   0.0000
    26 C22      -2.6707    2.7239    0.6906   C.2       1 RES1   0.0000
    27 O3       -1.5872    2.1931    1.0095   O.2       1 RES1   0.0000
    28 N2       -2.7432    4.0383    0.3827   N.am      1 RES1   0.0000
    29 C23      -3.7864    4.6780   -0.4495   C.3       1 RES1   0.0000
    30 C24      -4.0191    6.2003   -0.2234   C.3       1 RES1   0.0000
    31 C25      -3.5253    7.1104   -1.3740   C.3       1 RES1   0.0000
    32 C26      -4.3207    7.0429   -2.6750   C.3       1 RES1   0.0000
    33 C27      -5.4909    6.5608    0.0786   C.3       1 RES1   0.0000
    34 C28      -5.7826    6.7843    1.5621   C.3       1 RES1   0.0000
    35 C29      -5.6739    5.5241    2.4177   C.3       1 RES1   0.0000
    36 C30      -6.8494    4.5778    2.2154   C.3       1 RES1   0.0000
    37 C31      -1.4618    4.7555    0.3342   C.3       1 RES1   0.0000
    38 C32      -0.8604    5.3424    1.6343   C.3       1 RES1   0.0000
    39 C33      -1.7264    6.3361    2.4261   C.3       1 RES1   0.0000
    40 C34      -1.7319    7.7836    1.9271   C.3       1 RES1   0.0000
    41 C35       0.4953    5.9748    1.2648   C.3       1 RES1   0.0000
    42 C36       1.4958    5.9682    2.4288   C.3       1 RES1   0.0000
    43 C37       2.9579    6.0075    1.9657   C.3       1 RES1   0.0000
    44 C38       3.3531    7.3425    1.3457   C.3       1 RES1   0.0000
    45 H1       -0.6876   -6.8422    1.7435   H         1 RES1   0.0000
    46 H2       -1.9621   -7.5074    0.7298   H         1 RES1   0.0000
    47 H3       -1.6058   -5.7834    0.6679   H         1 RES1   0.0000
    48 H4        0.2539   -8.0445   -0.2006   H         1 RES1   0.0000
    49 H5        0.7013   -6.3465   -0.2302   H         1 RES1   0.0000
    50 H6       -1.5062   -7.6713   -1.8656   H         1 RES1   0.0000
    51 H7        0.0839   -7.1885   -2.4527   H         1 RES1   0.0000
    52 H8       -2.1923   -5.3599   -1.5741   H         1 RES1   0.0000
    53 H9       -0.5219   -4.8047   -1.7252   H         1 RES1   0.0000
    54 H10      -0.5315   -5.6430   -4.1090   H         1 RES1   0.0000
    55 H11      -3.5289   -5.8848   -3.6419   H         1 RES1   0.0000
    56 H12      -2.3886   -7.1940   -3.9195   H         1 RES1   0.0000
    57 H13      -3.1408   -5.0410   -5.9491   H         1 RES1   0.0000
    58 H14      -3.5540   -6.7452   -5.9779   H         1 RES1   0.0000
    59 H15      -1.8830   -6.2555   -6.1956   H         1 RES1   0.0000
    60 H16      -2.7509   -3.6050   -3.7836   H         1 RES1   0.0000
    61 H17      -1.5422   -3.7390   -5.0401   H         1 RES1   0.0000
    62 H18       0.7257   -4.1457   -3.4774   H         1 RES1   0.0000
    63 H19       1.0540   -2.6301   -2.5917   H         1 RES1   0.0000
    64 H20       2.3513   -2.9786   -4.5721   H         1 RES1   0.0000
    65 H21       0.5598   -4.1252   -5.9040   H         1 RES1   0.0000
    66 H22       1.6839   -3.1004   -6.7571   H         1 RES1   0.0000
    67 H23      -1.0205   -1.9398   -5.9879   H         1 RES1   0.0000
    68 H24      -0.8089   -2.9509   -7.4187   H         1 RES1   0.0000
    69 H25       0.0866   -1.4566   -7.2617   H         1 RES1   0.0000
    70 H26       1.8586   -0.6914   -3.7164   H         1 RES1   0.0000
    71 H27       0.6201   -0.5200   -4.9669   H         1 RES1   0.0000
    72 H28       2.2921   -0.7211   -6.7375   H         1 RES1   0.0000
    73 H29       3.5034   -1.2925   -5.5989   H         1 RES1   0.0000
    74 H30       4.1009    0.9250   -6.0992   H         1 RES1   0.0000
    75 H31       3.4265    0.9696   -4.4737   H         1 RES1   0.0000
    76 H32       1.9673    1.7666   -7.0412   H         1 RES1   0.0000
    77 H33       2.6175    2.8750   -5.8446   H         1 RES1   0.0000
    78 H34       1.2671    1.8109   -5.4221   H         1 RES1   0.0000
    79 H35      -3.3167   -2.5456   -2.4337   H         1 RES1   0.0000
    80 H36      -3.0866   -0.8220   -2.6090   H         1 RES1   0.0000
    81 H37      -2.3479   -2.2924   -0.0336   H         1 RES1   0.0000
    82 H38      -4.0275   -1.8568   -0.4313   H         1 RES1   0.0000
    83 H39      -4.8073   -0.0196    0.2269   H         1 RES1   0.0000
    84 H40      -3.9661    0.8297   -1.0944   H         1 RES1   0.0000
    85 H41      -3.9587    1.5704    1.8662   H         1 RES1   0.0000
    86 H42      -4.8245    2.3569    0.5444   H         1 RES1   0.0000
    87 H43      -4.7355    4.1629   -0.2971   H         1 RES1   0.0000
    88 H44      -3.4864    4.5249   -1.4985   H         1 RES1   0.0000
    89 H45      -3.4472    6.4883    0.6520   H         1 RES1   0.0000
    90 H46      -2.4705    6.9381   -1.6047   H         1 RES1   0.0000
    91 H47      -3.5945    8.1305   -0.9959   H         1 RES1   0.0000
    92 H48      -4.0118    6.2109   -3.2980   H         1 RES1   0.0000
    93 H49      -4.1691    7.9549   -3.2473   H         1 RES1   0.0000
    94 H50      -5.3849    6.9496   -2.4855   H         1 RES1   0.0000
    95 H51      -6.1734    5.8123   -0.3179   H         1 RES1   0.0000
    96 H52      -5.7290    7.4985   -0.4199   H         1 RES1   0.0000
    97 H53      -6.7938    7.1869    1.6533   H         1 RES1   0.0000
    98 H54      -5.1037    7.5475    1.9484   H         1 RES1   0.0000
    99 H55      -5.6444    5.8160    3.4688   H         1 RES1   0.0000
   100 H56      -4.7401    5.0031    2.1927   H         1 RES1   0.0000
   101 H57      -7.7819    5.0827    2.4491   H         1 RES1   0.0000
   102 H58      -6.7654    3.7082    2.8638   H         1 RES1   0.0000
   103 H59      -6.9128    4.2303    1.1860   H         1 RES1   0.0000
   104 H60      -1.5533    5.5424   -0.4105   H         1 RES1   0.0000
   105 H61      -0.7431    4.0131   -0.0039   H         1 RES1   0.0000
   106 H62      -0.6829    4.4880    2.2941   H         1 RES1   0.0000
   107 H63      -1.3575    6.3563    3.4536   H         1 RES1   0.0000
   108 H64      -2.7448    5.9474    2.4720   H         1 RES1   0.0000
   109 H65      -0.8179    8.2961    2.2213   H         1 RES1   0.0000
   110 H66      -2.5583    8.3200    2.3917   H         1 RES1   0.0000
   111 H67      -1.8392    7.8608    0.8467   H         1 RES1   0.0000
   112 H68       0.3426    6.9948    0.9212   H         1 RES1   0.0000
   113 H69       0.9396    5.4409    0.4203   H         1 RES1   0.0000
   114 H70       1.3463    5.0626    3.0259   H         1 RES1   0.0000
   115 H71       1.3126    6.8227    3.0811   H         1 RES1   0.0000
   116 H72       3.1368    5.2067    1.2375   H         1 RES1   0.0000
   117 H73       3.5999    5.8155    2.8297   H         1 RES1   0.0000
   118 H74       2.7430    7.5630    0.4740   H         1 RES1   0.0000
   119 H75       4.3969    7.3183    1.0408   H         1 RES1   0.0000
   120 H76       3.2314    8.1482    2.0648   H         1 RES1   0.0000
   121 C39       6.6752    3.1164    4.7139   C.3       1 RES1   0.0000
   122 C40       5.6092    2.5438    5.6390   C.3       1 RES1   0.0000
   123 C41       5.2577    1.1046    5.2635   C.3       1 RES1   0.0000
   124 C42       4.3012    0.4496    6.2589   C.3       1 RES1   0.0000
   125 C43       2.9066    1.0821    6.3260   C.3       1 RES1   0.0000
   126 C44       2.0526    0.3786    7.3982   C.3       1 RES1   0.0000
   127 C45       0.9404    1.2451    7.9688   C.3       1 RES1   0.0000
   128 C46       2.2295    1.3279    4.9546   C.3       1 RES1   0.0000
   129 N3        2.1492    0.2904    3.8979   N.am      1 RES1   0.0000
   130 C47       2.0215   -1.1056    4.3650   C.3       1 RES1   0.0000
   131 C48       2.9535   -2.2675    3.9183   C.3       1 RES1   0.0000
   132 C49       4.3824   -1.8605    3.5487   C.3       1 RES1   0.0000
   133 C50       5.1247   -2.9870    2.8333   C.3       1 RES1   0.0000
   134 C51       2.9668   -3.3672    5.0082   C.3       1 RES1   0.0000
   135 C52       2.0885   -4.5925    4.7245   C.3       1 RES1   0.0000
   136 C53       0.6521   -4.4809    5.2423   C.3       1 RES1   0.0000
   137 C54       0.5731   -4.5999    6.7616   C.3       1 RES1   0.0000
   138 C55       1.7059    0.6260    2.6753   C.2       1 RES1   0.0000
   139 O4        1.6045   -0.2115    1.7592   O.2       1 RES1   0.0000
   140 C56       1.2097    2.0430    2.3638   C.3       1 RES1   0.0000
   141 C57       1.5781    2.6040    0.9802   C.3       1 RES1   0.0000
   142 O5        0.7293    2.1953   -0.1132   O.3       1 RES1   0.0000
   143 C58       1.0251    2.8990   -1.3345   C.3       1 RES1   0.0000
   144 C59       0.2249    2.4875   -2.5945   C.3       1 RES1   0.0000
   145 C60      -1.2591    2.1615   -2.4909   C.2       1 RES1   0.0000
   146 O6       -1.5926    1.2920   -1.6648   O.2       1 RES1   0.0000
   147 N4       -2.1466    2.6359   -3.3818   N.am      1 RES1   0.0000
   148 C61      -1.9481    3.8122   -4.2271   C.3       1 RES1   0.0000
   149 C62      -1.2883    3.6559   -5.6169   C.3       1 RES1   0.0000
   150 C63      -1.9850    2.6352   -6.5330   C.3       1 RES1   0.0000
   151 C64      -1.5503    1.1877   -6.3030   C.3       1 RES1   0.0000
   152 C65      -1.2997    5.0369   -6.3030   C.3       1 RES1   0.0000
   153 C66      -0.2266    6.0402   -5.8677   C.3       1 RES1   0.0000
   154 C67      -0.5177    6.8540   -4.6022   C.3       1 RES1   0.0000
   155 C68       0.2254    8.1869   -4.6385   C.3       1 RES1   0.0000
   156 C69      -3.3713    1.8568   -3.6354   C.3       1 RES1   0.0000
   157 C70      -4.6886    2.2175   -2.9195   C.3       1 RES1   0.0000
   158 C71      -5.3983    3.4483   -3.4914   C.3       1 RES1   0.0000
   159 C72      -6.7284    3.7480   -2.8026   C.3       1 RES1   0.0000
   160 C73      -5.6303    0.9892   -2.8899   C.3       1 RES1   0.0000
   161 C74      -6.2620    0.5330   -4.2116   C.3       1 RES1   0.0000
   162 C75      -7.5661   -0.2407   -3.9789   C.3       1 RES1   0.0000
   163 C76      -7.4124   -1.5403   -3.1912   C.3       1 RES1   0.0000
   164 H77       6.9124    4.1389    4.9941   H         1 RES1   0.0000
   165 H78       6.3327    3.1074    3.6798   H         1 RES1   0.0000
   166 H79       7.5876    2.5300    4.7805   H         1 RES1   0.0000
   167 H80       4.7188    3.1767    5.5958   H         1 RES1   0.0000
   168 H81       5.9774    2.5626    6.6665   H         1 RES1   0.0000
   169 H82       6.1816    0.5212    5.2505   H         1 RES1   0.0000
   170 H83       4.8361    1.0758    4.2550   H         1 RES1   0.0000
   171 H84       4.7462    0.5348    7.2512   H         1 RES1   0.0000
   172 H85       4.2165   -0.6143    6.0437   H         1 RES1   0.0000
   173 H86       3.0460    2.1015    6.7033   H         1 RES1   0.0000
   174 H87       2.7243    0.1087    8.2130   H         1 RES1   0.0000
   175 H88       1.6067   -0.5505    7.0445   H         1 RES1   0.0000
   176 H89       1.3435    2.1486    8.4144   H         1 RES1   0.0000
   177 H90       0.4129    0.6922    8.7392   H         1 RES1   0.0000
   178 H91       0.2251    1.5273    7.2030   H         1 RES1   0.0000
   179 H92       2.7767    2.1617    4.5090   H         1 RES1   0.0000
   180 H93       1.2093    1.6591    5.1709   H         1 RES1   0.0000
   181 H94       0.9925   -1.4075    4.1327   H         1 RES1   0.0000
   182 H95       2.1211   -1.0358    5.4395   H         1 RES1   0.0000
   183 H96       2.5297   -2.7067    3.0112   H         1 RES1   0.0000
   184 H97       4.9428   -1.5851    4.4391   H         1 RES1   0.0000
   185 H98       4.3249   -0.9814    2.9019   H         1 RES1   0.0000
   186 H99       5.1999   -3.8668    3.4630   H         1 RES1   0.0000
   187 H100      6.1349   -2.6806    2.5840   H         1 RES1   0.0000
   188 H101      4.6178   -3.2751    1.9154   H         1 RES1   0.0000
   189 H102      2.6879   -2.9560    5.9799   H         1 RES1   0.0000
   190 H103      3.9901   -3.7233    5.1184   H         1 RES1   0.0000
   191 H104      2.5367   -5.4590    5.2105   H         1 RES1   0.0000
   192 H105      2.0793   -4.8068    3.6525   H         1 RES1   0.0000
   193 H106      0.0604   -5.2909    4.8082   H         1 RES1   0.0000
   194 H107      0.2060   -3.5337    4.9281   H         1 RES1   0.0000
   195 H108      1.0801   -5.5032    7.0901   H         1 RES1   0.0000
   196 H109     -0.4605   -4.6551    7.0958   H         1 RES1   0.0000
   197 H110      1.0423   -3.7512    7.2518   H         1 RES1   0.0000
   198 H111      1.5617    2.7710    3.0926   H         1 RES1   0.0000
   199 H112      0.1153    1.9867    2.4412   H         1 RES1   0.0000
   200 H113      2.6126    2.3197    0.7625   H         1 RES1   0.0000
   201 H114      1.5311    3.6915    1.0536   H         1 RES1   0.0000
   202 H115      2.0762    2.7233   -1.5807   H         1 RES1   0.0000
   203 H116      0.8780    3.9732   -1.1682   H         1 RES1   0.0000
   204 H117      0.6481    1.5396   -2.9606   H         1 RES1   0.0000
   205 H118      0.4361    3.2515   -3.3437   H         1 RES1   0.0000
   206 H119     -1.3809    4.5543   -3.6610   H         1 RES1   0.0000
   207 H120     -2.9471    4.2168   -4.3984   H         1 RES1   0.0000
   208 H121     -0.2468    3.3436   -5.4985   H         1 RES1   0.0000
   209 H122     -1.7359    2.8732   -7.5673   H         1 RES1   0.0000
   210 H123     -3.0684    2.7496   -6.4548   H         1 RES1   0.0000
   211 H124     -0.5814    1.0257   -6.7676   H         1 RES1   0.0000
   212 H125     -2.2586    0.5075   -6.7689   H         1 RES1   0.0000
   213 H126     -1.4656    0.9320   -5.2487   H         1 RES1   0.0000
   214 H127     -2.2872    5.4911   -6.1992   H         1 RES1   0.0000
   215 H128     -1.1435    4.8642   -7.3669   H         1 RES1   0.0000
   216 H129     -0.1244    6.7539   -6.6870   H         1 RES1   0.0000
   217 H130      0.7348    5.5294   -5.7700   H         1 RES1   0.0000
   218 H131     -0.2096    6.3071   -3.7044   H         1 RES1   0.0000
   219 H132     -1.5894    7.0530   -4.5312   H         1 RES1   0.0000
   220 H133      1.2952    8.0243   -4.7451   H         1 RES1   0.0000
   221 H134      0.0506    8.7557   -3.7282   H         1 RES1   0.0000
   222 H135     -0.1132    8.7846   -5.4812   H         1 RES1   0.0000
   223 H136     -3.1120    0.8306   -3.3646   H         1 RES1   0.0000
   224 H137     -3.5475    1.8865   -4.7084   H         1 RES1   0.0000
   225 H138     -4.4463    2.4605   -1.8835   H         1 RES1   0.0000
   226 H139     -5.5741    3.3219   -4.5586   H         1 RES1   0.0000
   227 H140     -4.7515    4.3149   -3.3656   H         1 RES1   0.0000
   228 H141     -7.4744    2.9957   -3.0373   H         1 RES1   0.0000
   229 H142     -7.1060    4.7089   -3.1403   H         1 RES1   0.0000
   230 H143     -6.6138    3.7912   -1.7213   H         1 RES1   0.0000
   231 H144     -6.4336    1.2167   -2.1884   H         1 RES1   0.0000
   232 H145     -5.0992    0.1270   -2.4869   H         1 RES1   0.0000
   233 H146     -5.5598   -0.0977   -4.7605   H         1 RES1   0.0000
   234 H147     -6.5009    1.3853   -4.8423   H         1 RES1   0.0000
   235 H148     -8.0036   -0.4824   -4.9497   H         1 RES1   0.0000
   236 H149     -8.2723    0.4068   -3.4527   H         1 RES1   0.0000
   237 H150     -6.7880   -2.2524   -3.7314   H         1 RES1   0.0000
   238 H151     -8.3928   -1.9935   -3.0519   H         1 RES1   0.0000
   239 H152     -6.9799   -1.3702   -2.2057   H         1 RES1   0.0000
   240 C77      -5.2069   -4.5115   -1.2528   C.3       1 RES1   0.0000
   241 C78      -6.0367   -3.8285   -0.1717   C.3       1 RES1   0.0000
   242 C79      -5.6882   -4.2952    1.2442   C.3       1 RES1   0.0000
   243 C80      -4.2784   -3.9040    1.7040   C.3       1 RES1   0.0000
   244 C81      -4.0765   -4.0245    3.2195   C.3       1 RES1   0.0000
   245 C82      -4.2274   -5.4782    3.6839   C.3       1 RES1   0.0000
   246 C83      -4.1678   -5.6447    5.1974   C.3       1 RES1   0.0000
   247 C84      -2.6822   -3.5328    3.6724   C.3       1 RES1   0.0000
   248 N5       -2.2224   -2.2676    3.1133   N.am      1 RES1   0.0000
   249 C85      -3.1264   -1.1252    3.2607   C.3       1 RES1   0.0000
   250 C86      -3.1160   -0.2411    4.5325   C.3       1 RES1   0.0000
   251 C87      -3.0886   -1.0166    5.8575   C.3       1 RES1   0.0000
   252 C88      -1.7071   -1.4617    6.3315   C.3       1 RES1   0.0000
   253 C89      -2.1065    0.9195    4.5087   C.3       1 RES1   0.0000
   254 C90      -2.4991    1.9867    5.5479   C.3       1 RES1   0.0000
   255 C91      -2.2000    3.4351    5.1473   C.3       1 RES1   0.0000
   256 C92      -0.7210    3.8007    5.1775   C.3       1 RES1   0.0000
   257 C93      -1.1564   -2.0957    2.3330   C.2       1 RES1   0.0000
   258 O7       -0.8927   -0.9662    1.8533   O.2       1 RES1   0.0000
   259 C94      -0.2083   -3.2382    2.0171   C.3       1 RES1   0.0000
   260 C95       0.1626   -3.3165    0.5239   C.3       1 RES1   0.0000
   261 O8        0.9902   -2.2881    0.0033   O.3       1 RES1   0.0000
   262 C96       2.3898   -2.5775    0.1301   C.3       1 RES1   0.0000
   263 C97       3.2460   -1.8904   -0.9398   C.3       1 RES1   0.0000
   264 C98       3.4079   -0.3881   -0.7704   C.2       1 RES1   0.0000
   265 O9        2.4050    0.3201   -0.9830   O.2       1 RES1   0.0000
   266 N6        4.6255    0.1226   -0.5173   N.am      1 RES1   0.0000
   267 C99       5.6615   -0.6273    0.2203   C.3       1 RES1   0.0000
   268 C100      7.1132   -0.1243    0.0745   C.3       1 RES1   0.0000
   269 C101      7.6076    0.6323    1.3286   C.3       1 RES1   0.0000
   270 C102      7.8983   -0.2316    2.5486   C.3       1 RES1   0.0000
   271 C103      8.0900   -1.2510   -0.3211   C.3       1 RES1   0.0000
   272 C104      8.2656   -1.3956   -1.8368   C.3       1 RES1   0.0000
   273 C105      7.0384   -1.8607   -2.6233   C.3       1 RES1   0.0000
   274 C106      6.7330   -3.3406   -2.4170   C.3       1 RES1   0.0000
   275 C107      4.7861    1.5767   -0.5568   C.3       1 RES1   0.0000
   276 C108      4.9355    2.2122   -1.9533   C.3       1 RES1   0.0000
   277 C109      6.3474    2.0926   -2.5447   C.3       1 RES1   0.0000
   278 C110      7.4345    2.8840   -1.8063   C.3       1 RES1   0.0000
   279 C111      4.5122    3.6910   -1.8920   C.3       1 RES1   0.0000
   280 C112      4.0069    4.2054   -3.2434   C.3       1 RES1   0.0000
   281 C113      3.1825    5.4895   -3.1283   C.3       1 RES1   0.0000
   282 C114      3.9535    6.6646   -2.5371   C.3       1 RES1   0.0000
   283 H153     -5.5154   -4.1681   -2.2370   H         1 RES1   0.0000
   284 H154     -5.3515   -5.5875   -1.2082   H         1 RES1   0.0000
   285 H155     -4.1457   -4.3050   -1.1262   H         1 RES1   0.0000
   286 H156     -7.0885   -4.0511   -0.3533   H         1 RES1   0.0000
   287 H157     -5.9254   -2.7408   -0.2422   H         1 RES1   0.0000
   288 H158     -5.8029   -5.3769    1.2805   H         1 RES1   0.0000
   289 H159     -6.4148   -3.8617    1.9352   H         1 RES1   0.0000
   290 H160     -3.5331   -4.5238    1.1988   H         1 RES1   0.0000
   291 H161     -4.1064   -2.8662    1.4232   H         1 RES1   0.0000
   292 H162     -4.8532   -3.4332    3.7172   H         1 RES1   0.0000
   293 H163     -3.4458   -6.0846    3.2176   H         1 RES1   0.0000
   294 H164     -5.1881   -5.8524    3.3363   H         1 RES1   0.0000
   295 H165     -3.1774   -5.4350    5.5916   H         1 RES1   0.0000
   296 H166     -4.4144   -6.6686    5.4587   H         1 RES1   0.0000
   297 H167     -4.8859   -4.9885    5.6850   H         1 RES1   0.0000
   298 H168     -1.9744   -4.3209    3.4316   H         1 RES1   0.0000
   299 H169     -2.6964   -3.4342    4.7573   H         1 RES1   0.0000
   300 H170     -4.1357   -1.5279    3.1695   H         1 RES1   0.0000
   301 H171     -2.9132   -0.4692    2.4136   H         1 RES1   0.0000
   302 H172     -4.1051    0.2346    4.4816   H         1 RES1   0.0000
   303 H173     -3.7488   -1.8787    5.7630   H         1 RES1   0.0000
   304 H174     -3.5200   -0.3788    6.6284   H         1 RES1   0.0000
   305 H175     -1.1024   -1.8586    5.5170   H         1 RES1   0.0000
   306 H176     -1.8118   -2.2370    7.0873   H         1 RES1   0.0000
   307 H177     -1.1680   -0.6335    6.7864   H         1 RES1   0.0000
   308 H178     -2.1131    1.3759    3.5142   H         1 RES1   0.0000
   309 H179     -1.0957    0.5510    4.6870   H         1 RES1   0.0000
   310 H180     -2.0221    1.7810    6.5072   H         1 RES1   0.0000
   311 H181     -3.5768    1.9284    5.7128   H         1 RES1   0.0000
   312 H182     -2.7247    4.0930    5.8420   H         1 RES1   0.0000
   313 H183     -2.5995    3.6272    4.1469   H         1 RES1   0.0000
   314 H184     -0.3019    3.6517    6.1707   H         1 RES1   0.0000
   315 H185     -0.5858    4.8487    4.9179   H         1 RES1   0.0000
   316 H186     -0.1679    3.1926    4.4669   H         1 RES1   0.0000
   317 H187     -0.6100   -4.2099    2.2917   H         1 RES1   0.0000
   318 H188      0.7001   -3.0779    2.6025   H         1 RES1   0.0000
   319 H189     -0.7536   -3.3115   -0.0810   H         1 RES1   0.0000
   320 H190      0.6548   -4.2862    0.3649   H         1 RES1   0.0000
   321 H191      2.5252   -3.6651    0.0286   H         1 RES1   0.0000
   322 H192      2.7416   -2.2680    1.1184   H         1 RES1   0.0000
   323 H193      2.7821   -2.0241   -1.9192   H         1 RES1   0.0000
   324 H194      4.2021   -2.4001   -0.9499   H         1 RES1   0.0000
   325 H195      5.6397   -1.6660   -0.0936   H         1 RES1   0.0000
   326 H196      5.3851   -0.6046    1.2796   H         1 RES1   0.0000
   327 H197      7.1493    0.5879   -0.7441   H         1 RES1   0.0000
   328 H198      6.8745    1.3931    1.6179   H         1 RES1   0.0000
   329 H199      8.5231    1.1601    1.0531   H         1 RES1   0.0000
   330 H200      7.0040   -0.7356    2.8986   H         1 RES1   0.0000
   331 H201      8.2683    0.3930    3.3563   H         1 RES1   0.0000
   332 H202      8.6555   -0.9768    2.3296   H         1 RES1   0.0000
   333 H203      7.7984   -2.2036    0.1241   H         1 RES1   0.0000
   334 H204      9.0737   -0.9994    0.0779   H         1 RES1   0.0000
   335 H205      9.0741   -2.1037   -2.0200   H         1 RES1   0.0000
   336 H206      8.5913   -0.4334   -2.2372   H         1 RES1   0.0000
   337 H207      7.2410   -1.7021   -3.6837   H         1 RES1   0.0000
   338 H208      6.1632   -1.2568   -2.3718   H         1 RES1   0.0000
   339 H209      7.5821   -3.9402   -2.7357   H         1 RES1   0.0000
   340 H210      5.8658   -3.6422   -3.0035   H         1 RES1   0.0000
   341 H211      6.5394   -3.5691   -1.3701   H         1 RES1   0.0000
   342 H212      5.6295    1.8533    0.0672   H         1 RES1   0.0000
   343 H213      3.8907    2.0052   -0.1125   H         1 RES1   0.0000
   344 H214      4.2501    1.6761   -2.6237   H         1 RES1   0.0000
   345 H215      6.3022    2.4475   -3.5746   H         1 RES1   0.0000
   346 H216      6.6163    1.0364   -2.5915   H         1 RES1   0.0000
   347 H217      7.4593    3.9209   -2.1339   H         1 RES1   0.0000
   348 H218      8.4117    2.4566   -2.0231   H         1 RES1   0.0000
   349 H219      7.2987    2.8768   -0.7252   H         1 RES1   0.0000
   350 H220      5.3606    4.2857   -1.5585   H         1 RES1   0.0000
   351 H221      3.7188    3.8327   -1.1536   H         1 RES1   0.0000
   352 H222      3.3708    3.4373   -3.6962   H         1 RES1   0.0000
   353 H223      4.8487    4.3803   -3.9123   H         1 RES1   0.0000
   354 H224      2.3001    5.2926   -2.5088   H         1 RES1   0.0000
   355 H225      2.8335    5.7656   -4.1265   H         1 RES1   0.0000
   356 H226      4.3379    6.4232   -1.5505   H         1 RES1   0.0000
   357 H227      3.3000    7.5309   -2.4478   H         1 RES1   0.0000
   358 H228      4.7891    6.9369   -3.1771   H         1 RES1   0.0000
@<TRIPOS>BOND
     1     1    20    1
     2     1    23    1
     3     1    27    1
     4     1   139    1
     5     1   142    1
     6     1   146    1
     7     1   258    1
     8     1   261    1
     9     1   265    1
    10     2     3    1
    11     2    45    1
    12     2    46    1
    13     2    47    1
    14     3     4    1
    15     3    48    1
    16     3    49    1
    17     4     5    1
    18     4    50    1
    19     4    51    1
    20     5     6    1
    21     5    52    1
    22     5    53    1
    23     6     7    1
    24     6     9    1
    25     6    54    1
    26     7     8    1
    27     7    55    1
    28     7    56    1
    29     8    57    1
    30     8    58    1
    31     8    59    1
    32     9    10    1
    33     9    60    1
    34     9    61    1
    35    10    11    1
    36    10    19    1
    37    11    12    1
    38    11    62    1
    39    11    63    1
    40    12    13    1
    41    12    15    1
    42    12    64    1
    43    13    14    1
    44    13    65    1
    45    13    66    1
    46    14    67    1
    47    14    68    1
    48    14    69    1
    49    15    16    1
    50    15    70    1
    51    15    71    1
    52    16    17    1
    53    16    72    1
    54    16    73    1
    55    17    18    1
    56    17    74    1
    57    17    75    1
    58    18    76    1
    59    18    77    1
    60    18    78    1
    61    19    20    2
    62    19    21    1
    63    21    22    1
    64    21    79    1
    65    21    80    1
    66    22    23    1
    67    22    81    1
    68    22    82    1
    69    23    24    1
    70    24    25    1
    71    24    83    1
    72    24    84    1
    73    25    26    1
    74    25    85    1
    75    25    86    1
    76    26    27    2
    77    26    28    1
    78    28    29    1
    79    28    37    1
    80    29    30    1
    81    29    87    1
    82    29    88    1
    83    30    31    1
    84    30    33    1
    85    30    89    1
    86    31    32    1
    87    31    90    1
    88    31    91    1
    89    32    92    1
    90    32    93    1
    91    32    94    1
    92    33    34    1
    93    33    95    1
    94    33    96    1
    95    34    35    1
    96    34    97    1
    97    34    98    1
    98    35    36    1
    99    35    99    1
   100    35   100    1
   101    36   101    1
   102    36   102    1
   103    36   103    1
   104    37    38    1
   105    37   104    1
   106    37   105    1
   107    38    39    1
   108    38    41    1
   109    38   106    1
   110    39    40    1
   111    39   107    1
   112    39   108    1
   113    40   109    1
   114    40   110    1
   115    40   111    1
   116    41    42    1
   117    41   112    1
   118    41   113    1
   119    42    43    1
   120    42   114    1
   121    42   115    1
   122    43    44    1
   123    43   116    1
   124    43   117    1
   125    44   118    1
   126    44   119    1
   127    44   120    1
   128   121   122    1
   129   121   164    1
   130   121   165    1
   131   121   166    1
   132   122   123    1
   133   122   167    1
   134   122   168    1
   135   123   124    1
   136   123   169    1
   137   123   170    1
   138   124   125    1
   139   124   171    1
   140   124   172    1
   141   125   126    1
   142   125   128    1
   143   125   173    1
   144   126   127    1
   145   126   174    1
   146   126   175    1
   147   127   176    1
   148   127   177    1
   149   127   178    1
   150   128   129    1
   151   128   179    1
   152   128   180    1
   153   129   130    1
   154   129   138    1
   155   130   131    1
   156   130   181    1
   157   130   182    1
   158   131   132    1
   159   131   134    1
   160   131   183    1
   161   132   133    1
   162   132   184    1
   163   132   185    1
   164   133   186    1
   165   133   187    1
   166   133   188    1
   167   134   135    1
   168   134   189    1
   169   134   190    1
   170   135   136    1
   171   135   191    1
   172   135   192    1
   173   136   137    1
   174   136   193    1
   175   136   194    1
   176   137   195    1
   177   137   196    1
   178   137   197    1
   179   138   139    2
   180   138   140    1
   181   140   141    1
   182   140   198    1
   183   140   199    1
   184   141   142    1
   185   141   200    1
   186   141   201    1
   187   142   143    1
   188   143   144    1
   189   143   202    1
   190   143   203    1
   191   144   145    1
   192   144   204    1
   193   144   205    1
   194   145   146    2
   195   145   147    1
   196   147   148    1
   197   147   156    1
   198   148   149    1
   199   148   206    1
   200   148   207    1
   201   149   150    1
   202   149   152    1
   203   149   208    1
   204   150   151    1
   205   150   209    1
   206   150   210    1
   207   151   211    1
   208   151   212    1
   209   151   213    1
   210   152   153    1
   211   152   214    1
   212   152   215    1
   213   153   154    1
   214   153   216    1
   215   153   217    1
   216   154   155    1
   217   154   218    1
   218   154   219    1
   219   155   220    1
   220   155   221    1
   221   155   222    1
   222   156   157    1
   223   156   223    1
   224   156   224    1
   225   157   158    1
   226   157   160    1
   227   157   225    1
   228   158   159    1
   229   158   226    1
   230   158   227    1
   231   159   228    1
   232   159   229    1
   233   159   230    1
   234   160   161    1
   235   160   231    1
   236   160   232    1
   237   161   162    1
   238   161   233    1
   239   161   234    1
   240   162   163    1
   241   162   235    1
   242   162   236    1
   243   163   237    1
   244   163   238    1
   245   163   239    1
   246   240   241    1
   247   240   283    1
   248   240   284    1
   249   240   285    1
   250   241   242    1
   251   241   286    1
   252   241   287    1
   253   242   243    1
   254   242   288    1
   255   242   289    1
   256   243   244    1
   257   243   290    1
   258   243   291    1
   259   244   245    1
   260   244   247    1
   261   244   292    1
   262   245   246    1
   263   245   293    1
   264   245   294    1
   265   246   295    1
   266   246   296    1
   267   246   297    1
   268   247   248    1
   269   247   298    1
   270   247   299    1
   271   248   249    1
   272   248   257    1
   273   249   250    1
   274   249   300    1
   275   249   301    1
   276   250   251    1
   277   250   253    1
   278   250   302    1
   279   251   252    1
   280   251   303    1
   281   251   304    1
   282   252   305    1
   283   252   306    1
   284   252   307    1
   285   253   254    1
   286   253   308    1
   287   253   309    1
   288   254   255    1
   289   254   310    1
   290   254   311    1
   291   255   256    1
   292   255   312    1
   293   255   313    1
   294   256   314    1
   295   256   315    1
   296   256   316    1
   297   257   258    2
   298   257   259    1
   299   259   260    1
   300   259   317    1
   301   259   318    1
   302   260   261    1
   303   260   319    1
   304   260   320    1
   305   261   262    1
   306   262   263    1
   307   262   321    1
   308   262   322    1
   309   263   264    1
   310   263   323    1
   311   263   324    1
   312   264   265    2
   313   264   266    1
   314   266   267    1
   315   266   275    1
   316   267   268    1
   317   267   325    1
   318   267   326    1
   319   268   269    1
   320   268   271    1
   321   268   327    1
   322   269   270    1
   323   269   328    1
   324   269   329    1
   325   270   330    1
   326   270   331    1
   327   270   332    1
   328   271   272    1
   329   271   333    1
   330   271   334    1
   331   272   273    1
   332   272   335    1
   333   272   336    1
   334   273   274    1
   335   273   337    1
   336   273   338    1
   337   274   339    1
   338   274   340    1
   339   274   341    1
   340   275   276    1
   341   275   342    1
   342   275   343    1
   343   276   277    1
   344   276   279    1
   345   276   344    1
   346   277   278    1
   347   277   345    1
   348   277   346    1
   349   278   347    1
   350   278   348    1
   351   278   349    1
   352   279   280    1
   353   279   350    1
   354   279   351    1
   355   280   281    1
   356   280   352    1
   357   280   353    1
   358   281   282    1
   359   281   354    1
   360   281   355    1
   361   282   356    1
   362   282   357    1
   363   282   358    1
@<TRIPOS>SUBSTRUCTURE
     1 RES1      358 GROUP             0 ****  ****    0  
