@<TRIPOS>MOLECULE
tricapped_trigonal_prismatic_0_nunpairedes_0_charge_3 Charge: 3 Unpaired_Electrons: 6 XTB_Unpaired_Electrons: 0 XTB_Charge: 3
    73    77     1     0     0
SMALL
NoCharges
****
Generated from Architector

@<TRIPOS>ATOM
     1 Eu1      -0.2177    0.0040    0.2448   Eu        1 RES1   0.0000
     2 C1       -2.5415    0.4158   -5.2739   C.3       1 RES1   0.0000
     3 C2       -3.8181    0.0915   -4.5101   C.3       1 RES1   0.0000
     4 C3       -3.6721   -1.0558   -3.4962   C.3       1 RES1   0.0000
     5 C4       -3.4248   -0.6457   -2.0416   C.3       1 RES1   0.0000
     6 O1       -2.0361   -0.8070   -1.5696   O.3       1 RES1   0.0000
     7 P1       -1.4133   -2.3268   -1.6547   P.3       1 RES1   0.0000
     8 S1        0.6361   -1.6279   -1.9543   S.3       1 RES1   0.0000
     9 C5        0.4871   -0.5626   -3.4328   C.3       1 RES1   0.0000
    10 P2        0.9183    1.2480   -3.1273   P.3       1 RES1   0.0000
    11 S2        1.6945    1.9186   -0.2647   S.3       1 RES1   0.0000
    12 O2        2.0235    0.8682   -1.7328   O.3       1 RES1   0.0000
    13 C6        3.4654    0.8068   -1.9878   C.3       1 RES1   0.0000
    14 C7        3.8316   -0.1899   -3.0810   C.3       1 RES1   0.0000
    15 C8        3.7332    0.3294   -4.5193   C.3       1 RES1   0.0000
    16 C9        4.5555    1.5840   -4.7782   C.3       1 RES1   0.0000
    17 O3       -0.3603    1.5506   -2.1395   O.3       1 RES1   0.0000
    18 C10      -1.2655    2.6059   -2.6446   C.3       1 RES1   0.0000
    19 C11      -1.6671    3.6788   -1.6406   C.3       1 RES1   0.0000
    20 C12      -2.7555    3.2711   -0.6422   C.3       1 RES1   0.0000
    21 C13      -2.1763    2.5837    0.5890   C.3       1 RES1   0.0000
    22 O4       -1.1722   -2.4144   -0.0262   O.3       1 RES1   0.0000
    23 C14      -0.8082   -3.6756    0.6124   C.3       1 RES1   0.0000
    24 C15      -0.1451   -3.3163    1.9378   C.3       1 RES1   0.0000
    25 C16      -1.1628   -3.0595    3.0568   C.3       1 RES1   0.0000
    26 C17      -0.6078   -2.0785    4.0794   C.3       1 RES1   0.0000
    27 H1       -2.7421    1.1495   -6.0461   H         1 RES1   0.0000
    28 H2       -2.1694   -0.4818   -5.7590   H         1 RES1   0.0000
    29 H3       -1.7604    0.8224   -4.6325   H         1 RES1   0.0000
    30 H4       -4.5689   -0.2051   -5.2401   H         1 RES1   0.0000
    31 H5       -4.2042    0.9794   -4.0109   H         1 RES1   0.0000
    32 H6       -2.8713   -1.7267   -3.8217   H         1 RES1   0.0000
    33 H7       -4.5890   -1.6435   -3.5109   H         1 RES1   0.0000
    34 H8       -4.0588   -1.2460   -1.3889   H         1 RES1   0.0000
    35 H9       -3.6498    0.4138   -1.8915   H         1 RES1   0.0000
    36 H10      -0.5494   -0.5712   -3.7601   H         1 RES1   0.0000
    37 H11       1.0879   -0.9951   -4.2252   H         1 RES1   0.0000
    38 H12       3.8764    0.4614   -1.0341   H         1 RES1   0.0000
    39 H13       3.8482    1.8046   -2.2021   H         1 RES1   0.0000
    40 H14       3.2290   -1.0943   -2.9587   H         1 RES1   0.0000
    41 H15       4.8672   -0.4832   -2.8972   H         1 RES1   0.0000
    42 H16       2.6923    0.5288   -4.7985   H         1 RES1   0.0000
    43 H17       4.0964   -0.4494   -5.1913   H         1 RES1   0.0000
    44 H18       4.1721    2.4510   -4.2476   H         1 RES1   0.0000
    45 H19       4.5441    1.8246   -5.8357   H         1 RES1   0.0000
    46 H20       5.5914    1.4390   -4.4906   H         1 RES1   0.0000
    47 H21      -2.1581    2.0945   -3.0118   H         1 RES1   0.0000
    48 H22      -0.7560    3.0851   -3.4836   H         1 RES1   0.0000
    49 H23      -2.0651    4.4878   -2.2556   H         1 RES1   0.0000
    50 H24      -0.7939    4.0760   -1.1180   H         1 RES1   0.0000
    51 H25      -3.4833    2.6236   -1.1373   H         1 RES1   0.0000
    52 H26      -3.2904    4.1647   -0.3174   H         1 RES1   0.0000
    53 H27      -1.5704    1.6977    0.2538   H         1 RES1   0.0000
    54 H28      -2.9756    2.2685    1.2589   H         1 RES1   0.0000
    55 H29      -1.5337    3.2868    1.1220   H         1 RES1   0.0000
    56 H30      -0.1382   -4.2484   -0.0344   H         1 RES1   0.0000
    57 H31      -1.7293   -4.2347    0.7879   H         1 RES1   0.0000
    58 H32       0.4447   -2.3877    1.7766   H         1 RES1   0.0000
    59 H33       0.5472   -4.1058    2.2324   H         1 RES1   0.0000
    60 H34      -1.4197   -3.9992    3.5425   H         1 RES1   0.0000
    61 H35      -2.0831   -2.6569    2.6297   H         1 RES1   0.0000
    62 H36       0.2573   -2.4995    4.5799   H         1 RES1   0.0000
    63 H37      -1.3453   -1.8481    4.8413   H         1 RES1   0.0000
    64 H38      -0.3043   -1.1479    3.5839   H         1 RES1   0.0000
    65 O5        2.1269   -0.7949    1.2071   O.3       1 RES1   0.0000
    66 H39       2.6694   -0.1704    1.7203   H         1 RES1   0.0000
    67 H40       2.6482   -1.6154    1.2319   H         1 RES1   0.0000
    68 O6        0.0709    1.2711    2.5594   O.3       1 RES1   0.0000
    69 H41       0.7399    1.9700    2.6582   H         1 RES1   0.0000
    70 H42      -0.4034    1.2965    3.4044   H         1 RES1   0.0000
    71 O7       -2.4084   -0.3884    1.4845   O.3       1 RES1   0.0000
    72 H43      -3.1762   -0.8555    1.1180   H         1 RES1   0.0000
    73 H44      -2.6006   -0.3104    2.4294   H         1 RES1   0.0000
@<TRIPOS>BOND
     1     1     6    1
     2     1     8    1
     3     1    11    1
     4     1    12    1
     5     1    17    1
     6     1    22    1
     7     1    65    1
     8     1    68    1
     9     1    71    1
    10     2     3    1
    11     2    27    1
    12     2    28    1
    13     2    29    1
    14     3     4    1
    15     3    30    1
    16     3    31    1
    17     4     5    1
    18     4    32    1
    19     4    33    1
    20     5     6    1
    21     5    34    1
    22     5    35    1
    23     6     7    1
    24     7     8    2
    25     7     9    1
    26     7    22    1
    27     9    10    1
    28     9    36    1
    29     9    37    1
    30    10    11    2
    31    10    12    1
    32    10    17    1
    33    12    13    1
    34    13    14    1
    35    13    38    1
    36    13    39    1
    37    14    15    1
    38    14    40    1
    39    14    41    1
    40    15    16    1
    41    15    42    1
    42    15    43    1
    43    16    44    1
    44    16    45    1
    45    16    46    1
    46    17    18    1
    47    18    19    1
    48    18    47    1
    49    18    48    1
    50    19    20    1
    51    19    49    1
    52    19    50    1
    53    20    21    1
    54    20    51    1
    55    20    52    1
    56    21    53    1
    57    21    54    1
    58    21    55    1
    59    22    23    1
    60    23    24    1
    61    23    56    1
    62    23    57    1
    63    24    25    1
    64    24    58    1
    65    24    59    1
    66    25    26    1
    67    25    60    1
    68    25    61    1
    69    26    62    1
    70    26    63    1
    71    26    64    1
    72    65    66    1
    73    65    67    1
    74    68    69    1
    75    68    70    1
    76    71    72    1
    77    71    73    1
@<TRIPOS>SUBSTRUCTURE
     1 RES1       73 GROUP             0 ****  ****    0  
