@<TRIPOS>MOLECULE
am_c3_9H2O_c0_0_nunpairedes_0_charge_3 Charge: 3 Unpaired_Electrons: 6 XTB_Unpaired_Electrons: 0 XTB_Charge: 3
   412   417     1     0     0
SMALL
NoCharges
****
Generated from Architector

@<TRIPOS>ATOM
     1 Eu1      -0.2012    0.0196   -0.3290   Eu        1 RES1   0.0000
     2 C1       -3.3226    9.8061   -0.1347   C.3       1 RES1   0.0000
     3 C2       -2.4581    9.0421    0.8626   C.3       1 RES1   0.0000
     4 C3       -0.9729    9.0376    0.4933   C.3       1 RES1   0.0000
     5 C4       -0.6496    8.4673   -0.8887   C.3       1 RES1   0.0000
     6 C5       -1.0626    7.0078   -1.0717   C.3       1 RES1   0.0000
     7 C6       -0.7586    6.5219   -2.4876   C.3       1 RES1   0.0000
     8 C7       -1.0786    5.0428   -2.7122   C.3       1 RES1   0.0000
     9 C8       -2.5700    4.7709   -2.8607   C.3       1 RES1   0.0000
    10 C9       -2.9313    3.2963   -2.7191   C.3       1 RES1   0.0000
    11 C10      -4.3921    3.0768   -3.0999   C.3       1 RES1   0.0000
    12 C11      -4.9985    1.7881   -2.5556   C.3       1 RES1   0.0000
    13 C12      -4.6641    0.5054   -3.3315   C.3       1 RES1   0.0000
    14 N1       -3.2999   -0.0031   -3.2531   N.am      1 RES1   0.0000
    15 C13      -2.4616   -0.1258   -4.4493   C.3       1 RES1   0.0000
    16 C14      -3.1604   -0.2779   -5.7986   C.3       1 RES1   0.0000
    17 C15      -3.1423    1.0216   -6.6059   C.3       1 RES1   0.0000
    18 C16      -3.9639    0.9521   -7.8936   C.3       1 RES1   0.0000
    19 C17      -5.4706    0.8335   -7.6683   C.3       1 RES1   0.0000
    20 C18      -6.0871    2.0647   -7.0076   C.3       1 RES1   0.0000
    21 C19      -7.5961    1.9136   -6.8282   C.3       1 RES1   0.0000
    22 C20      -8.2173    3.1377   -6.1664   C.3       1 RES1   0.0000
    23 C21      -2.7458   -0.4359   -2.1353   C.2       1 RES1   0.0000
    24 O1       -1.5685   -0.8535   -2.0588   O.2       1 RES1   0.0000
    25 C22      -3.4741   -0.3636   -0.7955   C.3       1 RES1   0.0000
    26 O2       -2.6814    0.6362   -0.1552   O.3       1 RES1   0.0000
    27 C23      -3.2279    1.2075    1.0242   C.3       1 RES1   0.0000
    28 C24      -2.2278    2.2875    1.4213   C.2       1 RES1   0.0000
    29 O3       -1.0376    2.0699    1.1042   O.2       1 RES1   0.0000
    30 N2       -2.6498    3.3861    2.0325   N.am      1 RES1   0.0000
    31 C25      -1.7109    4.4813    2.2767   C.3       1 RES1   0.0000
    32 C26      -1.4874    4.7452    3.7685   C.3       1 RES1   0.0000
    33 C27      -0.5398    5.9149    4.0784   C.3       1 RES1   0.0000
    34 C28       0.8810    5.4886    4.4418   C.3       1 RES1   0.0000
    35 C29       1.7049    5.0267    3.2419   C.3       1 RES1   0.0000
    36 C30       2.1152    6.1879    2.3379   C.3       1 RES1   0.0000
    37 C31       3.0100    5.7461    1.1845   C.3       1 RES1   0.0000
    38 C32       3.3601    6.9106    0.2666   C.3       1 RES1   0.0000
    39 C33      -3.9919    3.5795    2.5752   C.3       1 RES1   0.0000
    40 C34      -4.7404    4.8041    2.0329   C.3       1 RES1   0.0000
    41 C35      -5.0437    4.7822    0.5350   C.3       1 RES1   0.0000
    42 C36      -6.0909    5.8531    0.2118   C.3       1 RES1   0.0000
    43 C37      -6.4593    5.9531   -1.2724   C.3       1 RES1   0.0000
    44 C38      -5.5405    6.8996   -2.0488   C.3       1 RES1   0.0000
    45 C39      -5.6797    6.7513   -3.5640   C.3       1 RES1   0.0000
    46 C40      -4.7081    7.6505   -4.3281   C.3       1 RES1   0.0000
    47 C41      -4.8342    7.4990   -5.8459   C.3       1 RES1   0.0000
    48 C42      -4.2290    6.2134   -6.4153   C.3       1 RES1   0.0000
    49 C43      -2.7059    6.2613   -6.5221   C.3       1 RES1   0.0000
    50 C44      -2.1376    4.9751   -7.1113   C.3       1 RES1   0.0000
    51 H1       -4.3409    9.8965    0.2397   H         1 RES1   0.0000
    52 H2       -3.3579    9.3022   -1.0987   H         1 RES1   0.0000
    53 H3       -2.9284   10.8087   -0.2833   H         1 RES1   0.0000
    54 H4       -2.8283    8.0166    0.9574   H         1 RES1   0.0000
    55 H5       -2.5563    9.5122    1.8437   H         1 RES1   0.0000
    56 H6       -0.4212    8.4790    1.2558   H         1 RES1   0.0000
    57 H7       -0.6105   10.0664    0.5242   H         1 RES1   0.0000
    58 H8        0.4279    8.5583   -1.0526   H         1 RES1   0.0000
    59 H9       -1.1394    9.0744   -1.6506   H         1 RES1   0.0000
    60 H10      -2.1315    6.9163   -0.8792   H         1 RES1   0.0000
    61 H11      -0.5330    6.3804   -0.3469   H         1 RES1   0.0000
    62 H12       0.3000    6.6989   -2.6994   H         1 RES1   0.0000
    63 H13      -1.3328    7.1180   -3.1987   H         1 RES1   0.0000
    64 H14      -0.6925    4.4593   -1.8720   H         1 RES1   0.0000
    65 H15      -0.5769    4.7040   -3.6206   H         1 RES1   0.0000
    66 H16      -2.8960    5.1226   -3.8373   H         1 RES1   0.0000
    67 H17      -3.1183    5.3324   -2.1080   H         1 RES1   0.0000
    68 H18      -2.7490    2.9715   -1.6882   H         1 RES1   0.0000
    69 H19      -2.2875    2.6923   -3.3566   H         1 RES1   0.0000
    70 H20      -4.4953    3.1164   -4.1858   H         1 RES1   0.0000
    71 H21      -4.9730    3.9057   -2.6915   H         1 RES1   0.0000
    72 H22      -6.0896    1.8732   -2.5983   H         1 RES1   0.0000
    73 H23      -4.7187    1.7268   -1.5052   H         1 RES1   0.0000
    74 H24      -4.8724    0.7074   -4.3812   H         1 RES1   0.0000
    75 H25      -5.3435   -0.2854   -2.9975   H         1 RES1   0.0000
    76 H26      -1.8405   -1.0023   -4.2505   H         1 RES1   0.0000
    77 H27      -1.7884    0.7350   -4.4828   H         1 RES1   0.0000
    78 H28      -4.1770   -0.6426   -5.6685   H         1 RES1   0.0000
    79 H29      -2.6423   -1.0428   -6.3778   H         1 RES1   0.0000
    80 H30      -2.1056    1.2441   -6.8744   H         1 RES1   0.0000
    81 H31      -3.5025    1.8479   -5.9924   H         1 RES1   0.0000
    82 H32      -3.6243    0.0991   -8.4835   H         1 RES1   0.0000
    83 H33      -3.7668    1.8543   -8.4755   H         1 RES1   0.0000
    84 H34      -5.6953   -0.0557   -7.0751   H         1 RES1   0.0000
    85 H35      -5.9500    0.6912   -8.6367   H         1 RES1   0.0000
    86 H36      -5.8849    2.9406   -7.6273   H         1 RES1   0.0000
    87 H37      -5.6365    2.2451   -6.0269   H         1 RES1   0.0000
    88 H38      -7.8022    1.0259   -6.2229   H         1 RES1   0.0000
    89 H39      -8.0571    1.7610   -7.8049   H         1 RES1   0.0000
    90 H40      -7.7972    3.3001   -5.1742   H         1 RES1   0.0000
    91 H41      -9.2923    3.0096   -6.0675   H         1 RES1   0.0000
    92 H42      -8.0351    4.0273   -6.7649   H         1 RES1   0.0000
    93 H43      -3.3597   -1.3329   -0.2824   H         1 RES1   0.0000
    94 H44      -4.5268   -0.0855   -0.8517   H         1 RES1   0.0000
    95 H45      -3.2873    0.4552    1.8259   H         1 RES1   0.0000
    96 H46      -4.2288    1.6055    0.8276   H         1 RES1   0.0000
    97 H47      -2.1100    5.3749    1.7943   H         1 RES1   0.0000
    98 H48      -0.7815    4.2089    1.7784   H         1 RES1   0.0000
    99 H49      -1.1083    3.8338    4.2366   H         1 RES1   0.0000
   100 H50      -2.4470    4.9827    4.2274   H         1 RES1   0.0000
   101 H51      -0.9444    6.4644    4.9280   H         1 RES1   0.0000
   102 H52      -0.5160    6.6118    3.2401   H         1 RES1   0.0000
   103 H53       0.8291    4.6855    5.1792   H         1 RES1   0.0000
   104 H54       1.3957    6.3262    4.9138   H         1 RES1   0.0000
   105 H55       1.1240    4.2959    2.6705   H         1 RES1   0.0000
   106 H56       2.6081    4.5223    3.5992   H         1 RES1   0.0000
   107 H57       2.6446    6.9294    2.9366   H         1 RES1   0.0000
   108 H58       1.2278    6.6705    1.9248   H         1 RES1   0.0000
   109 H59       2.4906    4.9742    0.6097   H         1 RES1   0.0000
   110 H60       3.9287    5.3108    1.5845   H         1 RES1   0.0000
   111 H61       2.4559    7.3613   -0.1385   H         1 RES1   0.0000
   112 H62       3.9884    6.5817   -0.5605   H         1 RES1   0.0000
   113 H63       3.9003    7.6746    0.8195   H         1 RES1   0.0000
   114 H64      -3.8945    3.7068    3.6574   H         1 RES1   0.0000
   115 H65      -4.5849    2.6810    2.4216   H         1 RES1   0.0000
   116 H66      -4.2021    5.7209    2.2771   H         1 RES1   0.0000
   117 H67      -5.6852    4.8493    2.5794   H         1 RES1   0.0000
   118 H68      -5.4377    3.8023    0.2504   H         1 RES1   0.0000
   119 H69      -4.1281    4.9548   -0.0350   H         1 RES1   0.0000
   120 H70      -5.7283    6.8255    0.5519   H         1 RES1   0.0000
   121 H71      -6.9921    5.6215    0.7829   H         1 RES1   0.0000
   122 H72      -7.4831    6.3176   -1.3611   H         1 RES1   0.0000
   123 H73      -6.4419    4.9545   -1.7186   H         1 RES1   0.0000
   124 H74      -4.5017    6.7205   -1.7636   H         1 RES1   0.0000
   125 H75      -5.7753    7.9268   -1.7639   H         1 RES1   0.0000
   126 H76      -6.7011    7.0000   -3.8569   H         1 RES1   0.0000
   127 H77      -5.5060    5.7094   -3.8420   H         1 RES1   0.0000
   128 H78      -3.6836    7.4346   -4.0169   H         1 RES1   0.0000
   129 H79      -4.9146    8.6888   -4.0628   H         1 RES1   0.0000
   130 H80      -4.3506    8.3497   -6.3282   H         1 RES1   0.0000
   131 H81      -5.8934    7.5373   -6.1050   H         1 RES1   0.0000
   132 H82      -4.6358    6.0543   -7.4160   H         1 RES1   0.0000
   133 H83      -4.5307    5.3575   -5.8059   H         1 RES1   0.0000
   134 H84      -2.2618    6.4307   -5.5390   H         1 RES1   0.0000
   135 H85      -2.4219    7.1012   -7.1570   H         1 RES1   0.0000
   136 H86      -2.3762    4.1214   -6.4759   H         1 RES1   0.0000
   137 H87      -1.0556    5.0447   -7.2103   H         1 RES1   0.0000
   138 H88      -2.5557    4.7907   -8.0987   H         1 RES1   0.0000
   139 C45       9.3964   -1.8555    0.1416   C.3       1 RES1   0.0000
   140 C46       8.2913   -2.2095    1.1310   C.3       1 RES1   0.0000
   141 C47       7.5715   -3.5166    0.7911   C.3       1 RES1   0.0000
   142 C48       6.9720   -3.5718   -0.6140   C.3       1 RES1   0.0000
   143 C49       5.9532   -2.4687   -0.8894   C.3       1 RES1   0.0000
   144 C50       5.4104   -2.5518   -2.3135   C.3       1 RES1   0.0000
   145 C51       4.3344   -1.5046   -2.6046   C.3       1 RES1   0.0000
   146 C52       4.8858   -0.1236   -2.9297   C.3       1 RES1   0.0000
   147 C53       3.8197    0.9665   -2.8612   C.3       1 RES1   0.0000
   148 C54       4.3509    2.2569   -3.4793   C.3       1 RES1   0.0000
   149 C55       3.6963    3.5357   -2.9727   C.3       1 RES1   0.0000
   150 C56       2.2833    3.8156   -3.5081   C.3       1 RES1   0.0000
   151 N3        1.2484    2.8066   -3.3153   N.am      1 RES1   0.0000
   152 C57       0.5438    2.1892   -4.4520   C.3       1 RES1   0.0000
   153 C58       0.6907    2.7812   -5.8488   C.3       1 RES1   0.0000
   154 C59       1.7334    2.0428   -6.6887   C.3       1 RES1   0.0000
   155 C60       1.9904    2.7046   -8.0429   C.3       1 RES1   0.0000
   156 C61       2.6298    4.0916   -7.9515   C.3       1 RES1   0.0000
   157 C62       4.0141    4.0910   -7.3042   C.3       1 RES1   0.0000
   158 C63       4.5504    5.5077   -7.1114   C.3       1 RES1   0.0000
   159 C64       5.8808    5.5132   -6.3681   C.3       1 RES1   0.0000
   160 C65       0.7436    2.4422   -2.1484   C.2       1 RES1   0.0000
   161 O4       -0.1896    1.6128   -2.0431   O.2       1 RES1   0.0000
   162 C66       1.2860    2.9660   -0.8263   C.3       1 RES1   0.0000
   163 O5        1.5691    1.7664   -0.1102   O.3       1 RES1   0.0000
   164 C67       2.4095    1.9678    1.0138   C.3       1 RES1   0.0000
   165 C68       2.7245    0.5652    1.5338   C.2       1 RES1   0.0000
   166 O6        1.9237   -0.3460    1.2349   O.2       1 RES1   0.0000
   167 N4        3.8478    0.4018    2.2209   N.am      1 RES1   0.0000
   168 C69       4.2993   -0.9286    2.6098   C.3       1 RES1   0.0000
   169 C70       4.1815   -1.1850    4.1153   C.3       1 RES1   0.0000
   170 C71       4.6905   -2.5717    4.5392   C.3       1 RES1   0.0000
   171 C72       3.5668   -3.5630    4.8294   C.3       1 RES1   0.0000
   172 C73       2.8047   -4.0092    3.5827   C.3       1 RES1   0.0000
   173 C74       3.6256   -4.9615    2.7141   C.3       1 RES1   0.0000
   174 C75       2.8796   -5.4008    1.4586   C.3       1 RES1   0.0000
   175 C76       3.7078   -6.3537    0.6068   C.3       1 RES1   0.0000
   176 C77       4.6669    1.5094    2.7084   C.3       1 RES1   0.0000
   177 C78       6.0642    1.6287    2.0853   C.3       1 RES1   0.0000
   178 C79       6.1019    1.9657    0.5938   C.3       1 RES1   0.0000
   179 C80       7.5129    2.4168    0.2017   C.3       1 RES1   0.0000
   180 C81       7.7130    2.6563   -1.3002   C.3       1 RES1   0.0000
   181 C82       8.2060    1.4051   -2.0308   C.3       1 RES1   0.0000
   182 C83       8.2433    1.5699   -3.5515   C.3       1 RES1   0.0000
   183 C84       8.4326    0.2419   -4.2852   C.3       1 RES1   0.0000
   184 C85       8.3047    0.3933   -5.8039   C.3       1 RES1   0.0000
   185 C86       6.8636    0.4600   -6.3195   C.3       1 RES1   0.0000
   186 C87       6.2129   -0.9162   -6.4600   C.3       1 RES1   0.0000
   187 C88       4.7774   -0.8234   -6.9682   C.3       1 RES1   0.0000
   188 H89       9.9590   -0.9933    0.4959   H         1 RES1   0.0000
   189 H90       8.9902   -1.6169   -0.8393   H         1 RES1   0.0000
   190 H91      10.0884   -2.6873    0.0347   H         1 RES1   0.0000
   191 H92       7.5713   -1.3864    1.1800   H         1 RES1   0.0000
   192 H93       8.7303   -2.3157    2.1256   H         1 RES1   0.0000
   193 H94       6.7820   -3.6864    1.5302   H         1 RES1   0.0000
   194 H95       8.2839   -4.3367    0.8871   H         1 RES1   0.0000
   195 H96       6.4910   -4.5450   -0.7457   H         1 RES1   0.0000
   196 H97       7.7736   -3.5105   -1.3504   H         1 RES1   0.0000
   197 H98       6.4246   -1.4969   -0.7432   H         1 RES1   0.0000
   198 H99       5.1229   -2.5500   -0.1796   H         1 RES1   0.0000
   199 H100      4.9935   -3.5513   -2.4717   H         1 RES1   0.0000
   200 H101      6.2318   -2.4295   -3.0220   H         1 RES1   0.0000
   201 H102      3.6788   -1.4169   -1.7356   H         1 RES1   0.0000
   202 H103      3.7384   -1.8383   -3.4548   H         1 RES1   0.0000
   203 H104      5.3118   -0.1400   -3.9300   H         1 RES1   0.0000
   204 H105      5.6815    0.1282   -2.2320   H         1 RES1   0.0000
   205 H106      3.5343    1.1278   -1.8181   H         1 RES1   0.0000
   206 H107      2.9229    0.6409   -3.3887   H         1 RES1   0.0000
   207 H108      4.2658    2.2025   -4.5640   H         1 RES1   0.0000
   208 H109      5.4155    2.3298   -3.2519   H         1 RES1   0.0000
   209 H110      4.2952    4.3879   -3.3078   H         1 RES1   0.0000
   210 H111      3.7499    3.5398   -1.8837   H         1 RES1   0.0000
   211 H112      2.3933    3.9360   -4.5831   H         1 RES1   0.0000
   212 H113      1.9333    4.7664   -3.0886   H         1 RES1   0.0000
   213 H114     -0.5060    2.2291   -4.1557   H         1 RES1   0.0000
   214 H115      0.8267    1.1336   -4.4742   H         1 RES1   0.0000
   215 H116      0.8993    3.8496   -5.8117   H         1 RES1   0.0000
   216 H117     -0.2754    2.6828   -6.3471   H         1 RES1   0.0000
   217 H118      1.3744    1.0246   -6.8638   H         1 RES1   0.0000
   218 H119      2.6700    1.9659   -6.1374   H         1 RES1   0.0000
   219 H120      1.0432    2.7914   -8.5794   H         1 RES1   0.0000
   220 H121      2.6413    2.0524   -8.6268   H         1 RES1   0.0000
   221 H122      1.9701    4.7729   -7.4079   H         1 RES1   0.0000
   222 H123      2.7248    4.4921   -8.9613   H         1 RES1   0.0000
   223 H124      4.7044    3.5251   -7.9323   H         1 RES1   0.0000
   224 H125      3.9850    3.5992   -6.3284   H         1 RES1   0.0000
   225 H126      3.8181    6.0981   -6.5527   H         1 RES1   0.0000
   226 H127      4.6788    5.9794   -8.0863   H         1 RES1   0.0000
   227 H128      5.7796    5.0543   -5.3842   H         1 RES1   0.0000
   228 H129      6.2375    6.5314   -6.2349   H         1 RES1   0.0000
   229 H130      6.6299    4.9576   -6.9273   H         1 RES1   0.0000
   230 H131      0.4818    3.5162   -0.3078   H         1 RES1   0.0000
   231 H132      2.1704    3.5941   -0.9219   H         1 RES1   0.0000
   232 H133      1.8852    2.5560    1.7881   H         1 RES1   0.0000
   233 H134      3.3241    2.4833    0.7052   H         1 RES1   0.0000
   234 H135      5.3418   -1.0291    2.2983   H         1 RES1   0.0000
   235 H136      3.7042   -1.6440    2.0447   H         1 RES1   0.0000
   236 H137      3.1378   -1.0683    4.4156   H         1 RES1   0.0000
   237 H138      4.7652   -0.4378    4.6505   H         1 RES1   0.0000
   238 H139      5.2812   -2.4663    5.4488   H         1 RES1   0.0000
   239 H140      5.3613   -2.9724    3.7795   H         1 RES1   0.0000
   240 H141      2.8719   -3.0980    5.5306   H         1 RES1   0.0000
   241 H142      3.9818   -4.4443    5.3194   H         1 RES1   0.0000
   242 H143      2.5127   -3.1254    3.0053   H         1 RES1   0.0000
   243 H144      1.8849   -4.5160    3.8908   H         1 RES1   0.0000
   244 H145      3.8826   -5.8397    3.3069   H         1 RES1   0.0000
   245 H146      4.5582   -4.4808    2.4146   H         1 RES1   0.0000
   246 H147      2.6366   -4.5134    0.8697   H         1 RES1   0.0000
   247 H148      1.9441   -5.8881    1.7460   H         1 RES1   0.0000
   248 H149      4.6344   -5.8755    0.2964   H         1 RES1   0.0000
   249 H150      3.1575   -6.6568   -0.2830   H         1 RES1   0.0000
   250 H151      3.9588   -7.2462    1.1733   H         1 RES1   0.0000
   251 H152      4.8026    1.3549    3.7813   H         1 RES1   0.0000
   252 H153      4.1271    2.4459    2.5912   H         1 RES1   0.0000
   253 H154      6.6392    0.7191    2.2599   H         1 RES1   0.0000
   254 H155      6.5715    2.4262    2.6351   H         1 RES1   0.0000
   255 H156      5.4088    2.7851    0.3853   H         1 RES1   0.0000
   256 H157      5.7935    1.1005    0.0027   H         1 RES1   0.0000
   257 H158      8.2349    1.6710    0.5380   H         1 RES1   0.0000
   258 H159      7.7234    3.3418    0.7405   H         1 RES1   0.0000
   259 H160      8.4465    3.4511   -1.4405   H         1 RES1   0.0000
   260 H161      6.7766    3.0079   -1.7428   H         1 RES1   0.0000
   261 H162      7.5634    0.5602   -1.7732   H         1 RES1   0.0000
   262 H163      9.2069    1.1614   -1.6716   H         1 RES1   0.0000
   263 H164      9.0563    2.2460   -3.8193   H         1 RES1   0.0000
   264 H165      7.3176    2.0369   -3.8932   H         1 RES1   0.0000
   265 H166      7.7019   -0.4850   -3.9248   H         1 RES1   0.0000
   266 H167      9.4223   -0.1508   -4.0495   H         1 RES1   0.0000
   267 H168      8.8036   -0.4452   -6.2904   H         1 RES1   0.0000
   268 H169      8.8309    1.3015   -6.1010   H         1 RES1   0.0000
   269 H170      6.8654    0.9372   -7.3016   H         1 RES1   0.0000
   270 H171      6.2617    1.0882   -5.6575   H         1 RES1   0.0000
   271 H172      6.2203   -1.4390   -5.5008   H         1 RES1   0.0000
   272 H173      6.7993   -1.5139   -7.1591   H         1 RES1   0.0000
   273 H174      4.1542   -0.2587   -6.2732   H         1 RES1   0.0000
   274 H175      4.3508   -1.8184   -7.0858   H         1 RES1   0.0000
   275 H176      4.7461   -0.3252   -7.9353   H         1 RES1   0.0000
   276 C89      -7.2428   -7.2217    0.0382   C.3       1 RES1   0.0000
   277 C90      -6.9747   -6.0361    0.9590   C.3       1 RES1   0.0000
   278 C91      -7.7369   -4.7738    0.5491   C.3       1 RES1   0.0000
   279 C92      -7.4718   -4.2911   -0.8779   C.3       1 RES1   0.0000
   280 C93      -6.0103   -3.9340   -1.1434   C.3       1 RES1   0.0000
   281 C94      -5.7858   -3.5324   -2.6001   C.3       1 RES1   0.0000
   282 C95      -4.3495   -3.1006   -2.9032   C.3       1 RES1   0.0000
   283 C96      -3.3724   -4.2658   -2.9770   C.3       1 RES1   0.0000
   284 C97      -1.9129   -3.8245   -3.0516   C.3       1 RES1   0.0000
   285 C98      -1.0307   -4.9966   -3.4781   C.3       1 RES1   0.0000
   286 C99       0.3828   -4.9921   -2.9037   C.3       1 RES1   0.0000
   287 C100      1.4048   -4.0495   -3.5592   C.3       1 RES1   0.0000
   288 N5        1.2540   -2.6175   -3.3361   N.am      1 RES1   0.0000
   289 C101      1.0965   -1.6723   -4.4509   C.3       1 RES1   0.0000
   290 C102      1.3739   -2.1526   -5.8720   C.3       1 RES1   0.0000
   291 C103      0.1116   -2.6213   -6.5975   C.3       1 RES1   0.0000
   292 C104      0.3957   -3.2221   -7.9757   C.3       1 RES1   0.0000
   293 C105      1.2329   -4.5020   -7.9437   C.3       1 RES1   0.0000
   294 C106      0.5393   -5.6766   -7.2551   C.3       1 RES1   0.0000
   295 C107      1.4865   -6.8587   -7.0638   C.3       1 RES1   0.0000
   296 C108      0.8315   -7.9934   -6.2863   C.3       1 RES1   0.0000
   297 C109      1.3244   -2.0272   -2.1579   C.2       1 RES1   0.0000
   298 O7        1.1861   -0.7918   -2.0080   O.2       1 RES1   0.0000
   299 C110      1.5302   -2.8052   -0.8617   C.3       1 RES1   0.0000
   300 O8        0.3356   -2.4740   -0.1568   O.3       1 RES1   0.0000
   301 C111      0.0566   -3.2802    0.9754   C.3       1 RES1   0.0000
   302 C112     -1.2658   -2.7199    1.5003   C.2       1 RES1   0.0000
   303 O9       -1.5391   -1.5397    1.1915   O.2       1 RES1   0.0000
   304 N6       -2.0662   -3.5119    2.1943   N.am      1 RES1   0.0000
   305 C113     -3.4367   -3.1013    2.4934   C.3       1 RES1   0.0000
   306 C114     -3.7753   -3.0176    3.9835   C.3       1 RES1   0.0000
   307 C115     -5.2712   -2.7604    4.2316   C.3       1 RES1   0.0000
   308 C116     -5.6355   -1.3028    4.5125   C.3       1 RES1   0.0000
   309 C117     -5.6311   -0.4096    3.2723   C.3       1 RES1   0.0000
   310 C118     -6.8207   -0.6650    2.3474   C.3       1 RES1   0.0000
   311 C119     -6.8323    0.2463    1.1225   C.3       1 RES1   0.0000
   312 C120     -8.0555   -0.0023    0.2493   C.3       1 RES1   0.0000
   313 C121     -1.6708   -4.8290    2.6815   C.3       1 RES1   0.0000
   314 C122     -2.4450   -6.0081    2.0797   C.3       1 RES1   0.0000
   315 C123     -2.1716   -6.2765    0.5968   C.3       1 RES1   0.0000
   316 C124     -2.5899   -7.7044    0.2294   C.3       1 RES1   0.0000
   317 C125     -2.4732   -8.0347   -1.2651   C.3       1 RES1   0.0000
   318 C126     -3.7879   -7.8144   -2.0173   C.3       1 RES1   0.0000
   319 C127     -3.6473   -7.9583   -3.5339   C.3       1 RES1   0.0000
   320 C128     -4.8986   -7.5001   -4.2849   C.3       1 RES1   0.0000
   321 C129     -4.6979   -7.4702   -5.8032   C.3       1 RES1   0.0000
   322 C130     -3.9153   -6.2616   -6.3271   C.3       1 RES1   0.0000
   323 C131     -4.7662   -4.9972   -6.4457   C.3       1 RES1   0.0000
   324 C132     -3.9519   -3.8038   -6.9346   C.3       1 RES1   0.0000
   325 H177     -6.7877   -8.1249    0.4414   H         1 RES1   0.0000
   326 H178     -6.8378   -7.0508   -0.9574   H         1 RES1   0.0000
   327 H179     -8.3127   -7.3951   -0.0488   H         1 RES1   0.0000
   328 H180     -5.8992   -5.8351    0.9921   H         1 RES1   0.0000
   329 H181     -7.2858   -6.3006    1.9725   H         1 RES1   0.0000
   330 H182     -7.4991   -3.9721    1.2553   H         1 RES1   0.0000
   331 H183     -8.8045   -4.9752    0.6426   H         1 RES1   0.0000
   332 H184     -8.0962   -3.4134   -1.0641   H         1 RES1   0.0000
   333 H185     -7.7878   -5.0602   -1.5833   H         1 RES1   0.0000
   334 H186     -5.3886   -4.7985   -0.9109   H         1 RES1   0.0000
   335 H187     -5.7071   -3.1116   -0.4861   H         1 RES1   0.0000
   336 H188     -6.4676   -2.7159   -2.8547   H         1 RES1   0.0000
   337 H189     -6.0433   -4.3752   -3.2430   H         1 RES1   0.0000
   338 H190     -4.0135   -2.4005   -2.1353   H         1 RES1   0.0000
   339 H191     -4.3267   -2.5798   -3.8634   H         1 RES1   0.0000
   340 H192     -3.6053   -4.8537   -3.8605   H         1 RES1   0.0000
   341 H193     -3.4978   -4.9081   -2.1075   H         1 RES1   0.0000
   342 H194     -1.5928   -3.4352   -2.0795   H         1 RES1   0.0000
   343 H195     -1.8169   -3.0099   -3.7696   H         1 RES1   0.0000
   344 H196     -1.0014   -5.0554   -4.5662   H         1 RES1   0.0000
   345 H197     -1.5004   -5.9176   -3.1299   H         1 RES1   0.0000
   346 H198      0.8043   -5.9933   -3.0307   H         1 RES1   0.0000
   347 H199      0.2854   -4.8231   -1.8332   H         1 RES1   0.0000
   348 H200      1.3307   -4.2094   -4.6327   H         1 RES1   0.0000
   349 H201      2.4096   -4.3519   -3.2420   H         1 RES1   0.0000
   350 H202      1.7791   -0.8531   -4.2120   H         1 RES1   0.0000
   351 H203      0.0830   -1.2719   -4.3788   H         1 RES1   0.0000
   352 H204      2.1486   -2.9177   -5.8818   H         1 RES1   0.0000
   353 H205      1.7837   -1.3076   -6.4285   H         1 RES1   0.0000
   354 H206     -0.5431   -1.7564   -6.7301   H         1 RES1   0.0000
   355 H207     -0.4287   -3.3457   -5.9889   H         1 RES1   0.0000
   356 H208      0.9162   -2.4791   -8.5835   H         1 RES1   0.0000
   357 H209     -0.5587   -3.4339   -8.4604   H         1 RES1   0.0000
   358 H210      2.1913   -4.3054   -7.4569   H         1 RES1   0.0000
   359 H211      1.4602   -4.7914   -8.9700   H         1 RES1   0.0000
   360 H212     -0.3195   -5.9899   -7.8512   H         1 RES1   0.0000
   361 H213      0.1601   -5.3773   -6.2753   H         1 RES1   0.0000
   362 H214      2.3805   -6.5211   -6.5311   H         1 RES1   0.0000
   363 H215      1.8040   -7.2247   -8.0407   H         1 RES1   0.0000
   364 H216      0.5180   -7.6594   -5.2971   H         1 RES1   0.0000
   365 H217      1.5278   -8.8188   -6.1630   H         1 RES1   0.0000
   366 H218     -0.0440   -8.3600   -6.8166   H         1 RES1   0.0000
   367 H219      2.3971   -2.3815   -0.3326   H         1 RES1   0.0000
   368 H220      1.6640   -3.8810   -0.9843   H         1 RES1   0.0000
   369 H221      0.8444   -3.1819    1.7412   H         1 RES1   0.0000
   370 H222     -0.0412   -4.3296    0.6745   H         1 RES1   0.0000
   371 H223     -4.1005   -3.8248    2.0150   H         1 RES1   0.0000
   372 H224     -3.5833   -2.1360    2.0122   H         1 RES1   0.0000
   373 H225     -3.1783   -2.2362    4.4572   H         1 RES1   0.0000
   374 H226     -3.5217   -3.9631    4.4624   H         1 RES1   0.0000
   375 H227     -5.5812   -3.3468    5.0961   H         1 RES1   0.0000
   376 H228     -5.8519   -3.1266    3.3839   H         1 RES1   0.0000
   377 H229     -4.9353   -0.9010    5.2471   H         1 RES1   0.0000
   378 H230     -6.6285   -1.2666    4.9622   H         1 RES1   0.0000
   379 H231     -4.6987   -0.5690    2.7268   H         1 RES1   0.0000
   380 H232     -5.6500    0.6368    3.5901   H         1 RES1   0.0000
   381 H233     -7.7427   -0.5131    2.9080   H         1 RES1   0.0000
   382 H234     -6.8071   -1.7018    2.0062   H         1 RES1   0.0000
   383 H235     -5.9291    0.0584    0.5357   H         1 RES1   0.0000
   384 H236     -6.8180    1.2919    1.4417   H         1 RES1   0.0000
   385 H237     -8.0825   -1.0388   -0.0794   H         1 RES1   0.0000
   386 H238     -8.0432    0.6395   -0.6302   H         1 RES1   0.0000
   387 H239     -8.9638    0.2003    0.8099   H         1 RES1   0.0000
   388 H240     -1.8211   -4.8318    3.7624   H         1 RES1   0.0000
   389 H241     -0.6050   -4.9709    2.5164   H         1 RES1   0.0000
   390 H242     -3.5186   -5.8881    2.2337   H         1 RES1   0.0000
   391 H243     -2.1475   -6.8869    2.6553   H         1 RES1   0.0000
   392 H244     -1.1006   -6.1747    0.3993   H         1 RES1   0.0000
   393 H245     -2.6978   -5.5504   -0.0274   H         1 RES1   0.0000
   394 H246     -3.6201   -7.8718    0.5482   H         1 RES1   0.0000
   395 H247     -1.9565   -8.3872    0.7981   H         1 RES1   0.0000
   396 H248     -2.1797   -9.0780   -1.3800   H         1 RES1   0.0000
   397 H249     -1.6769   -7.4325   -1.7121   H         1 RES1   0.0000
   398 H250     -4.1772   -6.8212   -1.7845   H         1 RES1   0.0000
   399 H251     -4.5207   -8.5369   -1.6550   H         1 RES1   0.0000
   400 H252     -3.4464   -9.0020   -3.7797   H         1 RES1   0.0000
   401 H253     -2.7884   -7.3791   -3.8782   H         1 RES1   0.0000
   402 H254     -5.1987   -6.5111   -3.9324   H         1 RES1   0.0000
   403 H255     -5.7153   -8.1845   -4.0525   H         1 RES1   0.0000
   404 H256     -5.6734   -7.4825   -6.2910   H         1 RES1   0.0000
   405 H257     -4.1767   -8.3831   -6.0953   H         1 RES1   0.0000
   406 H258     -3.5251   -6.5033   -7.3179   H         1 RES1   0.0000
   407 H259     -3.0533   -6.0687   -5.6828   H         1 RES1   0.0000
   408 H260     -5.2165   -4.7508   -5.4823   H         1 RES1   0.0000
   409 H261     -5.5810   -5.1842   -7.1462   H         1 RES1   0.0000
   410 H262     -3.1455   -3.5743   -6.2374   H         1 RES1   0.0000
   411 H263     -4.5867   -2.9248   -7.0343   H         1 RES1   0.0000
   412 H264     -3.5118   -4.0139   -7.9074   H         1 RES1   0.0000
@<TRIPOS>BOND
     1     1    24    1
     2     1    26    1
     3     1    29    1
     4     1   161    1
     5     1   163    1
     6     1   166    1
     7     1   298    1
     8     1   300    1
     9     1   303    1
    10     2     3    1
    11     2    51    1
    12     2    52    1
    13     2    53    1
    14     3     4    1
    15     3    54    1
    16     3    55    1
    17     4     5    1
    18     4    56    1
    19     4    57    1
    20     5     6    1
    21     5    58    1
    22     5    59    1
    23     6     7    1
    24     6    60    1
    25     6    61    1
    26     7     8    1
    27     7    62    1
    28     7    63    1
    29     8     9    1
    30     8    64    1
    31     8    65    1
    32     9    10    1
    33     9    66    1
    34     9    67    1
    35    10    11    1
    36    10    68    1
    37    10    69    1
    38    11    12    1
    39    11    70    1
    40    11    71    1
    41    12    13    1
    42    12    72    1
    43    12    73    1
    44    13    14    1
    45    13    74    1
    46    13    75    1
    47    14    15    1
    48    14    23    1
    49    15    16    1
    50    15    76    1
    51    15    77    1
    52    16    17    1
    53    16    78    1
    54    16    79    1
    55    17    18    1
    56    17    80    1
    57    17    81    1
    58    18    19    1
    59    18    82    1
    60    18    83    1
    61    19    20    1
    62    19    84    1
    63    19    85    1
    64    20    21    1
    65    20    86    1
    66    20    87    1
    67    21    22    1
    68    21    88    1
    69    21    89    1
    70    22    90    1
    71    22    91    1
    72    22    92    1
    73    23    24    2
    74    23    25    1
    75    25    26    1
    76    25    93    1
    77    25    94    1
    78    26    27    1
    79    27    28    1
    80    27    95    1
    81    27    96    1
    82    28    29    2
    83    28    30    1
    84    30    31    1
    85    30    39    1
    86    31    32    1
    87    31    97    1
    88    31    98    1
    89    32    33    1
    90    32    99    1
    91    32   100    1
    92    33    34    1
    93    33   101    1
    94    33   102    1
    95    34    35    1
    96    34   103    1
    97    34   104    1
    98    35    36    1
    99    35   105    1
   100    35   106    1
   101    36    37    1
   102    36   107    1
   103    36   108    1
   104    37    38    1
   105    37   109    1
   106    37   110    1
   107    38   111    1
   108    38   112    1
   109    38   113    1
   110    39    40    1
   111    39   114    1
   112    39   115    1
   113    40    41    1
   114    40   116    1
   115    40   117    1
   116    41    42    1
   117    41   118    1
   118    41   119    1
   119    42    43    1
   120    42   120    1
   121    42   121    1
   122    43    44    1
   123    43   122    1
   124    43   123    1
   125    44    45    1
   126    44   124    1
   127    44   125    1
   128    45    46    1
   129    45   126    1
   130    45   127    1
   131    46    47    1
   132    46   128    1
   133    46   129    1
   134    47    48    1
   135    47   130    1
   136    47   131    1
   137    48    49    1
   138    48   132    1
   139    48   133    1
   140    49    50    1
   141    49   134    1
   142    49   135    1
   143    50   136    1
   144    50   137    1
   145    50   138    1
   146   139   140    1
   147   139   188    1
   148   139   189    1
   149   139   190    1
   150   140   141    1
   151   140   191    1
   152   140   192    1
   153   141   142    1
   154   141   193    1
   155   141   194    1
   156   142   143    1
   157   142   195    1
   158   142   196    1
   159   143   144    1
   160   143   197    1
   161   143   198    1
   162   144   145    1
   163   144   199    1
   164   144   200    1
   165   145   146    1
   166   145   201    1
   167   145   202    1
   168   146   147    1
   169   146   203    1
   170   146   204    1
   171   147   148    1
   172   147   205    1
   173   147   206    1
   174   148   149    1
   175   148   207    1
   176   148   208    1
   177   149   150    1
   178   149   209    1
   179   149   210    1
   180   150   151    1
   181   150   211    1
   182   150   212    1
   183   151   152    1
   184   151   160    1
   185   152   153    1
   186   152   213    1
   187   152   214    1
   188   153   154    1
   189   153   215    1
   190   153   216    1
   191   154   155    1
   192   154   217    1
   193   154   218    1
   194   155   156    1
   195   155   219    1
   196   155   220    1
   197   156   157    1
   198   156   221    1
   199   156   222    1
   200   157   158    1
   201   157   223    1
   202   157   224    1
   203   158   159    1
   204   158   225    1
   205   158   226    1
   206   159   227    1
   207   159   228    1
   208   159   229    1
   209   160   161    2
   210   160   162    1
   211   162   163    1
   212   162   230    1
   213   162   231    1
   214   163   164    1
   215   164   165    1
   216   164   232    1
   217   164   233    1
   218   165   166    2
   219   165   167    1
   220   167   168    1
   221   167   176    1
   222   168   169    1
   223   168   234    1
   224   168   235    1
   225   169   170    1
   226   169   236    1
   227   169   237    1
   228   170   171    1
   229   170   238    1
   230   170   239    1
   231   171   172    1
   232   171   240    1
   233   171   241    1
   234   172   173    1
   235   172   242    1
   236   172   243    1
   237   173   174    1
   238   173   244    1
   239   173   245    1
   240   174   175    1
   241   174   246    1
   242   174   247    1
   243   175   248    1
   244   175   249    1
   245   175   250    1
   246   176   177    1
   247   176   251    1
   248   176   252    1
   249   177   178    1
   250   177   253    1
   251   177   254    1
   252   178   179    1
   253   178   255    1
   254   178   256    1
   255   179   180    1
   256   179   257    1
   257   179   258    1
   258   180   181    1
   259   180   259    1
   260   180   260    1
   261   181   182    1
   262   181   261    1
   263   181   262    1
   264   182   183    1
   265   182   263    1
   266   182   264    1
   267   183   184    1
   268   183   265    1
   269   183   266    1
   270   184   185    1
   271   184   267    1
   272   184   268    1
   273   185   186    1
   274   185   269    1
   275   185   270    1
   276   186   187    1
   277   186   271    1
   278   186   272    1
   279   187   273    1
   280   187   274    1
   281   187   275    1
   282   276   277    1
   283   276   325    1
   284   276   326    1
   285   276   327    1
   286   277   278    1
   287   277   328    1
   288   277   329    1
   289   278   279    1
   290   278   330    1
   291   278   331    1
   292   279   280    1
   293   279   332    1
   294   279   333    1
   295   280   281    1
   296   280   334    1
   297   280   335    1
   298   281   282    1
   299   281   336    1
   300   281   337    1
   301   282   283    1
   302   282   338    1
   303   282   339    1
   304   283   284    1
   305   283   340    1
   306   283   341    1
   307   284   285    1
   308   284   342    1
   309   284   343    1
   310   285   286    1
   311   285   344    1
   312   285   345    1
   313   286   287    1
   314   286   346    1
   315   286   347    1
   316   287   288    1
   317   287   348    1
   318   287   349    1
   319   288   289    1
   320   288   297    1
   321   289   290    1
   322   289   350    1
   323   289   351    1
   324   290   291    1
   325   290   352    1
   326   290   353    1
   327   291   292    1
   328   291   354    1
   329   291   355    1
   330   292   293    1
   331   292   356    1
   332   292   357    1
   333   293   294    1
   334   293   358    1
   335   293   359    1
   336   294   295    1
   337   294   360    1
   338   294   361    1
   339   295   296    1
   340   295   362    1
   341   295   363    1
   342   296   364    1
   343   296   365    1
   344   296   366    1
   345   297   298    2
   346   297   299    1
   347   299   300    1
   348   299   367    1
   349   299   368    1
   350   300   301    1
   351   301   302    1
   352   301   369    1
   353   301   370    1
   354   302   303    2
   355   302   304    1
   356   304   305    1
   357   304   313    1
   358   305   306    1
   359   305   371    1
   360   305   372    1
   361   306   307    1
   362   306   373    1
   363   306   374    1
   364   307   308    1
   365   307   375    1
   366   307   376    1
   367   308   309    1
   368   308   377    1
   369   308   378    1
   370   309   310    1
   371   309   379    1
   372   309   380    1
   373   310   311    1
   374   310   381    1
   375   310   382    1
   376   311   312    1
   377   311   383    1
   378   311   384    1
   379   312   385    1
   380   312   386    1
   381   312   387    1
   382   313   314    1
   383   313   388    1
   384   313   389    1
   385   314   315    1
   386   314   390    1
   387   314   391    1
   388   315   316    1
   389   315   392    1
   390   315   393    1
   391   316   317    1
   392   316   394    1
   393   316   395    1
   394   317   318    1
   395   317   396    1
   396   317   397    1
   397   318   319    1
   398   318   398    1
   399   318   399    1
   400   319   320    1
   401   319   400    1
   402   319   401    1
   403   320   321    1
   404   320   402    1
   405   320   403    1
   406   321   322    1
   407   321   404    1
   408   321   405    1
   409   322   323    1
   410   322   406    1
   411   322   407    1
   412   323   324    1
   413   323   408    1
   414   323   409    1
   415   324   410    1
   416   324   411    1
   417   324   412    1
@<TRIPOS>SUBSTRUCTURE
     1 RES1      412 GROUP             0 ****  ****    0  
