@<TRIPOS>MOLECULE
cn9_YICLED_0_nunpairedes_0_charge_3 Charge: 3 Unpaired_Electrons: 6 XTB_Unpaired_Electrons: 0 XTB_Charge: 3
   232   237     1     0     0
SMALL
NoCharges
****
Generated from Architector

@<TRIPOS>ATOM
     1 Eu1      -0.1233   -0.3304   -0.0858   Eu        1 RES1   0.0000
     2 C1        0.1377    2.7836    7.0396   C.3       1 RES1   0.0000
     3 C2       -0.2274    2.3081    8.4426   C.3       1 RES1   0.0000
     4 C3       -1.5714    1.5848    8.5668   C.3       1 RES1   0.0000
     5 C4       -1.6247    0.1629    7.9990   C.3       1 RES1   0.0000
     6 C5       -1.8231   -0.0015    6.4854   C.3       1 RES1   0.0000
     7 C6       -3.2354    0.2901    5.9586   C.3       1 RES1   0.0000
     8 C7       -3.5464    1.7549    5.6292   C.3       1 RES1   0.0000
     9 C8       -2.7818    2.3396    4.4351   C.3       1 RES1   0.0000
    10 N1       -2.9044    1.5199    3.2388   N.am      1 RES1   0.0000
    11 C9       -4.2580    1.2714    2.7442   C.3       1 RES1   0.0000
    12 C10      -5.0020    2.5643    2.4388   C.3       1 RES1   0.0000
    13 C11      -1.8914    0.9624    2.5926   C.2       1 RES1   0.0000
    14 O1       -2.0237    0.1735    1.6405   O.2       1 RES1   0.0000
    15 C12      -0.4442    1.3556    2.9247   C.3       1 RES1   0.0000
    16 O2        0.4286    0.3866    2.3521   O.3       1 RES1   0.0000
    17 C13       0.5037   -0.7816    3.1860   C.3       1 RES1   0.0000
    18 C14       0.2624   -2.0776    2.4145   C.2       1 RES1   0.0000
    19 O3       -0.2343   -2.0216    1.2726   O.2       1 RES1   0.0000
    20 N2        0.5200   -3.2277    3.0156   N.am      1 RES1   0.0000
    21 C15       1.0392   -3.3986    4.3641   C.3       1 RES1   0.0000
    22 C16       2.3267   -4.2256    4.4068   C.3       1 RES1   0.0000
    23 C17      -0.0155   -4.4282    2.3734   C.3       1 RES1   0.0000
    24 C18      -1.5396   -4.3697    2.3738   C.3       1 RES1   0.0000
    25 C19      -2.1863   -5.6617    1.8917   C.3       1 RES1   0.0000
    26 C20      -3.7100   -5.5492    1.9292   C.3       1 RES1   0.0000
    27 C21      -4.2583   -4.6019    0.8616   C.3       1 RES1   0.0000
    28 C22      -5.7516   -4.3020    1.0192   C.3       1 RES1   0.0000
    29 C23      -6.0772   -3.0759    1.8759   C.3       1 RES1   0.0000
    30 C24      -5.6708   -3.1997    3.3404   C.3       1 RES1   0.0000
    31 H1        1.0202    3.4167    7.0808   H         1 RES1   0.0000
    32 H2        0.3672    1.9480    6.3804   H         1 RES1   0.0000
    33 H3       -0.6742    3.3674    6.6099   H         1 RES1   0.0000
    34 H4        0.5671    1.6633    8.8232   H         1 RES1   0.0000
    35 H5       -0.2639    3.1894    9.0849   H         1 RES1   0.0000
    36 H6       -1.7833    1.5105    9.6338   H         1 RES1   0.0000
    37 H7       -2.3581    2.2036    8.1390   H         1 RES1   0.0000
    38 H8       -0.6946   -0.3385    8.2775   H         1 RES1   0.0000
    39 H9       -2.4350   -0.3738    8.4942   H         1 RES1   0.0000
    40 H10      -1.1003    0.6098    5.9466   H         1 RES1   0.0000
    41 H11      -1.6029   -1.0494    6.2569   H         1 RES1   0.0000
    42 H12      -3.4044   -0.3176    5.0625   H         1 RES1   0.0000
    43 H13      -3.9549   -0.0380    6.7100   H         1 RES1   0.0000
    44 H14      -4.6131    1.8458    5.4331   H         1 RES1   0.0000
    45 H15      -3.3175    2.3851    6.4870   H         1 RES1   0.0000
    46 H16      -3.1752    3.3351    4.2101   H         1 RES1   0.0000
    47 H17      -1.7338    2.4524    4.6906   H         1 RES1   0.0000
    48 H18      -4.1480    0.6696    1.8405   H         1 RES1   0.0000
    49 H19      -4.8089    0.6792    3.4779   H         1 RES1   0.0000
    50 H20      -4.4510    3.1885    1.7388   H         1 RES1   0.0000
    51 H21      -5.9676    2.3319    2.0036   H         1 RES1   0.0000
    52 H22      -5.1802    3.1333    3.3425   H         1 RES1   0.0000
    53 H23      -0.2319    2.3121    2.4361   H         1 RES1   0.0000
    54 H24      -0.2360    1.4346    3.9916   H         1 RES1   0.0000
    55 H25       1.4852   -0.7874    3.6537   H         1 RES1   0.0000
    56 H26      -0.2711   -0.7387    3.9550   H         1 RES1   0.0000
    57 H27       1.2335   -2.4294    4.8177   H         1 RES1   0.0000
    58 H28       0.2735   -3.9018    4.9639   H         1 RES1   0.0000
    59 H29       3.0925   -3.8102    3.7529   H         1 RES1   0.0000
    60 H30       2.7001   -4.2261    5.4295   H         1 RES1   0.0000
    61 H31       2.1537   -5.2592    4.1186   H         1 RES1   0.0000
    62 H32       0.3524   -4.4747    1.3478   H         1 RES1   0.0000
    63 H33       0.3335   -5.3050    2.9142   H         1 RES1   0.0000
    64 H34      -1.8778   -4.1473    3.3873   H         1 RES1   0.0000
    65 H35      -1.8478   -3.5509    1.7246   H         1 RES1   0.0000
    66 H36      -1.8546   -5.8788    0.8760   H         1 RES1   0.0000
    67 H37      -1.8702   -6.4849    2.5328   H         1 RES1   0.0000
    68 H38      -4.1441   -6.5351    1.7698   H         1 RES1   0.0000
    69 H39      -4.0132   -5.2211    2.9210   H         1 RES1   0.0000
    70 H40      -3.7022   -3.6613    0.8657   H         1 RES1   0.0000
    71 H41      -4.0885   -5.0742   -0.1071   H         1 RES1   0.0000
    72 H42      -6.1870   -4.1369    0.0319   H         1 RES1   0.0000
    73 H43      -6.2443   -5.1739    1.4461   H         1 RES1   0.0000
    74 H44      -5.6004   -2.1889    1.4441   H         1 RES1   0.0000
    75 H45      -7.1567   -2.9212    1.8360   H         1 RES1   0.0000
    76 H46      -4.5898   -3.1786    3.4528   H         1 RES1   0.0000
    77 H47      -6.0874   -2.3810    3.9234   H         1 RES1   0.0000
    78 H48      -6.0485   -4.1273    3.7603   H         1 RES1   0.0000
    79 C25      -1.8693    6.9669   -2.2161   C.3       1 RES1   0.0000
    80 C26      -2.9597    7.5134   -3.1321   C.3       1 RES1   0.0000
    81 C27      -3.0643    6.8565   -4.5119   C.3       1 RES1   0.0000
    82 C28      -3.6852    5.4572   -4.5515   C.3       1 RES1   0.0000
    83 C29      -2.8024    4.2641   -4.1670   C.3       1 RES1   0.0000
    84 C30      -1.6600    3.9428   -5.1389   C.3       1 RES1   0.0000
    85 C31      -0.3376    4.6726   -4.8766   C.3       1 RES1   0.0000
    86 C32       0.3586    4.3159   -3.5544   C.3       1 RES1   0.0000
    87 N3        0.4577    2.8804   -3.3612   N.am      1 RES1   0.0000
    88 C33       1.1636    2.1448   -4.4064   C.3       1 RES1   0.0000
    89 C34       2.6098    2.6057   -4.5682   C.3       1 RES1   0.0000
    90 C35      -0.0825    2.1941   -2.3650   C.2       1 RES1   0.0000
    91 O4       -0.1028    0.9521   -2.3158   O.2       1 RES1   0.0000
    92 C36      -0.6059    2.9250   -1.1160   C.3       1 RES1   0.0000
    93 O5       -1.3313    2.0089   -0.3034   O.3       1 RES1   0.0000
    94 C37      -2.6911    1.8494   -0.7382   C.3       1 RES1   0.0000
    95 C38      -3.0462    0.3740   -0.9801   C.2       1 RES1   0.0000
    96 O6       -2.1398   -0.4778   -0.9651   O.2       1 RES1   0.0000
    97 N4       -4.3139    0.0572   -1.1936   N.am      1 RES1   0.0000
    98 C39      -5.4110    1.0033   -1.3318   C.3       1 RES1   0.0000
    99 C40      -6.5594    0.7111   -0.3658   C.3       1 RES1   0.0000
   100 C41      -4.6162   -1.3546   -1.4232   C.3       1 RES1   0.0000
   101 C42      -4.0592   -1.8559   -2.7497   C.3       1 RES1   0.0000
   102 C43      -4.4442   -3.3164   -2.9678   C.3       1 RES1   0.0000
   103 C44      -3.8263   -3.8975   -4.2382   C.3       1 RES1   0.0000
   104 C45      -2.3100   -4.0843   -4.1326   C.3       1 RES1   0.0000
   105 C46      -1.6155   -4.1903   -5.4929   C.3       1 RES1   0.0000
   106 C47      -1.1797   -2.8541   -6.1003   C.3       1 RES1   0.0000
   107 C48      -2.3195   -1.8979   -6.4329   C.3       1 RES1   0.0000
   108 H49      -1.7823    7.5885   -1.3290   H         1 RES1   0.0000
   109 H50      -2.0967    5.9562   -1.8816   H         1 RES1   0.0000
   110 H51      -0.9064    6.9696   -2.7220   H         1 RES1   0.0000
   111 H52      -3.9245    7.4436   -2.6260   H         1 RES1   0.0000
   112 H53      -2.7507    8.5733   -3.2848   H         1 RES1   0.0000
   113 H54      -3.7088    7.5014   -5.1098   H         1 RES1   0.0000
   114 H55      -2.0903    6.8608   -4.9983   H         1 RES1   0.0000
   115 H56      -4.5583    5.4592   -3.8947   H         1 RES1   0.0000
   116 H57      -4.0480    5.2763   -5.5642   H         1 RES1   0.0000
   117 H58      -2.3949    4.4044   -3.1670   H         1 RES1   0.0000
   118 H59      -3.4597    3.3896   -4.1331   H         1 RES1   0.0000
   119 H60      -1.4793    2.8635   -5.1153   H         1 RES1   0.0000
   120 H61      -1.9833    4.1928   -6.1503   H         1 RES1   0.0000
   121 H62       0.3448    4.4634   -5.6996   H         1 RES1   0.0000
   122 H63      -0.5052    5.7477   -4.8647   H         1 RES1   0.0000
   123 H64       1.3682    4.7358   -3.5622   H         1 RES1   0.0000
   124 H65      -0.1753    4.7620   -2.7224   H         1 RES1   0.0000
   125 H66       1.1223    1.0918   -4.1245   H         1 RES1   0.0000
   126 H67       0.6388    2.2606   -5.3556   H         1 RES1   0.0000
   127 H68       3.1256    2.6535   -3.6110   H         1 RES1   0.0000
   128 H69       3.1353    1.9099   -5.2183   H         1 RES1   0.0000
   129 H70       2.6598    3.5868   -5.0289   H         1 RES1   0.0000
   130 H71       0.2616    3.2448   -0.5282   H         1 RES1   0.0000
   131 H72      -1.2198    3.8002   -1.3302   H         1 RES1   0.0000
   132 H73      -3.3370    2.2587    0.0417   H         1 RES1   0.0000
   133 H74      -2.8529    2.3994   -1.6667   H         1 RES1   0.0000
   134 H75      -5.0503    2.0140   -1.1538   H         1 RES1   0.0000
   135 H76      -5.7841    0.9593   -2.3595   H         1 RES1   0.0000
   136 H77      -6.1827    0.5494    0.6414   H         1 RES1   0.0000
   137 H78      -7.2368    1.5622   -0.3592   H         1 RES1   0.0000
   138 H79      -7.1322   -0.1628   -0.6630   H         1 RES1   0.0000
   139 H80      -4.1778   -1.9360   -0.6084   H         1 RES1   0.0000
   140 H81      -5.6947   -1.4843   -1.4106   H         1 RES1   0.0000
   141 H82      -4.4428   -1.2419   -3.5656   H         1 RES1   0.0000
   142 H83      -2.9746   -1.7584   -2.7293   H         1 RES1   0.0000
   143 H84      -4.1258   -3.9026   -2.1051   H         1 RES1   0.0000
   144 H85      -5.5300   -3.3880   -3.0359   H         1 RES1   0.0000
   145 H86      -4.2814   -4.8680   -4.4363   H         1 RES1   0.0000
   146 H87      -4.0754   -3.2528   -5.0772   H         1 RES1   0.0000
   147 H88      -1.8655   -3.2632   -3.5645   H         1 RES1   0.0000
   148 H89      -2.1299   -4.9995   -3.5660   H         1 RES1   0.0000
   149 H90      -0.7237   -4.8116   -5.3887   H         1 RES1   0.0000
   150 H91      -2.2797   -4.6980   -6.1903   H         1 RES1   0.0000
   151 H92      -0.4857   -2.3494   -5.4203   H         1 RES1   0.0000
   152 H93      -0.6390   -3.0726   -7.0229   H         1 RES1   0.0000
   153 H94      -2.7884   -1.5196   -5.5290   H         1 RES1   0.0000
   154 H95      -1.9485   -1.0481   -7.0018   H         1 RES1   0.0000
   155 H96      -3.0705   -2.3957   -7.0390   H         1 RES1   0.0000
   156 C49       6.6527    3.4411   -0.2783   C.3       1 RES1   0.0000
   157 C50       7.9986    3.0878   -0.9032   C.3       1 RES1   0.0000
   158 C51       8.5950    1.7404   -0.4846   C.3       1 RES1   0.0000
   159 C52       7.9605    0.4948   -1.1096   C.3       1 RES1   0.0000
   160 C53       6.6487   -0.0225   -0.5096   C.3       1 RES1   0.0000
   161 C54       6.7507   -0.5949    0.9093   C.3       1 RES1   0.0000
   162 C55       6.5517    0.4101    2.0496   C.3       1 RES1   0.0000
   163 C56       5.1613    1.0597    2.1198   C.3       1 RES1   0.0000
   164 N5        4.0906    0.0845    2.0143   N.am      1 RES1   0.0000
   165 C57       4.1104   -0.9851    3.0068   C.3       1 RES1   0.0000
   166 C58       3.9862   -0.4747    4.4396   C.3       1 RES1   0.0000
   167 C59       3.1466    0.0650    1.0900   C.2       1 RES1   0.0000
   168 O7        2.2930   -0.8371    0.9898   O.2       1 RES1   0.0000
   169 C60       2.9832    1.2374    0.1075   C.3       1 RES1   0.0000
   170 O8        2.0875    0.8308   -0.9171   O.3       1 RES1   0.0000
   171 C61       2.7425    0.0086   -1.8951   C.3       1 RES1   0.0000
   172 C62       1.9098   -1.2250   -2.2511   C.2       1 RES1   0.0000
   173 O9        0.9577   -1.5515   -1.5148   O.2       1 RES1   0.0000
   174 N6        2.2570   -1.9495   -3.2982   N.am      1 RES1   0.0000
   175 C63       3.3151   -1.6479   -4.2479   C.3       1 RES1   0.0000
   176 C64       2.7363   -1.3168   -5.6247   C.3       1 RES1   0.0000
   177 C65       1.5322   -3.2019   -3.5004   C.3       1 RES1   0.0000
   178 C66       1.9516   -4.2560   -2.4806   C.3       1 RES1   0.0000
   179 C67       1.3745   -5.6208   -2.8537   C.3       1 RES1   0.0000
   180 C68       1.7918   -6.7211   -1.8779   C.3       1 RES1   0.0000
   181 C69       1.1027   -6.5837   -0.5195   C.3       1 RES1   0.0000
   182 C70       1.8015   -7.3334    0.6166   C.3       1 RES1   0.0000
   183 C71       2.8955   -6.5426    1.3391   C.3       1 RES1   0.0000
   184 C72       4.1238   -6.2219    0.4945   C.3       1 RES1   0.0000
   185 H97       6.3860    4.4666   -0.5200   H         1 RES1   0.0000
   186 H98       5.8560    2.8024   -0.6558   H         1 RES1   0.0000
   187 H99       6.6983    3.3543    0.8050   H         1 RES1   0.0000
   188 H100      7.9120    3.1211   -1.9912   H         1 RES1   0.0000
   189 H101      8.7032    3.8675   -0.6105   H         1 RES1   0.0000
   190 H102      9.6373    1.7538   -0.8041   H         1 RES1   0.0000
   191 H103      8.6070    1.6632    0.6012   H         1 RES1   0.0000
   192 H104      7.7930    0.6978   -2.1699   H         1 RES1   0.0000
   193 H105      8.6838   -0.3192   -1.0502   H         1 RES1   0.0000
   194 H106      5.8935    0.7609   -0.5278   H         1 RES1   0.0000
   195 H107      6.3030   -0.8281   -1.1651   H         1 RES1   0.0000
   196 H108      6.0129   -1.3969    1.0102   H         1 RES1   0.0000
   197 H109      7.7349   -1.0483    1.0320   H         1 RES1   0.0000
   198 H110      6.7482   -0.0962    2.9942   H         1 RES1   0.0000
   199 H111      7.2743    1.2194    1.9614   H         1 RES1   0.0000
   200 H112      5.0620    1.5691    3.0825   H         1 RES1   0.0000
   201 H113      5.0571    1.8059    1.3392   H         1 RES1   0.0000
   202 H114      3.2838   -1.6515    2.7584   H         1 RES1   0.0000
   203 H115      5.0393   -1.5469    2.9049   H         1 RES1   0.0000
   204 H116      3.1581    0.2233    4.5564   H         1 RES1   0.0000
   205 H117      3.8302   -1.3247    5.1004   H         1 RES1   0.0000
   206 H118      4.8961    0.0272    4.7525   H         1 RES1   0.0000
   207 H119      2.5074    2.0720    0.6335   H         1 RES1   0.0000
   208 H120      3.9162    1.5872   -0.3363   H         1 RES1   0.0000
   209 H121      2.9295    0.6173   -2.7796   H         1 RES1   0.0000
   210 H122      3.6893   -0.3602   -1.4936   H         1 RES1   0.0000
   211 H123      3.9239   -0.8168   -3.8944   H         1 RES1   0.0000
   212 H124      3.9639   -2.5237   -4.3266   H         1 RES1   0.0000
   213 H125      1.9922   -0.5252   -5.5503   H         1 RES1   0.0000
   214 H126      3.5349   -0.9902   -6.2860   H         1 RES1   0.0000
   215 H127      2.2697   -2.1880   -6.0778   H         1 RES1   0.0000
   216 H128      0.4622   -3.0095   -3.3990   H         1 RES1   0.0000
   217 H129      1.7335   -3.5648   -4.5044   H         1 RES1   0.0000
   218 H130      3.0408   -4.3156   -2.4440   H         1 RES1   0.0000
   219 H131      1.5962   -3.9428   -1.4988   H         1 RES1   0.0000
   220 H132      0.2861   -5.5520   -2.8904   H         1 RES1   0.0000
   221 H133      1.7267   -5.8859   -3.8514   H         1 RES1   0.0000
   222 H134      1.5370   -7.6912   -2.3033   H         1 RES1   0.0000
   223 H135      2.8729   -6.7005   -1.7646   H         1 RES1   0.0000
   224 H136      1.0269   -5.5268   -0.2597   H         1 RES1   0.0000
   225 H137      0.0847   -6.9623   -0.6219   H         1 RES1   0.0000
   226 H138      1.0549   -7.6164    1.3611   H         1 RES1   0.0000
   227 H139      2.2282   -8.2543    0.2243   H         1 RES1   0.0000
   228 H140      2.4786   -5.6047    1.7173   H         1 RES1   0.0000
   229 H141      3.2202   -7.1353    2.1968   H         1 RES1   0.0000
   230 H142      3.8869   -5.4982   -0.2805   H         1 RES1   0.0000
   231 H143      4.9127   -5.8033    1.1161   H         1 RES1   0.0000
   232 H144      4.5138   -7.1221    0.0289   H         1 RES1   0.0000
@<TRIPOS>BOND
     1     1    14    1
     2     1    16    1
     3     1    19    1
     4     1    91    1
     5     1    93    1
     6     1    96    1
     7     1   168    1
     8     1   170    1
     9     1   173    1
    10     2     3    1
    11     2    31    1
    12     2    32    1
    13     2    33    1
    14     3     4    1
    15     3    34    1
    16     3    35    1
    17     4     5    1
    18     4    36    1
    19     4    37    1
    20     5     6    1
    21     5    38    1
    22     5    39    1
    23     6     7    1
    24     6    40    1
    25     6    41    1
    26     7     8    1
    27     7    42    1
    28     7    43    1
    29     8     9    1
    30     8    44    1
    31     8    45    1
    32     9    10    1
    33     9    46    1
    34     9    47    1
    35    10    11    1
    36    10    13    1
    37    11    12    1
    38    11    48    1
    39    11    49    1
    40    12    50    1
    41    12    51    1
    42    12    52    1
    43    13    14    2
    44    13    15    1
    45    15    16    1
    46    15    53    1
    47    15    54    1
    48    16    17    1
    49    17    18    1
    50    17    55    1
    51    17    56    1
    52    18    19    2
    53    18    20    1
    54    20    21    1
    55    20    23    1
    56    21    22    1
    57    21    57    1
    58    21    58    1
    59    22    59    1
    60    22    60    1
    61    22    61    1
    62    23    24    1
    63    23    62    1
    64    23    63    1
    65    24    25    1
    66    24    64    1
    67    24    65    1
    68    25    26    1
    69    25    66    1
    70    25    67    1
    71    26    27    1
    72    26    68    1
    73    26    69    1
    74    27    28    1
    75    27    70    1
    76    27    71    1
    77    28    29    1
    78    28    72    1
    79    28    73    1
    80    29    30    1
    81    29    74    1
    82    29    75    1
    83    30    76    1
    84    30    77    1
    85    30    78    1
    86    79    80    1
    87    79   108    1
    88    79   109    1
    89    79   110    1
    90    80    81    1
    91    80   111    1
    92    80   112    1
    93    81    82    1
    94    81   113    1
    95    81   114    1
    96    82    83    1
    97    82   115    1
    98    82   116    1
    99    83    84    1
   100    83   117    1
   101    83   118    1
   102    84    85    1
   103    84   119    1
   104    84   120    1
   105    85    86    1
   106    85   121    1
   107    85   122    1
   108    86    87    1
   109    86   123    1
   110    86   124    1
   111    87    88    1
   112    87    90    1
   113    88    89    1
   114    88   125    1
   115    88   126    1
   116    89   127    1
   117    89   128    1
   118    89   129    1
   119    90    91    2
   120    90    92    1
   121    92    93    1
   122    92   130    1
   123    92   131    1
   124    93    94    1
   125    94    95    1
   126    94   132    1
   127    94   133    1
   128    95    96    2
   129    95    97    1
   130    97    98    1
   131    97   100    1
   132    98    99    1
   133    98   134    1
   134    98   135    1
   135    99   136    1
   136    99   137    1
   137    99   138    1
   138   100   101    1
   139   100   139    1
   140   100   140    1
   141   101   102    1
   142   101   141    1
   143   101   142    1
   144   102   103    1
   145   102   143    1
   146   102   144    1
   147   103   104    1
   148   103   145    1
   149   103   146    1
   150   104   105    1
   151   104   147    1
   152   104   148    1
   153   105   106    1
   154   105   149    1
   155   105   150    1
   156   106   107    1
   157   106   151    1
   158   106   152    1
   159   107   153    1
   160   107   154    1
   161   107   155    1
   162   156   157    1
   163   156   185    1
   164   156   186    1
   165   156   187    1
   166   157   158    1
   167   157   188    1
   168   157   189    1
   169   158   159    1
   170   158   190    1
   171   158   191    1
   172   159   160    1
   173   159   192    1
   174   159   193    1
   175   160   161    1
   176   160   194    1
   177   160   195    1
   178   161   162    1
   179   161   196    1
   180   161   197    1
   181   162   163    1
   182   162   198    1
   183   162   199    1
   184   163   164    1
   185   163   200    1
   186   163   201    1
   187   164   165    1
   188   164   167    1
   189   165   166    1
   190   165   202    1
   191   165   203    1
   192   166   204    1
   193   166   205    1
   194   166   206    1
   195   167   168    2
   196   167   169    1
   197   169   170    1
   198   169   207    1
   199   169   208    1
   200   170   171    1
   201   171   172    1
   202   171   209    1
   203   171   210    1
   204   172   173    2
   205   172   174    1
   206   174   175    1
   207   174   177    1
   208   175   176    1
   209   175   211    1
   210   175   212    1
   211   176   213    1
   212   176   214    1
   213   176   215    1
   214   177   178    1
   215   177   216    1
   216   177   217    1
   217   178   179    1
   218   178   218    1
   219   178   219    1
   220   179   180    1
   221   179   220    1
   222   179   221    1
   223   180   181    1
   224   180   222    1
   225   180   223    1
   226   181   182    1
   227   181   224    1
   228   181   225    1
   229   182   183    1
   230   182   226    1
   231   182   227    1
   232   183   184    1
   233   183   228    1
   234   183   229    1
   235   184   230    1
   236   184   231    1
   237   184   232    1
@<TRIPOS>SUBSTRUCTURE
     1 RES1      232 GROUP             0 ****  ****    0  
