@<TRIPOS>MOLECULE
am_c3_9H2O_c0_0_nunpairedes_0_charge_3 Charge: 3 Unpaired_Electrons: 6 XTB_Unpaired_Electrons: 0 XTB_Charge: 3
   196   201     1     0     0
SMALL
NoCharges
****
Generated from Architector

@<TRIPOS>ATOM
     1 Eu1      -0.0366    0.0748   -0.0660   Eu        1 RES1   0.0000
     2 C1       -0.4568    3.2819   -3.8439   C.3       1 RES1   0.0000
     3 C2       -1.4563    4.3340   -3.3773   C.3       1 RES1   0.0000
     4 C3       -2.4385    4.6740   -4.4945   C.3       1 RES1   0.0000
     5 C4       -2.1214    3.9171   -2.0528   C.3       1 RES1   0.0000
     6 N1       -2.9844    2.7346   -2.0146   N.am      1 RES1   0.0000
     7 C5       -4.4223    2.9693   -2.0943   C.3       1 RES1   0.0000
     8 C6       -5.2414    1.9654   -2.9228   C.3       1 RES1   0.0000
     9 C7       -4.7235    1.8760   -4.3518   C.3       1 RES1   0.0000
    10 C8       -6.7087    2.3874   -2.8783   C.3       1 RES1   0.0000
    11 C9       -2.4449    1.5939   -1.5929   C.2       1 RES1   0.0000
    12 O1       -1.2147    1.4067   -1.5739   O.2       1 RES1   0.0000
    13 C10      -3.3244    0.4989   -0.9869   C.3       1 RES1   0.0000
    14 O2       -2.5184   -0.0545    0.0408   O.3       1 RES1   0.0000
    15 C11      -3.1411   -1.1003    0.7706   C.3       1 RES1   0.0000
    16 C12      -2.1628   -1.3422    1.9284   C.2       1 RES1   0.0000
    17 O3       -0.9524   -1.1660    1.6706   O.2       1 RES1   0.0000
    18 N2       -2.6068   -1.6491    3.1375   N.am      1 RES1   0.0000
    19 C13      -4.0125   -1.9128    3.4434   C.3       1 RES1   0.0000
    20 C14      -4.7131   -3.0363    2.6616   C.3       1 RES1   0.0000
    21 C15      -6.1616   -3.1155    3.1424   C.3       1 RES1   0.0000
    22 C16      -4.0064   -4.3717    2.8452   C.3       1 RES1   0.0000
    23 C17      -1.7379   -1.3491    4.2839   C.3       1 RES1   0.0000
    24 C18      -0.8124   -2.4441    4.8395   C.3       1 RES1   0.0000
    25 C19      -1.5439   -3.6413    5.4371   C.3       1 RES1   0.0000
    26 C20       0.2016   -2.8888    3.7917   C.3       1 RES1   0.0000
    27 H1        0.0820    3.6440   -4.7157   H         1 RES1   0.0000
    28 H2       -0.9754    2.3671   -4.1187   H         1 RES1   0.0000
    29 H3        0.2465    3.0488   -3.0471   H         1 RES1   0.0000
    30 H4       -0.9055    5.2511   -3.1284   H         1 RES1   0.0000
    31 H5       -2.9237    3.7777   -4.8680   H         1 RES1   0.0000
    32 H6       -1.8998    5.1286   -5.3239   H         1 RES1   0.0000
    33 H7       -3.1898    5.3858   -4.1578   H         1 RES1   0.0000
    34 H8       -2.7281    4.7495   -1.6927   H         1 RES1   0.0000
    35 H9       -1.3184    3.7257   -1.3337   H         1 RES1   0.0000
    36 H10      -4.5520    3.9462   -2.5589   H         1 RES1   0.0000
    37 H11      -4.8305    3.0236   -1.0765   H         1 RES1   0.0000
    38 H12      -5.1850    0.9705   -2.4827   H         1 RES1   0.0000
    39 H13      -4.8841    2.8128   -4.8738   H         1 RES1   0.0000
    40 H14      -5.2502    1.1004   -4.8973   H         1 RES1   0.0000
    41 H15      -3.6624    1.6371   -4.3559   H         1 RES1   0.0000
    42 H16      -6.8516    3.3768   -3.3007   H         1 RES1   0.0000
    43 H17      -7.0788    2.3918   -1.8553   H         1 RES1   0.0000
    44 H18      -7.3054    1.6875   -3.4539   H         1 RES1   0.0000
    45 H19      -3.5540   -0.2663   -1.7354   H         1 RES1   0.0000
    46 H20      -4.2449    0.9126   -0.5575   H         1 RES1   0.0000
    47 H21      -3.2315   -2.0020    0.1503   H         1 RES1   0.0000
    48 H22      -4.1305   -0.7849    1.1232   H         1 RES1   0.0000
    49 H23      -4.5849   -0.9854    3.3218   H         1 RES1   0.0000
    50 H24      -4.0453   -2.1911    4.4964   H         1 RES1   0.0000
    51 H25      -4.7385   -2.8138    1.5941   H         1 RES1   0.0000
    52 H26      -6.2121   -3.3468    4.2017   H         1 RES1   0.0000
    53 H27      -6.6851   -3.8987    2.6037   H         1 RES1   0.0000
    54 H28      -6.6838   -2.1774    2.9697   H         1 RES1   0.0000
    55 H29      -4.0619   -4.6912    3.8800   H         1 RES1   0.0000
    56 H30      -2.9625   -4.2987    2.5493   H         1 RES1   0.0000
    57 H31      -4.4807   -5.1382    2.2408   H         1 RES1   0.0000
    58 H32      -2.3943   -1.0177    5.0888   H         1 RES1   0.0000
    59 H33      -1.1026   -0.5094    3.9826   H         1 RES1   0.0000
    60 H34      -0.2712   -1.9469    5.6547   H         1 RES1   0.0000
    61 H35      -2.0374   -4.2264    4.6690   H         1 RES1   0.0000
    62 H36      -2.2759   -3.3256    6.1758   H         1 RES1   0.0000
    63 H37      -0.8305   -4.2890    5.9406   H         1 RES1   0.0000
    64 H38      -0.3035   -3.3882    2.9673   H         1 RES1   0.0000
    65 H39       0.9092   -3.5843    4.2338   H         1 RES1   0.0000
    66 H40       0.7352   -2.0226    3.4025   H         1 RES1   0.0000
    67 C21       2.3405    1.6278    3.4695   C.3       1 RES1   0.0000
    68 C22       3.7866    1.1579    3.5908   C.3       1 RES1   0.0000
    69 C23       4.0174    0.5354    4.9632   C.3       1 RES1   0.0000
    70 C24       4.2612    0.3121    2.3873   C.3       1 RES1   0.0000
    71 N3        3.7327   -1.0408    2.1389   N.am      1 RES1   0.0000
    72 C25       4.6465   -2.1739    2.3146   C.3       1 RES1   0.0000
    73 C26       4.2268   -3.3391    3.2321   C.3       1 RES1   0.0000
    74 C27       3.8725   -2.8703    4.6349   C.3       1 RES1   0.0000
    75 C28       5.4043   -4.3146    3.2761   C.3       1 RES1   0.0000
    76 C29       2.6173   -1.1130    1.4159   C.2       1 RES1   0.0000
    77 O4        1.8992   -0.1165    1.2004   O.2       1 RES1   0.0000
    78 C30       2.2030   -2.4384    0.7736   C.3       1 RES1   0.0000
    79 O5        1.1559   -2.1251   -0.1301   O.3       1 RES1   0.0000
    80 C31       0.6194   -3.2623   -0.7962   C.3       1 RES1   0.0000
    81 C32      -0.2344   -2.6650   -1.9228   C.2       1 RES1   0.0000
    82 O6       -0.7645   -1.5621   -1.6822   O.2       1 RES1   0.0000
    83 N4       -0.3261   -3.2724   -3.1033   N.am      1 RES1   0.0000
    84 C33       0.2221   -4.6013   -3.3756   C.3       1 RES1   0.0000
    85 C34      -0.2824   -5.7680   -2.5090   C.3       1 RES1   0.0000
    86 C35       0.4962   -7.0206   -2.9103   C.3       1 RES1   0.0000
    87 C36      -1.7804   -5.9921   -2.6674   C.3       1 RES1   0.0000
    88 C37      -0.6090   -2.4372   -4.2793   C.3       1 RES1   0.0000
    89 C38      -2.0223   -2.3955   -4.8879   C.3       1 RES1   0.0000
    90 C39      -2.5667   -3.7508   -5.3249   C.3       1 RES1   0.0000
    91 C40      -2.9904   -1.6992   -3.9394   C.3       1 RES1   0.0000
    92 H41       2.1321    2.3571    4.2481   H         1 RES1   0.0000
    93 H42       1.6402    0.8028    3.5758   H         1 RES1   0.0000
    94 H43       2.1759    2.0854    2.4990   H         1 RES1   0.0000
    95 H44       4.4282    2.0470    3.5285   H         1 RES1   0.0000
    96 H45       3.2734   -0.2234    5.1839   H         1 RES1   0.0000
    97 H46       3.9342    1.3054    5.7272   H         1 RES1   0.0000
    98 H47       5.0099    0.1020    5.0399   H         1 RES1   0.0000
    99 H48       5.3447    0.2161    2.4605   H         1 RES1   0.0000
   100 H49       4.0318    0.8988    1.4887   H         1 RES1   0.0000
   101 H50       5.5721   -1.7731    2.7280   H         1 RES1   0.0000
   102 H51       4.8822   -2.5951    1.3295   H         1 RES1   0.0000
   103 H52       3.3663   -3.8638    2.8094   H         1 RES1   0.0000
   104 H53       4.7052   -2.3353    5.0766   H         1 RES1   0.0000
   105 H54       3.6533   -3.7158    5.2791   H         1 RES1   0.0000
   106 H55       3.0035   -2.2214    4.6165   H         1 RES1   0.0000
   107 H56       6.2836   -3.8390    3.7017   H         1 RES1   0.0000
   108 H57       5.6561   -4.6710    2.2806   H         1 RES1   0.0000
   109 H58       5.1631   -5.1737    3.8936   H         1 RES1   0.0000
   110 H59       1.8517   -3.1426    1.5359   H         1 RES1   0.0000
   111 H60       3.0574   -2.8760    0.2359   H         1 RES1   0.0000
   112 H61      -0.0018   -3.8445   -0.0999   H         1 RES1   0.0000
   113 H62       1.4288   -3.8865   -1.1934   H         1 RES1   0.0000
   114 H63       1.3166   -4.5612   -3.3114   H         1 RES1   0.0000
   115 H64      -0.0375   -4.8398   -4.4065   H         1 RES1   0.0000
   116 H65      -0.0806   -5.5762   -1.4542   H         1 RES1   0.0000
   117 H66       0.3466   -7.2552   -3.9598   H         1 RES1   0.0000
   118 H67       0.1580   -7.8720   -2.3285   H         1 RES1   0.0000
   119 H68       1.5613   -6.8909   -2.7346   H         1 RES1   0.0000
   120 H69      -2.0197   -6.2748   -3.6867   H         1 RES1   0.0000
   121 H70      -2.3347   -5.0947   -2.4045   H         1 RES1   0.0000
   122 H71      -2.1136   -6.7972   -2.0204   H         1 RES1   0.0000
   123 H72       0.0829   -2.7715   -5.0542   H         1 RES1   0.0000
   124 H73      -0.3565   -1.4105   -3.9931   H         1 RES1   0.0000
   125 H74      -1.9098   -1.7733   -5.7852   H         1 RES1   0.0000
   126 H75      -2.8441   -4.3502   -4.4650   H         1 RES1   0.0000
   127 H76      -1.8421   -4.2920   -5.9276   H         1 RES1   0.0000
   128 H77      -3.4573   -3.6141   -5.9336   H         1 RES1   0.0000
   129 H78      -3.0810   -2.2760   -3.0213   H         1 RES1   0.0000
   130 H79      -3.9729   -1.6159   -4.3953   H         1 RES1   0.0000
   131 H80      -2.6188   -0.7031   -3.7039   H         1 RES1   0.0000
   132 C41      -2.9815    1.7449    3.5799   C.3       1 RES1   0.0000
   133 C42      -3.5879    3.0542    3.0918   C.3       1 RES1   0.0000
   134 C43      -3.6140    4.0781    4.2224   C.3       1 RES1   0.0000
   135 C44      -2.9210    3.5252    1.7813   C.3       1 RES1   0.0000
   136 N5       -1.5103    3.9320    1.7379   N.am      1 RES1   0.0000
   137 C45      -1.2435    5.3609    1.8874   C.3       1 RES1   0.0000
   138 C46      -0.0715    5.7490    2.8031   C.3       1 RES1   0.0000
   139 C47      -0.2469    5.2118    4.2172   C.3       1 RES1   0.0000
   140 C48       0.0398    7.2731    2.7999   C.3       1 RES1   0.0000
   141 C49      -0.6289    3.0422    1.2823   C.2       1 RES1   0.0000
   142 O7       -0.8694    1.8202    1.2743   O.2       1 RES1   0.0000
   143 C50       0.6945    3.4861    0.6348   C.3       1 RES1   0.0000
   144 O8        1.0321    2.4126   -0.2295   O.3       1 RES1   0.0000
   145 C51       2.2364    2.5800   -0.9676   C.3       1 RES1   0.0000
   146 C52       2.1435    1.4479   -1.9961   C.2       1 RES1   0.0000
   147 O9        1.5627    0.4087   -1.6292   O.2       1 RES1   0.0000
   148 N6        2.5463    1.6146   -3.2490   N.am      1 RES1   0.0000
   149 C53       3.3309    2.7552   -3.7005   C.3       1 RES1   0.0000
   150 C54       4.7041    2.9106   -3.0232   C.3       1 RES1   0.0000
   151 C55       5.3297    4.2237   -3.4891   C.3       1 RES1   0.0000
   152 C56       5.6047    1.7257   -3.3450   C.3       1 RES1   0.0000
   153 C57       1.8499    0.7973   -4.2445   C.3       1 RES1   0.0000
   154 C58       2.5244   -0.4463   -4.8447   C.3       1 RES1   0.0000
   155 C59       3.6599   -0.1273   -5.8111   C.3       1 RES1   0.0000
   156 C60       2.9631   -1.4321   -3.7668   C.3       1 RES1   0.0000
   157 H81      -3.5456    1.3634    4.4265   H         1 RES1   0.0000
   158 H82      -1.9556    1.9021    3.8995   H         1 RES1   0.0000
   159 H83      -2.9822    1.0083    2.7805   H         1 RES1   0.0000
   160 H84      -4.6291    2.8670    2.7931   H         1 RES1   0.0000
   161 H85      -2.6374    4.1711    4.6835   H         1 RES1   0.0000
   162 H86      -4.3081    3.7522    4.9945   H         1 RES1   0.0000
   163 H87      -3.9480    5.0521    3.8744   H         1 RES1   0.0000
   164 H88      -3.4901    4.3786    1.4057   H         1 RES1   0.0000
   165 H89      -3.0153    2.6933    1.0741   H         1 RES1   0.0000
   166 H90      -2.1462    5.8025    2.3114   H         1 RES1   0.0000
   167 H91      -1.0743    5.8095    0.9005   H         1 RES1   0.0000
   168 H92       0.8602    5.3467    2.4039   H         1 RES1   0.0000
   169 H93      -1.1086    5.6661    4.6929   H         1 RES1   0.0000
   170 H94       0.6199    5.4477    4.8267   H         1 RES1   0.0000
   171 H95      -0.3714    4.1315    4.2073   H         1 RES1   0.0000
   172 H96      -0.8708    7.7324    3.1736   H         1 RES1   0.0000
   173 H97       0.2247    7.6445    1.7946   H         1 RES1   0.0000
   174 H98       0.8606    7.5904    3.4354   H         1 RES1   0.0000
   175 H99       1.4887    3.6230    1.3783   H         1 RES1   0.0000
   176 H100      0.5632    4.4199    0.0682   H         1 RES1   0.0000
   177 H101      3.1118    2.4669   -0.3148   H         1 RES1   0.0000
   178 H102      2.2663    3.5632   -1.4516   H         1 RES1   0.0000
   179 H103      2.7558    3.6781   -3.5584   H         1 RES1   0.0000
   180 H104      3.4935    2.6223   -4.7693   H         1 RES1   0.0000
   181 H105      4.5803    2.9585   -1.9385   H         1 RES1   0.0000
   182 H106      5.4490    4.2316   -4.5682   H         1 RES1   0.0000
   183 H107      6.3106    4.3521   -3.0431   H         1 RES1   0.0000
   184 H108      4.7144    5.0739   -3.2039   H         1 RES1   0.0000
   185 H109      5.8387    1.7081   -4.4041   H         1 RES1   0.0000
   186 H110      5.1168    0.7944   -3.0702   H         1 RES1   0.0000
   187 H111      6.5423    1.7917   -2.8033   H         1 RES1   0.0000
   188 H112      1.5798    1.4716   -5.0582   H         1 RES1   0.0000
   189 H113      0.9365    0.4562   -3.7412   H         1 RES1   0.0000
   190 H114      1.7213   -0.9105   -5.4309   H         1 RES1   0.0000
   191 H115      4.5146    0.2930   -5.2956   H         1 RES1   0.0000
   192 H116      3.3301    0.5640   -6.5831   H         1 RES1   0.0000
   193 H117      3.9867   -1.0390   -6.3037   H         1 RES1   0.0000
   194 H118      3.8051   -1.0394   -3.2043   H         1 RES1   0.0000
   195 H119      3.2773   -2.3638   -4.2274   H         1 RES1   0.0000
   196 H120      2.1462   -1.6259   -3.0741   H         1 RES1   0.0000
@<TRIPOS>BOND
     1     1    12    1
     2     1    14    1
     3     1    17    1
     4     1    77    1
     5     1    79    1
     6     1    82    1
     7     1   142    1
     8     1   144    1
     9     1   147    1
    10     2     3    1
    11     2    27    1
    12     2    28    1
    13     2    29    1
    14     3     4    1
    15     3     5    1
    16     3    30    1
    17     4    31    1
    18     4    32    1
    19     4    33    1
    20     5     6    1
    21     5    34    1
    22     5    35    1
    23     6     7    1
    24     6    11    1
    25     7     8    1
    26     7    36    1
    27     7    37    1
    28     8     9    1
    29     8    10    1
    30     8    38    1
    31     9    39    1
    32     9    40    1
    33     9    41    1
    34    10    42    1
    35    10    43    1
    36    10    44    1
    37    11    12    2
    38    11    13    1
    39    13    14    1
    40    13    45    1
    41    13    46    1
    42    14    15    1
    43    15    16    1
    44    15    47    1
    45    15    48    1
    46    16    17    2
    47    16    18    1
    48    18    19    1
    49    18    23    1
    50    19    20    1
    51    19    49    1
    52    19    50    1
    53    20    21    1
    54    20    22    1
    55    20    51    1
    56    21    52    1
    57    21    53    1
    58    21    54    1
    59    22    55    1
    60    22    56    1
    61    22    57    1
    62    23    24    1
    63    23    58    1
    64    23    59    1
    65    24    25    1
    66    24    26    1
    67    24    60    1
    68    25    61    1
    69    25    62    1
    70    25    63    1
    71    26    64    1
    72    26    65    1
    73    26    66    1
    74    67    68    1
    75    67    92    1
    76    67    93    1
    77    67    94    1
    78    68    69    1
    79    68    70    1
    80    68    95    1
    81    69    96    1
    82    69    97    1
    83    69    98    1
    84    70    71    1
    85    70    99    1
    86    70   100    1
    87    71    72    1
    88    71    76    1
    89    72    73    1
    90    72   101    1
    91    72   102    1
    92    73    74    1
    93    73    75    1
    94    73   103    1
    95    74   104    1
    96    74   105    1
    97    74   106    1
    98    75   107    1
    99    75   108    1
   100    75   109    1
   101    76    77    2
   102    76    78    1
   103    78    79    1
   104    78   110    1
   105    78   111    1
   106    79    80    1
   107    80    81    1
   108    80   112    1
   109    80   113    1
   110    81    82    2
   111    81    83    1
   112    83    84    1
   113    83    88    1
   114    84    85    1
   115    84   114    1
   116    84   115    1
   117    85    86    1
   118    85    87    1
   119    85   116    1
   120    86   117    1
   121    86   118    1
   122    86   119    1
   123    87   120    1
   124    87   121    1
   125    87   122    1
   126    88    89    1
   127    88   123    1
   128    88   124    1
   129    89    90    1
   130    89    91    1
   131    89   125    1
   132    90   126    1
   133    90   127    1
   134    90   128    1
   135    91   129    1
   136    91   130    1
   137    91   131    1
   138   132   133    1
   139   132   157    1
   140   132   158    1
   141   132   159    1
   142   133   134    1
   143   133   135    1
   144   133   160    1
   145   134   161    1
   146   134   162    1
   147   134   163    1
   148   135   136    1
   149   135   164    1
   150   135   165    1
   151   136   137    1
   152   136   141    1
   153   137   138    1
   154   137   166    1
   155   137   167    1
   156   138   139    1
   157   138   140    1
   158   138   168    1
   159   139   169    1
   160   139   170    1
   161   139   171    1
   162   140   172    1
   163   140   173    1
   164   140   174    1
   165   141   142    2
   166   141   143    1
   167   143   144    1
   168   143   175    1
   169   143   176    1
   170   144   145    1
   171   145   146    1
   172   145   177    1
   173   145   178    1
   174   146   147    2
   175   146   148    1
   176   148   149    1
   177   148   153    1
   178   149   150    1
   179   149   179    1
   180   149   180    1
   181   150   151    1
   182   150   152    1
   183   150   181    1
   184   151   182    1
   185   151   183    1
   186   151   184    1
   187   152   185    1
   188   152   186    1
   189   152   187    1
   190   153   154    1
   191   153   188    1
   192   153   189    1
   193   154   155    1
   194   154   156    1
   195   154   190    1
   196   155   191    1
   197   155   192    1
   198   155   193    1
   199   156   194    1
   200   156   195    1
   201   156   196    1
@<TRIPOS>SUBSTRUCTURE
     1 RES1      196 GROUP             0 ****  ****    0  
