@<TRIPOS>MOLECULE
cn9_YICLED_0_nunpairedes_0_charge_3 Charge: 3 Unpaired_Electrons: 6 XTB_Unpaired_Electrons: 0 XTB_Charge: 3
   136   150     1     0     0
SMALL
NoCharges
****
Generated from Architector

@<TRIPOS>ATOM
     1 Eu1       0.1115    0.0546    0.0082   Eu        1 RES1   0.0000
     2 C1       -0.7577    3.8287    3.9659   C.3       1 RES1   0.0000
     3 N1       -1.4640    3.1148    2.9086   N.am      1 RES1   0.0000
     4 C2       -1.0208    1.9137    2.5166   C.2       1 RES1   0.0000
     5 O1       -1.3976    1.3040    1.4979   O.2       1 RES1   0.0000
     6 C3        0.0173    1.1469    3.3046   C.ar      1 RES1   0.0000
     7 C4        0.0017    0.8826    4.6729   C.ar      1 RES1   0.0000
     8 C5        0.8292   -0.1253    5.1495   C.ar      1 RES1   0.0000
     9 C6        1.6784   -0.7935    4.2841   C.ar      1 RES1   0.0000
    10 C7        1.6916   -0.4111    2.9454   C.ar      1 RES1   0.0000
    11 C8        2.4735   -1.0460    1.8361   C.2       1 RES1   0.0000
    12 O2        2.1567   -0.7758    0.6596   O.2       1 RES1   0.0000
    13 N2        3.3997   -1.9634    2.1196   N.am      1 RES1   0.0000
    14 C9        3.8745   -2.8448    1.0662   C.3       1 RES1   0.0000
    15 C10       4.2340   -1.8676    3.2619   C.ar      1 RES1   0.0000
    16 C11       4.7038   -3.0058    3.9011   C.ar      1 RES1   0.0000
    17 C12       5.6512   -2.8762    4.9009   C.ar      1 RES1   0.0000
    18 C13       6.1043   -1.6224    5.2819   C.ar      1 RES1   0.0000
    19 C14       5.5830   -0.4847    4.6830   C.ar      1 RES1   0.0000
    20 C15       4.6632   -0.6038    3.6615   C.ar      1 RES1   0.0000
    21 N3        0.8455    0.5088    2.4776   N.ar      1 RES1   0.0000
    22 C16      -2.5496    3.7914    2.2679   C.ar      1 RES1   0.0000
    23 C17      -2.7597    5.1492    2.5106   C.ar      1 RES1   0.0000
    24 C18      -3.7794    5.8312    1.8737   C.ar      1 RES1   0.0000
    25 C19      -4.6218    5.1792    0.9898   C.ar      1 RES1   0.0000
    26 C20      -4.4413    3.8250    0.7723   C.ar      1 RES1   0.0000
    27 C21      -3.4248    3.1298    1.4023   C.ar      1 RES1   0.0000
    28 H1       -1.4063    3.9760    4.8314   H         1 RES1   0.0000
    29 H2       -0.4188    4.8065    3.6210   H         1 RES1   0.0000
    30 H3        0.1324    3.2744    4.2488   H         1 RES1   0.0000
    31 H4       -0.6666    1.3956    5.3451   H         1 RES1   0.0000
    32 H5        0.8095   -0.3976    6.1915   H         1 RES1   0.0000
    33 H6        2.3013   -1.5890    4.6519   H         1 RES1   0.0000
    34 H7        3.2615   -2.6913    0.1791   H         1 RES1   0.0000
    35 H8        3.7899   -3.8820    1.3955   H         1 RES1   0.0000
    36 H9        4.9202   -2.6470    0.8235   H         1 RES1   0.0000
    37 H10       4.3339   -3.9819    3.6234   H         1 RES1   0.0000
    38 H11       6.0461   -3.7619    5.3738   H         1 RES1   0.0000
    39 H12       6.8699   -1.5349    6.0360   H         1 RES1   0.0000
    40 H13       5.9111    0.4968    4.9870   H         1 RES1   0.0000
    41 H14       4.2896    0.2729    3.1508   H         1 RES1   0.0000
    42 H15      -2.1490    5.6997    3.2057   H         1 RES1   0.0000
    43 H16      -3.9178    6.8805    2.0791   H         1 RES1   0.0000
    44 H17      -5.4172    5.7166    0.5002   H         1 RES1   0.0000
    45 H18      -5.1065    3.2901    0.1133   H         1 RES1   0.0000
    46 H19      -3.3306    2.0724    1.2248   H         1 RES1   0.0000
    47 C22      -4.2353   -1.1087   -3.3656   C.3       1 RES1   0.0000
    48 N4       -3.4018   -1.3650   -2.2120   N.am      1 RES1   0.0000
    49 C23      -2.6932   -0.4800   -1.5104   C.2       1 RES1   0.0000
    50 O3       -1.9286   -0.8663   -0.6005   O.2       1 RES1   0.0000
    51 C24      -2.6937    1.0148   -1.7190   C.ar      1 RES1   0.0000
    52 C25      -3.6557    1.8534   -2.2730   C.ar      1 RES1   0.0000
    53 C26      -3.4065    3.2221   -2.2652   C.ar      1 RES1   0.0000
    54 C27      -2.2459    3.7276   -1.7038   C.ar      1 RES1   0.0000
    55 C28      -1.3473    2.8294   -1.1214   C.ar      1 RES1   0.0000
    56 C29       0.0307    3.1261   -0.5920   C.2       1 RES1   0.0000
    57 O4        0.7397    2.2002   -0.1741   O.2       1 RES1   0.0000
    58 N5        0.4909    4.3959   -0.7184   N.am      1 RES1   0.0000
    59 C30      -0.3134    5.4386   -0.1059   C.3       1 RES1   0.0000
    60 C31       1.7811    4.6975   -1.2135   C.ar      1 RES1   0.0000
    61 C32       2.1798    6.0321   -1.2687   C.ar      1 RES1   0.0000
    62 C33       3.3875    6.3840   -1.8408   C.ar      1 RES1   0.0000
    63 C34       4.2098    5.4183   -2.3934   C.ar      1 RES1   0.0000
    64 C35       3.8025    4.0918   -2.3765   C.ar      1 RES1   0.0000
    65 C36       2.6049    3.7246   -1.7879   C.ar      1 RES1   0.0000
    66 N6       -1.5845    1.5218   -1.1710   N.ar      1 RES1   0.0000
    67 C37      -3.3363   -2.7307   -1.7745   C.ar      1 RES1   0.0000
    68 C38      -3.1039   -3.7661   -2.6699   C.ar      1 RES1   0.0000
    69 C39      -3.0860   -5.0744   -2.2150   C.ar      1 RES1   0.0000
    70 C40      -3.2483   -5.3562   -0.8681   C.ar      1 RES1   0.0000
    71 C41      -3.4469   -4.3167    0.0268   C.ar      1 RES1   0.0000
    72 C42      -3.5118   -3.0135   -0.4241   C.ar      1 RES1   0.0000
    73 H20      -5.2891   -1.1541   -3.0819   H         1 RES1   0.0000
    74 H21      -4.0588   -1.8824   -4.1096   H         1 RES1   0.0000
    75 H22      -3.9955   -0.1546   -3.8213   H         1 RES1   0.0000
    76 H23      -4.5824    1.4918   -2.6850   H         1 RES1   0.0000
    77 H24      -4.1179    3.9036   -2.7085   H         1 RES1   0.0000
    78 H25      -2.0650    4.7856   -1.7402   H         1 RES1   0.0000
    79 H26      -1.2092    4.9962    0.3332   H         1 RES1   0.0000
    80 H27      -0.5998    6.2156   -0.8133   H         1 RES1   0.0000
    81 H28       0.2566    5.8900    0.7131   H         1 RES1   0.0000
    82 H29       1.5414    6.8137   -0.8933   H         1 RES1   0.0000
    83 H30       3.6865    7.4231   -1.8515   H         1 RES1   0.0000
    84 H31       5.1532    5.6983   -2.8372   H         1 RES1   0.0000
    85 H32       4.4276    3.3344   -2.8263   H         1 RES1   0.0000
    86 H33       2.3156    2.6846   -1.8003   H         1 RES1   0.0000
    87 H34      -2.9324   -3.5779   -3.7205   H         1 RES1   0.0000
    88 H35      -2.9562   -5.8831   -2.9197   H         1 RES1   0.0000
    89 H36      -3.2311   -6.3787   -0.5220   H         1 RES1   0.0000
    90 H37      -3.5873   -4.5105    1.0793   H         1 RES1   0.0000
    91 H38      -3.7016   -2.2133    0.2721   H         1 RES1   0.0000
    92 C43      -0.5907   -4.2536    2.3005   C.3       1 RES1   0.0000
    93 N7       -0.0304   -4.3282    0.9555   N.am      1 RES1   0.0000
    94 C44       0.0297   -3.1766    0.2750   C.2       1 RES1   0.0000
    95 O5       -0.1441   -2.0896    0.8637   O.2       1 RES1   0.0000
    96 C45       0.2494   -3.1464   -1.2148   C.ar      1 RES1   0.0000
    97 C46       0.1150   -4.2253   -2.0914   C.ar      1 RES1   0.0000
    98 C47       0.4712   -4.0266   -3.4155   C.ar      1 RES1   0.0000
    99 C48       0.8822   -2.7726   -3.8482   C.ar      1 RES1   0.0000
   100 C49       0.8251   -1.7078   -2.9563   C.ar      1 RES1   0.0000
   101 C50       1.0399   -0.2334   -3.1979   C.2       1 RES1   0.0000
   102 O6        0.9510    0.4931   -2.1863   O.2       1 RES1   0.0000
   103 N8        1.2615    0.2938   -4.4065   N.am      1 RES1   0.0000
   104 C51       1.4796   -0.4163   -5.6560   C.3       1 RES1   0.0000
   105 C52       1.2948    1.7219   -4.5294   C.ar      1 RES1   0.0000
   106 C53       2.3444    2.3332   -5.2016   C.ar      1 RES1   0.0000
   107 C54       2.3053    3.6945   -5.4398   C.ar      1 RES1   0.0000
   108 C55       1.2513    4.4605   -4.9676   C.ar      1 RES1   0.0000
   109 C56       0.2331    3.8527   -4.2537   C.ar      1 RES1   0.0000
   110 C57       0.2350    2.4844   -4.0561   C.ar      1 RES1   0.0000
   111 N9        0.5303   -1.9266   -1.6659   N.ar      1 RES1   0.0000
   112 C58       0.6316   -5.5309    0.5979   C.ar      1 RES1   0.0000
   113 C59       1.8356   -5.5304   -0.1077   C.ar      1 RES1   0.0000
   114 C60       2.5271   -6.7140   -0.2922   C.ar      1 RES1   0.0000
   115 C61       2.0551   -7.9043    0.2360   C.ar      1 RES1   0.0000
   116 C62       0.8588   -7.9046    0.9334   C.ar      1 RES1   0.0000
   117 C63       0.1439   -6.7325    1.0974   C.ar      1 RES1   0.0000
   118 H39      -0.9159   -3.2313    2.4791   H         1 RES1   0.0000
   119 H40       0.1307   -4.5436    3.0603   H         1 RES1   0.0000
   120 H41      -1.4540   -4.9064    2.3996   H         1 RES1   0.0000
   121 H42      -0.2087   -5.1952   -1.7588   H         1 RES1   0.0000
   122 H43       0.4516   -4.8509   -4.1124   H         1 RES1   0.0000
   123 H44       1.2362   -2.6760   -4.8566   H         1 RES1   0.0000
   124 H45       0.6174   -1.0274   -5.9280   H         1 RES1   0.0000
   125 H46       2.3843   -1.0239   -5.6134   H         1 RES1   0.0000
   126 H47       1.6095    0.3192   -6.4485   H         1 RES1   0.0000
   127 H48       3.1885    1.7511   -5.5418   H         1 RES1   0.0000
   128 H49       3.0955    4.1625   -6.0044   H         1 RES1   0.0000
   129 H50       1.2194    5.5188   -5.1724   H         1 RES1   0.0000
   130 H51      -0.5858    4.4423   -3.8718   H         1 RES1   0.0000
   131 H52      -0.5922    1.9994   -3.5611   H         1 RES1   0.0000
   132 H53       2.2462   -4.6152   -0.5083   H         1 RES1   0.0000
   133 H54       3.4673   -6.7001   -0.8234   H         1 RES1   0.0000
   134 H55       2.6190   -8.8162    0.1055   H         1 RES1   0.0000
   135 H56       0.4811   -8.8096    1.3784   H         1 RES1   0.0000
   136 H57      -0.7943   -6.7542    1.6234   H         1 RES1   0.0000
@<TRIPOS>BOND
     1     1     5    1
     2     1    12    1
     3     1    21    1
     4     1    50    1
     5     1    57    1
     6     1    66    1
     7     1    95    1
     8     1   102    1
     9     1   111    1
    10     2     3    1
    11     2    28    1
    12     2    29    1
    13     2    30    1
    14     3     4    1
    15     3    22    1
    16     4     5    2
    17     4     6    1
    18     6     7    1
    19     6    21    2
    20     7     8    2
    21     7    31    1
    22     8     9    1
    23     8    32    1
    24     9    10    2
    25     9    33    1
    26    10    11    1
    27    10    21    1
    28    11    12    2
    29    11    13    1
    30    13    14    1
    31    13    15    1
    32    14    34    1
    33    14    35    1
    34    14    36    1
    35    15    16    1
    36    15    20    2
    37    16    17    2
    38    16    37    1
    39    17    18    1
    40    17    38    1
    41    18    19    2
    42    18    39    1
    43    19    20    1
    44    19    40    1
    45    20    41    1
    46    22    23    1
    47    22    27    2
    48    23    24    2
    49    23    42    1
    50    24    25    1
    51    24    43    1
    52    25    26    2
    53    25    44    1
    54    26    27    1
    55    26    45    1
    56    27    46    1
    57    47    48    1
    58    47    73    1
    59    47    74    1
    60    47    75    1
    61    48    49    1
    62    48    67    1
    63    49    50    2
    64    49    51    1
    65    51    52    1
    66    51    66    2
    67    52    53    2
    68    52    76    1
    69    53    54    1
    70    53    77    1
    71    54    55    2
    72    54    78    1
    73    55    56    1
    74    55    66    1
    75    56    57    2
    76    56    58    1
    77    58    59    1
    78    58    60    1
    79    59    79    1
    80    59    80    1
    81    59    81    1
    82    60    61    1
    83    60    65    2
    84    61    62    2
    85    61    82    1
    86    62    63    1
    87    62    83    1
    88    63    64    2
    89    63    84    1
    90    64    65    1
    91    64    85    1
    92    65    86    1
    93    67    68    1
    94    67    72    2
    95    68    69    2
    96    68    87    1
    97    69    70    1
    98    69    88    1
    99    70    71    2
   100    70    89    1
   101    71    72    1
   102    71    90    1
   103    72    91    1
   104    92    93    1
   105    92   118    1
   106    92   119    1
   107    92   120    1
   108    93    94    1
   109    93   112    1
   110    94    95    2
   111    94    96    1
   112    96    97    1
   113    96   111    2
   114    97    98    2
   115    97   121    1
   116    98    99    1
   117    98   122    1
   118    99   100    2
   119    99   123    1
   120   100   101    1
   121   100   111    1
   122   101   102    2
   123   101   103    1
   124   103   104    1
   125   103   105    1
   126   104   124    1
   127   104   125    1
   128   104   126    1
   129   105   106    1
   130   105   110    2
   131   106   107    2
   132   106   127    1
   133   107   108    1
   134   107   128    1
   135   108   109    2
   136   108   129    1
   137   109   110    1
   138   109   130    1
   139   110   131    1
   140   112   113    1
   141   112   117    2
   142   113   114    2
   143   113   132    1
   144   114   115    1
   145   114   133    1
   146   115   116    2
   147   115   134    1
   148   116   117    1
   149   116   135    1
   150   117   136    1
@<TRIPOS>SUBSTRUCTURE
     1 RES1      136 GROUP             0 ****  ****    0  
