@<TRIPOS>MOLECULE
cn9_YICLED_0_nunpairedes_0_charge_3 Charge: 3 Unpaired_Electrons: 6 XTB_Unpaired_Electrons: 0 XTB_Charge: 3
   379   387     1     0     0
SMALL
NoCharges
****
Generated from Architector

@<TRIPOS>ATOM
     1 Eu1      -0.2975   -0.1379   -0.1416   Eu        1 RES1   0.0000
     2 C1      -11.8500   -2.9366    2.3545   C.3       1 RES1   0.0000
     3 C2      -10.4255   -2.7598    1.8423   C.3       1 RES1   0.0000
     4 C3      -10.2039   -1.4063    1.1683   C.3       1 RES1   0.0000
     5 C4       -8.7474   -1.1973    0.7350   C.3       1 RES1   0.0000
     6 C5       -8.3425   -1.9540   -0.5369   C.3       1 RES1   0.0000
     7 C6       -6.8377   -2.2740   -0.6518   C.3       1 RES1   0.0000
     8 C7       -6.4798   -3.6029    0.0258   C.3       1 RES1   0.0000
     9 C8       -5.0003   -4.0239   -0.0144   C.3       1 RES1   0.0000
    10 N1       -4.0453   -3.1564    0.6845   N.am      1 RES1   0.0000
    11 C9       -4.1221   -3.2415    2.1405   C.3       1 RES1   0.0000
    12 C10      -5.1083   -2.2826    2.8176   C.3       1 RES1   0.0000
    13 C11      -5.3566   -2.6853    4.2864   C.3       1 RES1   0.0000
    14 C12      -4.9210   -1.6296    5.3009   C.3       1 RES1   0.0000
    15 C13      -5.1941   -2.0702    6.7453   C.3       1 RES1   0.0000
    16 C14      -3.9707   -2.7594    7.3499   C.3       1 RES1   0.0000
    17 C15      -2.9375   -1.7376    7.8284   C.3       1 RES1   0.0000
    18 C16      -1.6707   -2.4198    8.3342   C.3       1 RES1   0.0000
    19 C17      -2.9583   -2.6231    0.1189   C.2       1 RES1   0.0000
    20 O1       -2.0128   -2.0924    0.7303   O.2       1 RES1   0.0000
    21 C18      -2.8603   -2.6871   -1.3962   C.3       1 RES1   0.0000
    22 C19      -2.1727   -3.9840   -1.8318   C.3       1 RES1   0.0000
    23 O2       -2.0843   -1.5571   -1.7971   O.3       1 RES1   0.0000
    24 C20      -2.2717   -1.2238   -3.1825   C.3       1 RES1   0.0000
    25 C21      -1.9039    0.2734   -3.2671   C.2       1 RES1   0.0000
    26 O3       -1.4810    0.8304   -2.2368   O.2       1 RES1   0.0000
    27 N2       -2.2005    0.9411   -4.3873   N.am      1 RES1   0.0000
    28 C22      -2.3910    0.2894   -5.6772   C.3       1 RES1   0.0000
    29 C23      -1.6540    0.9766   -6.8385   C.3       1 RES1   0.0000
    30 C24      -0.1590    1.2301   -6.5581   C.3       1 RES1   0.0000
    31 C25       0.8549    0.8011   -7.6295   C.3       1 RES1   0.0000
    32 C26       2.2688    1.1886   -7.1808   C.3       1 RES1   0.0000
    33 C27       3.3994    0.7619   -8.1180   C.3       1 RES1   0.0000
    34 C28       4.7217    1.3768   -7.6554   C.3       1 RES1   0.0000
    35 C29       5.9595    0.9024   -8.4067   C.3       1 RES1   0.0000
    36 C30      -2.6371    2.3330   -4.2675   C.3       1 RES1   0.0000
    37 C31      -1.5322    3.3543   -4.0068   C.3       1 RES1   0.0000
    38 C32      -2.1256    4.7192   -3.6196   C.3       1 RES1   0.0000
    39 C33      -1.2674    5.9269   -4.0620   C.3       1 RES1   0.0000
    40 C34      -0.8622    6.8545   -2.9162   C.3       1 RES1   0.0000
    41 C35      -0.1718    8.1326   -3.4055   C.3       1 RES1   0.0000
    42 C36       1.3134    7.9585   -3.7468   C.3       1 RES1   0.0000
    43 C37       2.2747    8.2790   -2.6103   C.3       1 RES1   0.0000
    44 C38      -3.7078   -1.3685   -3.6688   C.ar      1 RES1   0.0000
    45 C39      -4.6632   -0.4516   -3.2324   C.ar      1 RES1   0.0000
    46 C40      -5.9419   -0.4813   -3.7552   C.ar      1 RES1   0.0000
    47 C41      -6.3071   -1.4751   -4.6457   C.ar      1 RES1   0.0000
    48 C42      -5.3839   -2.4348   -5.0244   C.ar      1 RES1   0.0000
    49 C43      -4.0831   -2.3797   -4.5500   C.ar      1 RES1   0.0000
    50 H1      -11.9621   -3.9016    2.8439   H         1 RES1   0.0000
    51 H2      -12.1028   -2.1594    3.0720   H         1 RES1   0.0000
    52 H3      -12.5606   -2.8898    1.5342   H         1 RES1   0.0000
    53 H4       -9.7330   -2.8491    2.6837   H         1 RES1   0.0000
    54 H5      -10.1977   -3.5640    1.1408   H         1 RES1   0.0000
    55 H6      -10.8763   -1.2983    0.3155   H         1 RES1   0.0000
    56 H7      -10.4634   -0.6249    1.8855   H         1 RES1   0.0000
    57 H8       -8.5860   -0.1332    0.5525   H         1 RES1   0.0000
    58 H9       -8.1053   -1.4908    1.5677   H         1 RES1   0.0000
    59 H10      -8.8972   -2.8877   -0.6135   H         1 RES1   0.0000
    60 H11      -8.6354   -1.3431   -1.3924   H         1 RES1   0.0000
    61 H12      -6.5899   -2.3485   -1.7148   H         1 RES1   0.0000
    62 H13      -6.2526   -1.4483   -0.2357   H         1 RES1   0.0000
    63 H14      -6.8277   -3.6043    1.0569   H         1 RES1   0.0000
    64 H15      -7.0287   -4.3973   -0.4895   H         1 RES1   0.0000
    65 H16      -4.9500   -5.0008    0.4822   H         1 RES1   0.0000
    66 H17      -4.7081   -4.1741   -1.0513   H         1 RES1   0.0000
    67 H18      -4.4063   -4.2666    2.3924   H         1 RES1   0.0000
    68 H19      -3.1175   -3.0516    2.5164   H         1 RES1   0.0000
    69 H20      -4.7333   -1.2591    2.7684   H         1 RES1   0.0000
    70 H21      -6.0640   -2.2973    2.3019   H         1 RES1   0.0000
    71 H22      -6.4218   -2.8778    4.4222   H         1 RES1   0.0000
    72 H23      -4.8258   -3.6126    4.5145   H         1 RES1   0.0000
    73 H24      -3.8476   -1.4691    5.1854   H         1 RES1   0.0000
    74 H25      -5.4323   -0.6881    5.0891   H         1 RES1   0.0000
    75 H26      -5.4594   -1.2060    7.3592   H         1 RES1   0.0000
    76 H27      -6.0464   -2.7484    6.7644   H         1 RES1   0.0000
    77 H28      -4.2692   -3.3802    8.1969   H         1 RES1   0.0000
    78 H29      -3.5148   -3.4239    6.6104   H         1 RES1   0.0000
    79 H30      -2.6727   -1.0415    7.0218   H         1 RES1   0.0000
    80 H31      -3.3782   -1.1435    8.6325   H         1 RES1   0.0000
    81 H32      -1.1397   -2.8926    7.5071   H         1 RES1   0.0000
    82 H33      -1.0100   -1.6930    8.8069   H         1 RES1   0.0000
    83 H34      -1.9228   -3.1921    9.0598   H         1 RES1   0.0000
    84 H35      -3.8617   -2.5969   -1.8243   H         1 RES1   0.0000
    85 H36      -1.1013   -3.8348   -1.7236   H         1 RES1   0.0000
    86 H37      -2.4638   -4.8294   -1.2155   H         1 RES1   0.0000
    87 H38      -2.3989   -4.2012   -2.8722   H         1 RES1   0.0000
    88 H39      -1.6001   -1.8553   -3.7849   H         1 RES1   0.0000
    89 H40      -2.0223   -0.7321   -5.6083   H         1 RES1   0.0000
    90 H41      -3.4610    0.2737   -5.9053   H         1 RES1   0.0000
    91 H42      -1.7893    0.3287   -7.7070   H         1 RES1   0.0000
    92 H43      -2.1426    1.9226   -7.0739   H         1 RES1   0.0000
    93 H44      -0.0245    2.3019   -6.4368   H         1 RES1   0.0000
    94 H45       0.1268    0.7575   -5.6134   H         1 RES1   0.0000
    95 H46       0.8222   -0.2723   -7.8157   H         1 RES1   0.0000
    96 H47       0.6318    1.2935   -8.5752   H         1 RES1   0.0000
    97 H48       2.3067    2.2725   -7.0794   H         1 RES1   0.0000
    98 H49       2.4591    0.7579   -6.1927   H         1 RES1   0.0000
    99 H50       3.4820   -0.3252   -8.1341   H         1 RES1   0.0000
   100 H51       3.1789    1.0985   -9.1301   H         1 RES1   0.0000
   101 H52       4.6521    2.4610   -7.7522   H         1 RES1   0.0000
   102 H53       4.8626    1.1497   -6.5961   H         1 RES1   0.0000
   103 H54       5.9134    1.1612   -9.4588   H         1 RES1   0.0000
   104 H55       6.8438    1.3834   -7.9935   H         1 RES1   0.0000
   105 H56       6.0833   -0.1747   -8.3302   H         1 RES1   0.0000
   106 H57      -3.1698    2.5902   -5.1830   H         1 RES1   0.0000
   107 H58      -3.3608    2.3569   -3.4466   H         1 RES1   0.0000
   108 H59      -0.8827    2.9656   -3.2206   H         1 RES1   0.0000
   109 H60      -0.9503    3.4772   -4.9188   H         1 RES1   0.0000
   110 H61      -3.1099    4.8071   -4.0842   H         1 RES1   0.0000
   111 H62      -2.2900    4.7663   -2.5387   H         1 RES1   0.0000
   112 H63      -0.3606    5.5923   -4.5644   H         1 RES1   0.0000
   113 H64      -1.8366    6.5211   -4.7767   H         1 RES1   0.0000
   114 H65      -1.7583    7.1308   -2.3552   H         1 RES1   0.0000
   115 H66      -0.1859    6.3175   -2.2511   H         1 RES1   0.0000
   116 H67      -0.7081    8.4840   -4.2873   H         1 RES1   0.0000
   117 H68      -0.2738    8.9067   -2.6462   H         1 RES1   0.0000
   118 H69       1.4987    6.9303   -4.0445   H         1 RES1   0.0000
   119 H70       1.5601    8.6032   -4.5900   H         1 RES1   0.0000
   120 H71       2.0559    7.6802   -1.7289   H         1 RES1   0.0000
   121 H72       3.3007    8.0865   -2.9211   H         1 RES1   0.0000
   122 H73       2.2120    9.3262   -2.3413   H         1 RES1   0.0000
   123 H74      -4.3988    0.2737   -2.4750   H         1 RES1   0.0000
   124 H75      -6.6499    0.2772   -3.4701   H         1 RES1   0.0000
   125 H76      -7.3110   -1.4986   -5.0345   H         1 RES1   0.0000
   126 H77      -5.6785   -3.2145   -5.7052   H         1 RES1   0.0000
   127 H78      -3.3720   -3.1282   -4.8749   H         1 RES1   0.0000
   128 C44      -1.7533    4.6334   11.7746   C.3       1 RES1   0.0000
   129 C45      -2.2365    4.0063   10.4724   C.3       1 RES1   0.0000
   130 C46      -1.6769    4.7412    9.2539   C.3       1 RES1   0.0000
   131 C47      -1.6753    3.8925    7.9816   C.3       1 RES1   0.0000
   132 C48      -3.0808    3.5647    7.4545   C.3       1 RES1   0.0000
   133 C49      -3.1878    3.5756    5.9179   C.3       1 RES1   0.0000
   134 C50      -3.0434    2.2059    5.2292   C.3       1 RES1   0.0000
   135 C51      -3.1116    2.3477    3.6909   C.3       1 RES1   0.0000
   136 N3       -2.2922    1.4111    2.9037   N.am      1 RES1   0.0000
   137 C52      -2.2599    0.0057    3.3332   C.3       1 RES1   0.0000
   138 C53      -0.8329   -0.5648    3.3600   C.3       1 RES1   0.0000
   139 C54      -0.6797   -1.7663    4.3140   C.3       1 RES1   0.0000
   140 C55      -0.2981   -3.0422    3.5634   C.3       1 RES1   0.0000
   141 C56      -0.2640   -4.2789    4.4639   C.3       1 RES1   0.0000
   142 C57      -1.6399   -4.9277    4.6560   C.3       1 RES1   0.0000
   143 C58      -1.9328   -6.0656    3.6747   C.3       1 RES1   0.0000
   144 C59      -3.1738   -6.8530    4.0953   C.3       1 RES1   0.0000
   145 C60      -1.9960    1.5742    1.6053   C.2       1 RES1   0.0000
   146 O4       -1.9684    0.5776    0.8568   O.2       1 RES1   0.0000
   147 C61      -1.6037    2.8965    0.9147   C.3       1 RES1   0.0000
   148 C62      -2.8267    3.3801    0.1370   C.3       1 RES1   0.0000
   149 O5       -0.5075    2.4648    0.0681   O.3       1 RES1   0.0000
   150 C63       0.2488    3.3700   -0.7678   C.3       1 RES1   0.0000
   151 C64       1.2665    2.4458   -1.5074   C.2       1 RES1   0.0000
   152 O6        1.3765    1.2717   -1.0994   O.2       1 RES1   0.0000
   153 N4        2.1397    2.9298   -2.4016   N.am      1 RES1   0.0000
   154 C65       1.9790    4.1125   -3.2453   C.3       1 RES1   0.0000
   155 C66       2.1650    3.6916   -4.7161   C.3       1 RES1   0.0000
   156 C67       2.7708    4.7208   -5.6858   C.3       1 RES1   0.0000
   157 C68       1.8127    5.6485   -6.4471   C.3       1 RES1   0.0000
   158 C69       0.5856    5.0256   -7.1057   C.3       1 RES1   0.0000
   159 C70      -0.2644    6.1070   -7.7747   C.3       1 RES1   0.0000
   160 C71      -1.4563    5.5395   -8.5473   C.3       1 RES1   0.0000
   161 C72      -2.5453    4.9905   -7.6312   C.3       1 RES1   0.0000
   162 C73       3.5219    2.4186   -2.3773   C.3       1 RES1   0.0000
   163 C74       3.9143    1.0674   -2.9798   C.3       1 RES1   0.0000
   164 C75       5.4338    0.9071   -2.7861   C.3       1 RES1   0.0000
   165 C76       6.1086   -0.1372   -3.6781   C.3       1 RES1   0.0000
   166 C77       5.7057   -1.5764   -3.3647   C.3       1 RES1   0.0000
   167 C78       6.6229   -2.5857   -4.0625   C.3       1 RES1   0.0000
   168 C79       6.5063   -2.5707   -5.5870   C.3       1 RES1   0.0000
   169 C80       5.1667   -3.0971   -6.0816   C.3       1 RES1   0.0000
   170 C81       1.1383    4.3836   -0.0565   C.ar      1 RES1   0.0000
   171 C82       2.4092    4.0152    0.3861   C.ar      1 RES1   0.0000
   172 C83       3.2940    4.9597    0.8782   C.ar      1 RES1   0.0000
   173 C84       2.9160    6.2919    0.9660   C.ar      1 RES1   0.0000
   174 C85       1.6301    6.6571    0.5989   C.ar      1 RES1   0.0000
   175 C86       0.7495    5.7105    0.0880   C.ar      1 RES1   0.0000
   176 H79      -2.1985    4.1325   12.6285   H         1 RES1   0.0000
   177 H80      -0.6717    4.5579   11.8611   H         1 RES1   0.0000
   178 H81      -2.0289    5.6824   11.8262   H         1 RES1   0.0000
   179 H82      -1.9197    2.9604   10.4440   H         1 RES1   0.0000
   180 H83      -3.3271    4.0224   10.4452   H         1 RES1   0.0000
   181 H84      -2.2456    5.6587    9.0829   H         1 RES1   0.0000
   182 H85      -0.6431    5.0263    9.4668   H         1 RES1   0.0000
   183 H86      -1.1196    4.4432    7.2185   H         1 RES1   0.0000
   184 H87      -1.1212    2.9793    8.1915   H         1 RES1   0.0000
   185 H88      -3.4250    2.6074    7.8460   H         1 RES1   0.0000
   186 H89      -3.7581    4.3263    7.8392   H         1 RES1   0.0000
   187 H90      -4.1481    4.0059    5.6313   H         1 RES1   0.0000
   188 H91      -2.4117    4.2360    5.5415   H         1 RES1   0.0000
   189 H92      -2.0978    1.7601    5.5330   H         1 RES1   0.0000
   190 H93      -3.8459    1.5507    5.5782   H         1 RES1   0.0000
   191 H94      -4.1587    2.2373    3.3744   H         1 RES1   0.0000
   192 H95      -2.8102    3.3577    3.4208   H         1 RES1   0.0000
   193 H96      -2.6803   -0.0325    4.3320   H         1 RES1   0.0000
   194 H97      -2.8600   -0.5949    2.6464   H         1 RES1   0.0000
   195 H98      -0.5358   -0.9087    2.3492   H         1 RES1   0.0000
   196 H99      -0.1456    0.2344    3.6421   H         1 RES1   0.0000
   197 H100      0.1013   -1.5651    5.0481   H         1 RES1   0.0000
   198 H101     -1.6039   -1.9362    4.8649   H         1 RES1   0.0000
   199 H102     -1.0035   -3.1998    2.7467   H         1 RES1   0.0000
   200 H103      0.6871   -2.8892    3.1199   H         1 RES1   0.0000
   201 H104      0.4253   -5.0117    4.0420   H         1 RES1   0.0000
   202 H105      0.1436   -3.9947    5.4341   H         1 RES1   0.0000
   203 H106     -1.7003   -5.3484    5.6611   H         1 RES1   0.0000
   204 H107     -2.4225   -4.1711    4.5687   H         1 RES1   0.0000
   205 H108     -2.0669   -5.6875    2.6538   H         1 RES1   0.0000
   206 H109     -1.0786   -6.7468    3.6686   H         1 RES1   0.0000
   207 H110     -4.0749   -6.2395    4.0665   H         1 RES1   0.0000
   208 H111     -3.3270   -7.7093    3.4397   H         1 RES1   0.0000
   209 H112     -3.0523   -7.2189    5.1128   H         1 RES1   0.0000
   210 H113     -1.2675    3.6537    1.6279   H         1 RES1   0.0000
   211 H114     -2.9882    2.7287   -0.7187   H         1 RES1   0.0000
   212 H115     -3.7070    3.3289    0.7757   H         1 RES1   0.0000
   213 H116     -2.6905    4.4064   -0.1886   H         1 RES1   0.0000
   214 H117     -0.4336    3.9094   -1.4323   H         1 RES1   0.0000
   215 H118      1.0040    4.5566   -3.0662   H         1 RES1   0.0000
   216 H119      2.7398    4.8466   -2.9664   H         1 RES1   0.0000
   217 H120      2.8336    2.8335   -4.7139   H         1 RES1   0.0000
   218 H121      1.2168    3.3321   -5.1009   H         1 RES1   0.0000
   219 H122      3.4764    5.3511   -5.1425   H         1 RES1   0.0000
   220 H123      3.3569    4.1714   -6.4249   H         1 RES1   0.0000
   221 H124      1.4538    6.4307   -5.7872   H         1 RES1   0.0000
   222 H125      2.3977    6.1389   -7.2270   H         1 RES1   0.0000
   223 H126      0.8830    4.2837   -7.8470   H         1 RES1   0.0000
   224 H127     -0.0405    4.5364   -6.3599   H         1 RES1   0.0000
   225 H128     -0.6338    6.8000   -7.0167   H         1 RES1   0.0000
   226 H129      0.3664    6.6831   -8.4504   H         1 RES1   0.0000
   227 H130     -1.1078    4.7547   -9.2208   H         1 RES1   0.0000
   228 H131     -1.8907    6.3310   -9.1595   H         1 RES1   0.0000
   229 H132     -3.3441    4.5311   -8.2074   H         1 RES1   0.0000
   230 H133     -2.1461    4.2482   -6.9447   H         1 RES1   0.0000
   231 H134     -2.9790    5.7931   -7.0413   H         1 RES1   0.0000
   232 H135      4.1335    3.1776   -2.8654   H         1 RES1   0.0000
   233 H136      3.8163    2.3962   -1.3251   H         1 RES1   0.0000
   234 H137      3.3820    0.2626   -2.4713   H         1 RES1   0.0000
   235 H138      3.6798    1.0216   -4.0436   H         1 RES1   0.0000
   236 H139      5.9229    1.8631   -2.9896   H         1 RES1   0.0000
   237 H140      5.6328    0.6613   -1.7396   H         1 RES1   0.0000
   238 H141      5.8945    0.0820   -4.7252   H         1 RES1   0.0000
   239 H142      7.1898   -0.0450   -3.5400   H         1 RES1   0.0000
   240 H143      5.7608   -1.7279   -2.2813   H         1 RES1   0.0000
   241 H144      4.6694   -1.7422   -3.6687   H         1 RES1   0.0000
   242 H145      7.6546   -2.3674   -3.7804   H         1 RES1   0.0000
   243 H146      6.3962   -3.5909   -3.6972   H         1 RES1   0.0000
   244 H147      6.6543   -1.5558   -5.9537   H         1 RES1   0.0000
   245 H148      7.3044   -3.1849   -6.0027   H         1 RES1   0.0000
   246 H149      4.3584   -2.4318   -5.7880   H         1 RES1   0.0000
   247 H150      5.1711   -3.1688   -7.1647   H         1 RES1   0.0000
   248 H151      4.9746   -4.0875   -5.6751   H         1 RES1   0.0000
   249 H152      2.6930    2.9740    0.3636   H         1 RES1   0.0000
   250 H153      4.2874    4.6626    1.1871   H         1 RES1   0.0000
   251 H154      3.6215    7.0324    1.3198   H         1 RES1   0.0000
   252 H155      1.3083    7.6826    0.7197   H         1 RES1   0.0000
   253 H156     -0.2406    6.0252   -0.2050   H         1 RES1   0.0000
   254 C87       0.3973    1.0982    6.6341   C.3       1 RES1   0.0000
   255 C88       1.7695    0.4401    6.6412   C.3       1 RES1   0.0000
   256 C89       2.6579    0.9724    7.7662   C.3       1 RES1   0.0000
   257 C90       4.1350    0.5747    7.6324   C.3       1 RES1   0.0000
   258 C91       5.0663    1.6555    7.0704   C.3       1 RES1   0.0000
   259 C92       4.6163    2.3047    5.7588   C.3       1 RES1   0.0000
   260 C93       4.6800    1.3392    4.5696   C.3       1 RES1   0.0000
   261 C94       4.2716    1.9425    3.2029   C.3       1 RES1   0.0000
   262 N5        2.8374    1.8955    2.8986   N.am      1 RES1   0.0000
   263 C95       2.1797    3.0362    3.5718   C.3       1 RES1   0.0000
   264 C96       0.7807    3.5274    3.2316   C.3       1 RES1   0.0000
   265 C97       0.6460    4.9533    3.8064   C.3       1 RES1   0.0000
   266 C98      -0.8096    5.4334    3.9360   C.3       1 RES1   0.0000
   267 C99      -1.2811    6.5688    3.0128   C.3       1 RES1   0.0000
   268 C100     -2.7535    6.3598    2.6386   C.3       1 RES1   0.0000
   269 C101     -3.4229    7.5177    1.8923   C.3       1 RES1   0.0000
   270 C102     -2.8353    7.8238    0.5159   C.3       1 RES1   0.0000
   271 C103      2.2361    0.9759    2.1381   C.2       1 RES1   0.0000
   272 O7        1.0375    1.0425    1.8166   O.2       1 RES1   0.0000
   273 C104      3.0204   -0.2437    1.5531   C.3       1 RES1   0.0000
   274 C105      3.9169   -0.9955    2.5319   C.3       1 RES1   0.0000
   275 O8        2.0036   -1.1459    1.0483   O.3       1 RES1   0.0000
   276 C106      2.5369   -2.2921    0.3544   C.3       1 RES1   0.0000
   277 C107      1.8856   -2.3584   -1.0253   C.2       1 RES1   0.0000
   278 O9        0.8780   -1.6478   -1.2367   O.2       1 RES1   0.0000
   279 N6        2.3403   -3.2115   -1.9264   N.am      1 RES1   0.0000
   280 C108      3.5080   -4.0723   -1.8159   C.3       1 RES1   0.0000
   281 C109      3.1404   -5.5662   -1.8642   C.3       1 RES1   0.0000
   282 C110      4.1153   -6.3698   -2.7487   C.3       1 RES1   0.0000
   283 C111      4.6005   -7.6320   -2.0400   C.3       1 RES1   0.0000
   284 C112      5.5101   -7.3022   -0.8548   C.3       1 RES1   0.0000
   285 C113      5.7608   -8.5039    0.0540   C.3       1 RES1   0.0000
   286 C114      4.4663   -9.0667    0.6366   C.3       1 RES1   0.0000
   287 C115      4.7129  -10.0678    1.7512   C.3       1 RES1   0.0000
   288 C116      1.6206   -3.3439   -3.1908   C.3       1 RES1   0.0000
   289 C117      1.4397   -2.0320   -3.9445   C.3       1 RES1   0.0000
   290 C118      1.2039   -2.2715   -5.4330   C.3       1 RES1   0.0000
   291 C119      0.0476   -3.2092   -5.7635   C.3       1 RES1   0.0000
   292 C120     -0.0783   -3.3796   -7.2757   C.3       1 RES1   0.0000
   293 C121     -1.3862   -4.0574   -7.6864   C.3       1 RES1   0.0000
   294 C122     -2.5446   -3.0743   -7.8430   C.3       1 RES1   0.0000
   295 C123     -3.8511   -3.7924   -8.1457   C.3       1 RES1   0.0000
   296 C124      2.2366   -3.6415    1.0034   C.ar      1 RES1   0.0000
   297 C125      3.2163   -4.3306    1.7062   C.ar      1 RES1   0.0000
   298 C126      2.9971   -5.6232    2.1502   C.ar      1 RES1   0.0000
   299 C127      1.7908   -6.2472    1.8966   C.ar      1 RES1   0.0000
   300 C128      0.7873   -5.5531    1.2400   C.ar      1 RES1   0.0000
   301 C129      1.0085   -4.2636    0.7864   C.ar      1 RES1   0.0000
   302 H157     -0.1716    0.7859    5.7636   H         1 RES1   0.0000
   303 H158      0.4944    2.1792    6.5983   H         1 RES1   0.0000
   304 H159     -0.1723    0.8433    7.5217   H         1 RES1   0.0000
   305 H160      2.2357    0.6074    5.6704   H         1 RES1   0.0000
   306 H161      1.6554   -0.6393    6.7630   H         1 RES1   0.0000
   307 H162      2.2724    0.5605    8.6962   H         1 RES1   0.0000
   308 H163      2.5598    2.0573    7.8410   H         1 RES1   0.0000
   309 H164      4.2162   -0.3345    7.0365   H         1 RES1   0.0000
   310 H165      4.5200    0.3269    8.6197   H         1 RES1   0.0000
   311 H166      6.0658    1.2355    6.9425   H         1 RES1   0.0000
   312 H167      5.1574    2.4568    7.8016   H         1 RES1   0.0000
   313 H168      5.2538    3.1657    5.5424   H         1 RES1   0.0000
   314 H169      3.6075    2.6863    5.9048   H         1 RES1   0.0000
   315 H170      4.0555    0.4739    4.7901   H         1 RES1   0.0000
   316 H171      5.7187    1.0025    4.4879   H         1 RES1   0.0000
   317 H172      4.8201    1.4649    2.3900   H         1 RES1   0.0000
   318 H173      4.5684    2.9955    3.2102   H         1 RES1   0.0000
   319 H174      2.8428    3.8893    3.4004   H         1 RES1   0.0000
   320 H175      2.2046    2.7992    4.6348   H         1 RES1   0.0000
   321 H176      0.0150    2.8799    3.6617   H         1 RES1   0.0000
   322 H177      0.6667    3.5515    2.1548   H         1 RES1   0.0000
   323 H178      1.2143    5.6423    3.1815   H         1 RES1   0.0000
   324 H179      1.0981    4.9695    4.7998   H         1 RES1   0.0000
   325 H180     -0.9797    5.7555    4.9638   H         1 RES1   0.0000
   326 H181     -1.4516    4.5731    3.7520   H         1 RES1   0.0000
   327 H182     -0.6706    6.6153    2.1138   H         1 RES1   0.0000
   328 H183     -1.1788    7.5261    3.5224   H         1 RES1   0.0000
   329 H184     -3.3200    6.2002    3.5582   H         1 RES1   0.0000
   330 H185     -2.8445    5.4510    2.0371   H         1 RES1   0.0000
   331 H186     -3.3558    8.4129    2.5102   H         1 RES1   0.0000
   332 H187     -4.4856    7.2776    1.7727   H         1 RES1   0.0000
   333 H188     -2.8322    6.9319   -0.1139   H         1 RES1   0.0000
   334 H189     -3.4442    8.5834    0.0283   H         1 RES1   0.0000
   335 H190     -1.8196    8.2111    0.5866   H         1 RES1   0.0000
   336 H191      3.5975    0.1376    0.6911   H         1 RES1   0.0000
   337 H192      3.3153   -1.3397    3.3660   H         1 RES1   0.0000
   338 H193      4.7325   -0.3968    2.9021   H         1 RES1   0.0000
   339 H194      4.3729   -1.8600    2.0610   H         1 RES1   0.0000
   340 H195      3.6206   -2.1859    0.2460   H         1 RES1   0.0000
   341 H196      4.0659   -3.8567   -0.9072   H         1 RES1   0.0000
   342 H197      4.1475   -3.8395   -2.6724   H         1 RES1   0.0000
   343 H198      2.1281   -5.6866   -2.2466   H         1 RES1   0.0000
   344 H199      3.1237   -5.9785   -0.8540   H         1 RES1   0.0000
   345 H200      4.9891   -5.7623   -2.9970   H         1 RES1   0.0000
   346 H201      3.6222   -6.6428   -3.6865   H         1 RES1   0.0000
   347 H202      5.1537   -8.2500   -2.7466   H         1 RES1   0.0000
   348 H203      3.7253   -8.1931   -1.7103   H         1 RES1   0.0000
   349 H204      5.0577   -6.5071   -0.2560   H         1 RES1   0.0000
   350 H205      6.4640   -6.9249   -1.2341   H         1 RES1   0.0000
   351 H206      6.4172   -8.1890    0.8678   H         1 RES1   0.0000
   352 H207      6.2746   -9.2781   -0.5155   H         1 RES1   0.0000
   353 H208      3.9079   -9.5637   -0.1545   H         1 RES1   0.0000
   354 H209      3.8527   -8.2420    1.0088   H         1 RES1   0.0000
   355 H210      5.3338  -10.8813    1.3953   H         1 RES1   0.0000
   356 H211      3.7741  -10.4895    2.0949   H         1 RES1   0.0000
   357 H212      5.2120   -9.5981    2.5919   H         1 RES1   0.0000
   358 H213      0.6513   -3.8024   -2.9927   H         1 RES1   0.0000
   359 H214      2.1963   -4.0156   -3.8218   H         1 RES1   0.0000
   360 H215      2.3529   -1.4494   -3.8373   H         1 RES1   0.0000
   361 H216      0.6278   -1.4457   -3.5100   H         1 RES1   0.0000
   362 H217      2.1159   -2.6664   -5.8859   H         1 RES1   0.0000
   363 H218      1.0028   -1.3088   -5.8984   H         1 RES1   0.0000
   364 H219      0.2014   -4.1928   -5.3190   H         1 RES1   0.0000
   365 H220     -0.8887   -2.8112   -5.3639   H         1 RES1   0.0000
   366 H221      0.7687   -3.9726   -7.6212   H         1 RES1   0.0000
   367 H222     -0.0142   -2.4004   -7.7525   H         1 RES1   0.0000
   368 H223     -1.6436   -4.8151   -6.9432   H         1 RES1   0.0000
   369 H224     -1.2447   -4.5701   -8.6368   H         1 RES1   0.0000
   370 H225     -2.3194   -2.3864   -8.6589   H         1 RES1   0.0000
   371 H226     -2.6652   -2.4788   -6.9345   H         1 RES1   0.0000
   372 H227     -3.7753   -4.3449   -9.0754   H         1 RES1   0.0000
   373 H228     -4.6674   -3.0825   -8.2389   H         1 RES1   0.0000
   374 H229     -4.0892   -4.5029   -7.3594   H         1 RES1   0.0000
   375 H230      4.1748   -3.8802    1.9052   H         1 RES1   0.0000
   376 H231      3.7790   -6.1288    2.6885   H         1 RES1   0.0000
   377 H232      1.6364   -7.2704    2.1997   H         1 RES1   0.0000
   378 H233     -0.1742   -6.0172    1.0858   H         1 RES1   0.0000
   379 H234      0.2225   -3.7289    0.2627   H         1 RES1   0.0000
@<TRIPOS>BOND
     1     1    20    1
     2     1    23    1
     3     1    26    1
     4     1   146    1
     5     1   149    1
     6     1   152    1
     7     1   272    1
     8     1   275    1
     9     1   278    1
    10     2     3    1
    11     2    50    1
    12     2    51    1
    13     2    52    1
    14     3     4    1
    15     3    53    1
    16     3    54    1
    17     4     5    1
    18     4    55    1
    19     4    56    1
    20     5     6    1
    21     5    57    1
    22     5    58    1
    23     6     7    1
    24     6    59    1
    25     6    60    1
    26     7     8    1
    27     7    61    1
    28     7    62    1
    29     8     9    1
    30     8    63    1
    31     8    64    1
    32     9    10    1
    33     9    65    1
    34     9    66    1
    35    10    11    1
    36    10    19    1
    37    11    12    1
    38    11    67    1
    39    11    68    1
    40    12    13    1
    41    12    69    1
    42    12    70    1
    43    13    14    1
    44    13    71    1
    45    13    72    1
    46    14    15    1
    47    14    73    1
    48    14    74    1
    49    15    16    1
    50    15    75    1
    51    15    76    1
    52    16    17    1
    53    16    77    1
    54    16    78    1
    55    17    18    1
    56    17    79    1
    57    17    80    1
    58    18    81    1
    59    18    82    1
    60    18    83    1
    61    19    20    2
    62    19    21    1
    63    21    22    1
    64    21    23    1
    65    21    84    1
    66    22    85    1
    67    22    86    1
    68    22    87    1
    69    23    24    1
    70    24    25    1
    71    24    44    1
    72    24    88    1
    73    25    26    2
    74    25    27    1
    75    27    28    1
    76    27    36    1
    77    28    29    1
    78    28    89    1
    79    28    90    1
    80    29    30    1
    81    29    91    1
    82    29    92    1
    83    30    31    1
    84    30    93    1
    85    30    94    1
    86    31    32    1
    87    31    95    1
    88    31    96    1
    89    32    33    1
    90    32    97    1
    91    32    98    1
    92    33    34    1
    93    33    99    1
    94    33   100    1
    95    34    35    1
    96    34   101    1
    97    34   102    1
    98    35   103    1
    99    35   104    1
   100    35   105    1
   101    36    37    1
   102    36   106    1
   103    36   107    1
   104    37    38    1
   105    37   108    1
   106    37   109    1
   107    38    39    1
   108    38   110    1
   109    38   111    1
   110    39    40    1
   111    39   112    1
   112    39   113    1
   113    40    41    1
   114    40   114    1
   115    40   115    1
   116    41    42    1
   117    41   116    1
   118    41   117    1
   119    42    43    1
   120    42   118    1
   121    42   119    1
   122    43   120    1
   123    43   121    1
   124    43   122    1
   125    44    45    1
   126    44    49    2
   127    45    46    2
   128    45   123    1
   129    46    47    1
   130    46   124    1
   131    47    48    2
   132    47   125    1
   133    48    49    1
   134    48   126    1
   135    49   127    1
   136   128   129    1
   137   128   176    1
   138   128   177    1
   139   128   178    1
   140   129   130    1
   141   129   179    1
   142   129   180    1
   143   130   131    1
   144   130   181    1
   145   130   182    1
   146   131   132    1
   147   131   183    1
   148   131   184    1
   149   132   133    1
   150   132   185    1
   151   132   186    1
   152   133   134    1
   153   133   187    1
   154   133   188    1
   155   134   135    1
   156   134   189    1
   157   134   190    1
   158   135   136    1
   159   135   191    1
   160   135   192    1
   161   136   137    1
   162   136   145    1
   163   137   138    1
   164   137   193    1
   165   137   194    1
   166   138   139    1
   167   138   195    1
   168   138   196    1
   169   139   140    1
   170   139   197    1
   171   139   198    1
   172   140   141    1
   173   140   199    1
   174   140   200    1
   175   141   142    1
   176   141   201    1
   177   141   202    1
   178   142   143    1
   179   142   203    1
   180   142   204    1
   181   143   144    1
   182   143   205    1
   183   143   206    1
   184   144   207    1
   185   144   208    1
   186   144   209    1
   187   145   146    2
   188   145   147    1
   189   147   148    1
   190   147   149    1
   191   147   210    1
   192   148   211    1
   193   148   212    1
   194   148   213    1
   195   149   150    1
   196   150   151    1
   197   150   170    1
   198   150   214    1
   199   151   152    2
   200   151   153    1
   201   153   154    1
   202   153   162    1
   203   154   155    1
   204   154   215    1
   205   154   216    1
   206   155   156    1
   207   155   217    1
   208   155   218    1
   209   156   157    1
   210   156   219    1
   211   156   220    1
   212   157   158    1
   213   157   221    1
   214   157   222    1
   215   158   159    1
   216   158   223    1
   217   158   224    1
   218   159   160    1
   219   159   225    1
   220   159   226    1
   221   160   161    1
   222   160   227    1
   223   160   228    1
   224   161   229    1
   225   161   230    1
   226   161   231    1
   227   162   163    1
   228   162   232    1
   229   162   233    1
   230   163   164    1
   231   163   234    1
   232   163   235    1
   233   164   165    1
   234   164   236    1
   235   164   237    1
   236   165   166    1
   237   165   238    1
   238   165   239    1
   239   166   167    1
   240   166   240    1
   241   166   241    1
   242   167   168    1
   243   167   242    1
   244   167   243    1
   245   168   169    1
   246   168   244    1
   247   168   245    1
   248   169   246    1
   249   169   247    1
   250   169   248    1
   251   170   171    1
   252   170   175    2
   253   171   172    2
   254   171   249    1
   255   172   173    1
   256   172   250    1
   257   173   174    2
   258   173   251    1
   259   174   175    1
   260   174   252    1
   261   175   253    1
   262   254   255    1
   263   254   302    1
   264   254   303    1
   265   254   304    1
   266   255   256    1
   267   255   305    1
   268   255   306    1
   269   256   257    1
   270   256   307    1
   271   256   308    1
   272   257   258    1
   273   257   309    1
   274   257   310    1
   275   258   259    1
   276   258   311    1
   277   258   312    1
   278   259   260    1
   279   259   313    1
   280   259   314    1
   281   260   261    1
   282   260   315    1
   283   260   316    1
   284   261   262    1
   285   261   317    1
   286   261   318    1
   287   262   263    1
   288   262   271    1
   289   263   264    1
   290   263   319    1
   291   263   320    1
   292   264   265    1
   293   264   321    1
   294   264   322    1
   295   265   266    1
   296   265   323    1
   297   265   324    1
   298   266   267    1
   299   266   325    1
   300   266   326    1
   301   267   268    1
   302   267   327    1
   303   267   328    1
   304   268   269    1
   305   268   329    1
   306   268   330    1
   307   269   270    1
   308   269   331    1
   309   269   332    1
   310   270   333    1
   311   270   334    1
   312   270   335    1
   313   271   272    2
   314   271   273    1
   315   273   274    1
   316   273   275    1
   317   273   336    1
   318   274   337    1
   319   274   338    1
   320   274   339    1
   321   275   276    1
   322   276   277    1
   323   276   296    1
   324   276   340    1
   325   277   278    2
   326   277   279    1
   327   279   280    1
   328   279   288    1
   329   280   281    1
   330   280   341    1
   331   280   342    1
   332   281   282    1
   333   281   343    1
   334   281   344    1
   335   282   283    1
   336   282   345    1
   337   282   346    1
   338   283   284    1
   339   283   347    1
   340   283   348    1
   341   284   285    1
   342   284   349    1
   343   284   350    1
   344   285   286    1
   345   285   351    1
   346   285   352    1
   347   286   287    1
   348   286   353    1
   349   286   354    1
   350   287   355    1
   351   287   356    1
   352   287   357    1
   353   288   289    1
   354   288   358    1
   355   288   359    1
   356   289   290    1
   357   289   360    1
   358   289   361    1
   359   290   291    1
   360   290   362    1
   361   290   363    1
   362   291   292    1
   363   291   364    1
   364   291   365    1
   365   292   293    1
   366   292   366    1
   367   292   367    1
   368   293   294    1
   369   293   368    1
   370   293   369    1
   371   294   295    1
   372   294   370    1
   373   294   371    1
   374   295   372    1
   375   295   373    1
   376   295   374    1
   377   296   297    1
   378   296   301    2
   379   297   298    2
   380   297   375    1
   381   298   299    1
   382   298   376    1
   383   299   300    2
   384   299   377    1
   385   300   301    1
   386   300   378    1
   387   301   379    1
@<TRIPOS>SUBSTRUCTURE
     1 RES1      379 GROUP             0 ****  ****    0  
