@<TRIPOS>MOLECULE
tricapped_trigonal_prismatic_0_nunpairedes_0_charge_3 Charge: 3 Unpaired_Electrons: 6 XTB_Unpaired_Electrons: 0 XTB_Charge: 3
   130   141     1     0     0
SMALL
NoCharges
****
Generated from Architector

@<TRIPOS>ATOM
     1 Eu1      -0.0944   -0.1028    0.2139   Eu        1 RES1   0.0000
     2 C1        1.1953    3.8445   -4.8886   C.3       1 RES1   0.0000
     3 C2        1.1199    2.3890   -5.3574   C.3       1 RES1   0.0000
     4 C3        1.2447    2.3570   -6.8865   C.3       1 RES1   0.0000
     5 C4        2.2978    1.6256   -4.7161   C.3       1 RES1   0.0000
     6 C5       -0.1409    1.6803   -4.8991   C.ar      1 RES1   0.0000
     7 C6       -1.0374    2.2416   -3.9955   C.ar      1 RES1   0.0000
     8 C7       -2.0405    1.4888   -3.4055   C.ar      1 RES1   0.0000
     9 C8       -2.1811    0.1541   -3.7527   C.ar      1 RES1   0.0000
    10 N1       -2.9295   -0.7646   -2.9468   N.am      1 RES1   0.0000
    11 C9       -2.6739   -0.8116   -1.6582   C.2       1 RES1   0.0000
    12 O1       -2.1518    0.1213   -1.0021   O.2       1 RES1   0.0000
    13 C10      -2.5312   -2.0894   -0.8577   C.ar      1 RES1   0.0000
    14 C11      -2.8976   -2.1680    0.4395   C.ar      1 RES1   0.0000
    15 C12      -1.8001   -2.6120    1.2979   C.ar      1 RES1   0.0000
    16 O2       -1.2891   -1.8024    2.0780   O.2       1 RES1   0.0000
    17 C13      -1.0088   -3.7267    0.7910   C.ar      1 RES1   0.0000
    18 C14      -0.6692   -3.4900   -0.5110   C.ar      1 RES1   0.0000
    19 C15       0.8478   -3.4189   -0.6201   C.2       1 RES1   0.0000
    20 O3        1.2273   -2.2631   -0.3153   O.2       1 RES1   0.0000
    21 N2        1.5886   -4.5054   -0.7298   N.am      1 RES1   0.0000
    22 C16       2.5540   -4.8349    0.3195   C.ar      1 RES1   0.0000
    23 C17       3.8107   -4.2966    0.4843   C.ar      1 RES1   0.0000
    24 C18       4.4702   -4.4805    1.6943   C.ar      1 RES1   0.0000
    25 C19       3.8752   -5.1670    2.7470   C.ar      1 RES1   0.0000
    26 C20       4.4108   -5.1586    4.1616   C.3       1 RES1   0.0000
    27 C21       3.3840   -4.3704    4.9989   C.3       1 RES1   0.0000
    28 C22       5.7709   -4.4690    4.2780   C.3       1 RES1   0.0000
    29 C23       4.5332   -6.5931    4.6881   C.3       1 RES1   0.0000
    30 C24       2.6685   -5.8176    2.4947   C.ar      1 RES1   0.0000
    31 C25       2.0106   -5.6624    1.2973   C.ar      1 RES1   0.0000
    32 O4       -1.3466   -2.6345   -1.3138   O.2       1 RES1   0.0000
    33 C26      -1.3826   -0.3966   -4.7534   C.ar      1 RES1   0.0000
    34 C27      -0.3797    0.3667   -5.3180   C.ar      1 RES1   0.0000
    35 H1        2.1240    4.2834   -5.2441   H         1 RES1   0.0000
    36 H2        0.3765    4.4394   -5.2857   H         1 RES1   0.0000
    37 H3        1.2004    3.9071   -3.8015   H         1 RES1   0.0000
    38 H4        2.1481    2.8782   -7.1936   H         1 RES1   0.0000
    39 H5        1.3013    1.3428   -7.2702   H         1 RES1   0.0000
    40 H6        0.3918    2.8454   -7.3518   H         1 RES1   0.0000
    41 H7        3.2282    2.1291   -4.9649   H         1 RES1   0.0000
    42 H8        2.1945    1.6110   -3.6271   H         1 RES1   0.0000
    43 H9        2.3528    0.6064   -5.0914   H         1 RES1   0.0000
    44 H10      -0.9449    3.2784   -3.7226   H         1 RES1   0.0000
    45 H11      -2.7095    1.9427   -2.6948   H         1 RES1   0.0000
    46 H12      -3.3546   -1.5536   -3.4263   H         1 RES1   0.0000
    47 H13      -3.7472   -1.6272    0.8421   H         1 RES1   0.0000
    48 H14      -0.3849   -4.3209    1.4484   H         1 RES1   0.0000
    49 H15       1.1279   -5.3395   -1.0887   H         1 RES1   0.0000
    50 H16       4.2985   -3.7496   -0.3030   H         1 RES1   0.0000
    51 H17       5.4538   -4.0590    1.8135   H         1 RES1   0.0000
    52 H18       3.2782   -3.3557    4.6130   H         1 RES1   0.0000
    53 H19       2.4090   -4.8521    4.9836   H         1 RES1   0.0000
    54 H20       3.7184   -4.3137    6.0309   H         1 RES1   0.0000
    55 H21       5.7144   -3.4258    3.9706   H         1 RES1   0.0000
    56 H22       6.0960   -4.4942    5.3149   H         1 RES1   0.0000
    57 H23       6.5211   -4.9830    3.6819   H         1 RES1   0.0000
    58 H24       3.5731   -7.0997    4.7125   H         1 RES1   0.0000
    59 H25       5.2121   -7.1662    4.0620   H         1 RES1   0.0000
    60 H26       4.9296   -6.5810    5.6988   H         1 RES1   0.0000
    61 H27       2.2034   -6.4331    3.2445   H         1 RES1   0.0000
    62 H28       1.0665   -6.1579    1.1271   H         1 RES1   0.0000
    63 H29      -1.5205   -1.4227   -5.0545   H         1 RES1   0.0000
    64 H30       0.2226   -0.0889   -6.0862   H         1 RES1   0.0000
    65 C28       4.0672   -3.9175   -4.4536   C.3       1 RES1   0.0000
    66 C29       3.6177   -2.4593   -4.5987   C.3       1 RES1   0.0000
    67 C30       4.0503   -1.9570   -5.9760   C.3       1 RES1   0.0000
    68 C31       2.0801   -2.3893   -4.4887   C.3       1 RES1   0.0000
    69 C32       4.1497   -1.5954   -3.4683   C.ar      1 RES1   0.0000
    70 C33       3.8638   -1.9831   -2.1598   C.ar      1 RES1   0.0000
    71 C34       4.0575   -1.1319   -1.0962   C.ar      1 RES1   0.0000
    72 C35       4.5535    0.1448   -1.3323   C.ar      1 RES1   0.0000
    73 N3        4.3898    1.1270   -0.2995   N.am      1 RES1   0.0000
    74 C36       3.1759    1.2461    0.1610   C.2       1 RES1   0.0000
    75 O5        2.2037    0.5289   -0.2158   O.2       1 RES1   0.0000
    76 C37       2.5564    2.2456    1.1145   C.ar      1 RES1   0.0000
    77 C38       2.0791    1.7303    2.2841   C.ar      1 RES1   0.0000
    78 C39       0.6425    1.8335    2.4090   C.ar      1 RES1   0.0000
    79 O6       -0.0246    0.7775    2.4886   O.2       1 RES1   0.0000
    80 C40       0.0144    3.0122    1.8687   C.ar      1 RES1   0.0000
    81 C41       0.5975    3.4505    0.7112   C.ar      1 RES1   0.0000
    82 C42      -0.4229    3.4485   -0.4303   C.2       1 RES1   0.0000
    83 O7       -0.6326    2.2518   -0.7291   O.2       1 RES1   0.0000
    84 N4       -1.0723    4.5021   -0.8610   N.am      1 RES1   0.0000
    85 C43      -2.5194    4.4192   -1.0271   C.ar      1 RES1   0.0000
    86 C44      -3.2368    4.3649   -2.2062   C.ar      1 RES1   0.0000
    87 C45      -4.6191    4.2153   -2.1392   C.ar      1 RES1   0.0000
    88 C46      -5.3075    4.1267   -0.9311   C.ar      1 RES1   0.0000
    89 C47      -6.8032    3.8717   -0.8511   C.3       1 RES1   0.0000
    90 C48      -7.0983    2.8338    0.2437   C.3       1 RES1   0.0000
    91 C49      -7.3509    3.3380   -2.1788   C.3       1 RES1   0.0000
    92 C50      -7.5157    5.1859   -0.5028   C.3       1 RES1   0.0000
    93 C51      -4.5597    4.2710    0.2365   C.ar      1 RES1   0.0000
    94 C52      -3.1900    4.3837    0.1885   C.ar      1 RES1   0.0000
    95 O8        1.8318    3.0873    0.3364   O.2       1 RES1   0.0000
    96 C53       4.9709    0.5107   -2.5992   C.ar      1 RES1   0.0000
    97 C54       4.7840   -0.3696   -3.6539   C.ar      1 RES1   0.0000
    98 H31       3.7007   -4.4890   -5.3006   H         1 RES1   0.0000
    99 H32       5.1500   -3.9858   -4.4489   H         1 RES1   0.0000
   100 H33       3.6882   -4.3757   -3.5451   H         1 RES1   0.0000
   101 H34       3.6126   -2.5869   -6.7454   H         1 RES1   0.0000
   102 H35       3.7252   -0.9346   -6.1541   H         1 RES1   0.0000
   103 H36       5.1309   -2.0088   -6.0780   H         1 RES1   0.0000
   104 H37       1.6365   -3.0273   -5.2456   H         1 RES1   0.0000
   105 H38       1.7392   -2.7278   -3.5110   H         1 RES1   0.0000
   106 H39       1.7335   -1.3705   -4.6511   H         1 RES1   0.0000
   107 H40       3.4405   -2.9575   -1.9823   H         1 RES1   0.0000
   108 H41       3.7945   -1.4338   -0.0938   H         1 RES1   0.0000
   109 H42       5.1527    1.7539   -0.0635   H         1 RES1   0.0000
   110 H43       2.6026    0.9227    2.7819   H         1 RES1   0.0000
   111 H44      -1.0406    3.1674    2.0544   H         1 RES1   0.0000
   112 H45      -0.7116    5.4251   -0.6181   H         1 RES1   0.0000
   113 H46      -2.7612    4.4444   -3.1700   H         1 RES1   0.0000
   114 H47      -5.1763    4.1822   -3.0595   H         1 RES1   0.0000
   115 H48      -6.5157    1.9273    0.0895   H         1 RES1   0.0000
   116 H49      -6.8971    3.2186    1.2385   H         1 RES1   0.0000
   117 H50      -8.1495    2.5670    0.2081   H         1 RES1   0.0000
   118 H51      -6.7968    2.4572   -2.5021   H         1 RES1   0.0000
   119 H52      -8.3923    3.0574   -2.0517   H         1 RES1   0.0000
   120 H53      -7.3111    4.0990   -2.9529   H         1 RES1   0.0000
   121 H54      -7.1797    5.5767    0.4535   H         1 RES1   0.0000
   122 H55      -7.3371    5.9338   -1.2696   H         1 RES1   0.0000
   123 H56      -8.5854    5.0118   -0.4408   H         1 RES1   0.0000
   124 H57      -5.0332    4.3024    1.2019   H         1 RES1   0.0000
   125 H58      -2.6175    4.4822    1.0970   H         1 RES1   0.0000
   126 H59       5.3847    1.4879   -2.7874   H         1 RES1   0.0000
   127 H60       5.0981   -0.0559   -4.6330   H         1 RES1   0.0000
   128 O9        0.5003   -0.3847   -2.1448   O.3       1 RES1   0.0000
   129 H61       0.0757   -0.0712   -2.9691   H         1 RES1   0.0000
   130 H62       1.4536   -0.4468   -2.3385   H         1 RES1   0.0000
@<TRIPOS>BOND
     1     1    12    1
     2     1    16    1
     3     1    20    1
     4     1    32    1
     5     1    75    1
     6     1    79    1
     7     1    83    1
     8     1    95    1
     9     1   128    1
    10     2     3    1
    11     2    35    1
    12     2    36    1
    13     2    37    1
    14     3     4    1
    15     3     5    1
    16     3     6    1
    17     4    38    1
    18     4    39    1
    19     4    40    1
    20     5    41    1
    21     5    42    1
    22     5    43    1
    23     6     7    1
    24     6    34    2
    25     7     8    2
    26     7    44    1
    27     8     9    1
    28     8    45    1
    29     9    10    1
    30     9    33    2
    31    10    11    1
    32    10    46    1
    33    11    12    2
    34    11    13    1
    35    13    14    2
    36    13    32    1
    37    14    15    1
    38    14    47    1
    39    15    16    2
    40    15    17    1
    41    17    18    2
    42    17    48    1
    43    18    19    1
    44    18    32    1
    45    19    20    2
    46    19    21    1
    47    21    22    1
    48    21    49    1
    49    22    23    1
    50    22    31    2
    51    23    24    2
    52    23    50    1
    53    24    25    1
    54    24    51    1
    55    25    26    1
    56    25    30    2
    57    26    27    1
    58    26    28    1
    59    26    29    1
    60    27    52    1
    61    27    53    1
    62    27    54    1
    63    28    55    1
    64    28    56    1
    65    28    57    1
    66    29    58    1
    67    29    59    1
    68    29    60    1
    69    30    31    1
    70    30    61    1
    71    31    62    1
    72    33    34    1
    73    33    63    1
    74    34    64    1
    75    65    66    1
    76    65    98    1
    77    65    99    1
    78    65   100    1
    79    66    67    1
    80    66    68    1
    81    66    69    1
    82    67   101    1
    83    67   102    1
    84    67   103    1
    85    68   104    1
    86    68   105    1
    87    68   106    1
    88    69    70    1
    89    69    97    2
    90    70    71    2
    91    70   107    1
    92    71    72    1
    93    71   108    1
    94    72    73    1
    95    72    96    2
    96    73    74    1
    97    73   109    1
    98    74    75    2
    99    74    76    1
   100    76    77    2
   101    76    95    1
   102    77    78    1
   103    77   110    1
   104    78    79    2
   105    78    80    1
   106    80    81    2
   107    80   111    1
   108    81    82    1
   109    81    95    1
   110    82    83    2
   111    82    84    1
   112    84    85    1
   113    84   112    1
   114    85    86    1
   115    85    94    2
   116    86    87    2
   117    86   113    1
   118    87    88    1
   119    87   114    1
   120    88    89    1
   121    88    93    2
   122    89    90    1
   123    89    91    1
   124    89    92    1
   125    90   115    1
   126    90   116    1
   127    90   117    1
   128    91   118    1
   129    91   119    1
   130    91   120    1
   131    92   121    1
   132    92   122    1
   133    92   123    1
   134    93    94    1
   135    93   124    1
   136    94   125    1
   137    96    97    1
   138    96   126    1
   139    97   127    1
   140   128   129    1
   141   128   130    1
@<TRIPOS>SUBSTRUCTURE
     1 RES1      130 GROUP             0 ****  ****    0  
