@<TRIPOS>MOLECULE
cn9_YICLED_0_nunpairedes_0_charge_3 Charge: 3 Unpaired_Electrons: 6 XTB_Unpaired_Electrons: 0 XTB_Charge: 3
   412   417     1     0     0
SMALL
NoCharges
****
Generated from Architector

@<TRIPOS>ATOM
     1 Eu1       0.4208   -0.3485    1.0352   Eu        1 RES1   0.0000
     2 C1       10.1460   -5.1784    0.1893   C.3       1 RES1   0.0000
     3 C2        9.5747   -3.8140   -0.1770   C.3       1 RES1   0.0000
     4 C3        8.6956   -3.9071   -1.4251   C.3       1 RES1   0.0000
     5 C4        7.9288   -2.6160   -1.7340   C.3       1 RES1   0.0000
     6 C5        6.8614   -2.2922   -0.6762   C.3       1 RES1   0.0000
     7 C6        7.2677   -1.1737    0.2825   C.3       1 RES1   0.0000
     8 C7        6.3129   -1.1126    1.4774   C.3       1 RES1   0.0000
     9 C8        6.6041   -2.2059    2.5246   C.3       1 RES1   0.0000
    10 C9        5.3871   -3.0507    2.9122   C.3       1 RES1   0.0000
    11 C10       4.3555   -2.1975    3.6435   C.3       1 RES1   0.0000
    12 N1        3.0772   -2.8359    3.9361   N.am      1 RES1   0.0000
    13 C11       3.0533   -3.8257    5.0099   C.3       1 RES1   0.0000
    14 C12       2.8843   -5.2817    4.5451   C.3       1 RES1   0.0000
    15 C13       2.3989   -6.1914    5.6795   C.3       1 RES1   0.0000
    16 C14       1.8946   -7.5310    5.1332   C.3       1 RES1   0.0000
    17 C15       1.2065   -8.3923    6.2006   C.3       1 RES1   0.0000
    18 C16      -0.3222   -8.3872    6.1194   C.3       1 RES1   0.0000
    19 C17      -0.9909   -7.0234    6.3132   C.3       1 RES1   0.0000
    20 C18      -0.8708   -6.4954    7.7443   C.3       1 RES1   0.0000
    21 C19      -1.3804   -5.0588    7.8964   C.3       1 RES1   0.0000
    22 C20      -2.8972   -4.9326    7.7808   C.3       1 RES1   0.0000
    23 C21       2.0022   -2.4387    3.2692   C.2       1 RES1   0.0000
    24 O1        2.0444   -1.6355    2.3056   O.2       1 RES1   0.0000
    25 C22       0.6248   -2.9280    3.7226   C.3       1 RES1   0.0000
    26 O2       -0.3333   -2.1764    2.9884   O.3       1 RES1   0.0000
    27 C23      -1.6489   -2.7188    3.0558   C.3       1 RES1   0.0000
    28 C24      -2.5384   -1.7409    2.2762   C.2       1 RES1   0.0000
    29 O3       -1.9647   -0.7960    1.6988   O.2       1 RES1   0.0000
    30 N2       -3.8541   -1.9321    2.2332   N.am      1 RES1   0.0000
    31 C25      -4.5611   -2.9521    2.9954   C.3       1 RES1   0.0000
    32 C26      -4.8133   -2.5917    4.4680   C.3       1 RES1   0.0000
    33 C27      -5.8141   -1.4543    4.6996   C.3       1 RES1   0.0000
    34 C28      -6.3419   -1.4598    6.1349   C.3       1 RES1   0.0000
    35 C29      -7.4929   -0.4781    6.3693   C.3       1 RES1   0.0000
    36 C30      -7.0695    0.9885    6.4373   C.3       1 RES1   0.0000
    37 C31      -8.2453    1.8949    6.8015   C.3       1 RES1   0.0000
    38 C32      -7.9024    3.3844    6.8873   C.3       1 RES1   0.0000
    39 C33      -6.9504    3.7654    8.0297   C.3       1 RES1   0.0000
    40 C34      -5.4959    3.9032    7.5847   C.3       1 RES1   0.0000
    41 C35      -4.7086   -0.8818    1.6672   C.3       1 RES1   0.0000
    42 C36      -5.7243   -1.2767    0.5848   C.3       1 RES1   0.0000
    43 C37      -6.9811   -0.3683    0.5937   C.3       1 RES1   0.0000
    44 C38      -7.2482    0.4112   -0.7027   C.3       1 RES1   0.0000
    45 C39      -6.7792    1.8681   -0.7789   C.3       1 RES1   0.0000
    46 C40      -5.2840    2.1333   -0.5316   C.3       1 RES1   0.0000
    47 C41      -5.0205    3.0539    0.6662   C.3       1 RES1   0.0000
    48 C42      -5.5427    2.4340    1.9564   C.3       1 RES1   0.0000
    49 C43      -5.4189    3.2302    3.2519   C.3       1 RES1   0.0000
    50 C44      -6.1309    4.5729    3.2115   C.3       1 RES1   0.0000
    51 H1       10.8086   -5.0963    1.0461   H         1 RES1   0.0000
    52 H2       10.7078   -5.5924   -0.6436   H         1 RES1   0.0000
    53 H3        9.3404   -5.8677    0.4397   H         1 RES1   0.0000
    54 H4       10.3850   -3.1022   -0.3588   H         1 RES1   0.0000
    55 H5        8.9859   -3.4459    0.6678   H         1 RES1   0.0000
    56 H6        7.9823   -4.7275   -1.2947   H         1 RES1   0.0000
    57 H7        9.3298   -4.1533   -2.2820   H         1 RES1   0.0000
    58 H8        8.6364   -1.7864   -1.8144   H         1 RES1   0.0000
    59 H9        7.4520   -2.7330   -2.7122   H         1 RES1   0.0000
    60 H10       6.6546   -3.1973   -0.1000   H         1 RES1   0.0000
    61 H11       5.9254   -2.0043   -1.1714   H         1 RES1   0.0000
    62 H12       7.2637   -0.2199   -0.2514   H         1 RES1   0.0000
    63 H13       8.2852   -1.3317    0.6354   H         1 RES1   0.0000
    64 H14       6.4001   -0.1336    1.9481   H         1 RES1   0.0000
    65 H15       5.2905   -1.2103    1.0952   H         1 RES1   0.0000
    66 H16       7.0263   -1.7555    3.4250   H         1 RES1   0.0000
    67 H17       7.3599   -2.8849    2.1308   H         1 RES1   0.0000
    68 H18       5.7161   -3.8866    3.5285   H         1 RES1   0.0000
    69 H19       4.9445   -3.4640    2.0092   H         1 RES1   0.0000
    70 H20       4.1353   -1.3364    3.0178   H         1 RES1   0.0000
    71 H21       4.7781   -1.8581    4.5911   H         1 RES1   0.0000
    72 H22       2.2396   -3.5779    5.6966   H         1 RES1   0.0000
    73 H23       3.9911   -3.7408    5.5618   H         1 RES1   0.0000
    74 H24       3.8251   -5.6626    4.1446   H         1 RES1   0.0000
    75 H25       2.1527   -5.3353    3.7398   H         1 RES1   0.0000
    76 H26       1.5920   -5.6970    6.2222   H         1 RES1   0.0000
    77 H27       3.2086   -6.3635    6.3902   H         1 RES1   0.0000
    78 H28       2.7430   -8.0762    4.7233   H         1 RES1   0.0000
    79 H29       1.1960   -7.3564    4.3096   H         1 RES1   0.0000
    80 H30       1.5256   -8.0654    7.1880   H         1 RES1   0.0000
    81 H31       1.5270   -9.4278    6.0910   H         1 RES1   0.0000
    82 H32      -0.7093   -9.0712    6.8769   H         1 RES1   0.0000
    83 H33      -0.6132   -8.7789    5.1414   H         1 RES1   0.0000
    84 H34      -2.0497   -7.1227    6.0607   H         1 RES1   0.0000
    85 H35      -0.5593   -6.2992    5.6141   H         1 RES1   0.0000
    86 H36       0.1772   -6.5198    8.0528   H         1 RES1   0.0000
    87 H37      -1.4261   -7.1549    8.4148   H         1 RES1   0.0000
    88 H38      -0.9005   -4.4302    7.1340   H         1 RES1   0.0000
    89 H39      -1.0723   -4.6823    8.8751   H         1 RES1   0.0000
    90 H40      -3.2585   -5.3277    6.8325   H         1 RES1   0.0000
    91 H41      -3.1892   -3.8862    7.8550   H         1 RES1   0.0000
    92 H42      -3.3800   -5.4798    8.5868   H         1 RES1   0.0000
    93 H43       0.5099   -2.7471    4.8007   H         1 RES1   0.0000
    94 H44       0.5044   -4.0037    3.5272   H         1 RES1   0.0000
    95 H45      -1.9843   -2.8042    4.0982   H         1 RES1   0.0000
    96 H46      -1.6766   -3.7141    2.5869   H         1 RES1   0.0000
    97 H47      -4.0207   -3.8966    2.9222   H         1 RES1   0.0000
    98 H48      -5.5308   -3.1036    2.5195   H         1 RES1   0.0000
    99 H49      -3.8792   -2.3448    4.9733   H         1 RES1   0.0000
   100 H50      -5.2080   -3.4913    4.9425   H         1 RES1   0.0000
   101 H51      -6.6621   -1.5695    4.0235   H         1 RES1   0.0000
   102 H52      -5.3406   -0.4899    4.5094   H         1 RES1   0.0000
   103 H53      -5.5222   -1.2249    6.8156   H         1 RES1   0.0000
   104 H54      -6.6983   -2.4657    6.3633   H         1 RES1   0.0000
   105 H55      -7.9587   -0.7271    7.3235   H         1 RES1   0.0000
   106 H56      -8.2428   -0.6107    5.5860   H         1 RES1   0.0000
   107 H57      -6.6635    1.3056    5.4740   H         1 RES1   0.0000
   108 H58      -6.2862    1.0920    7.1894   H         1 RES1   0.0000
   109 H59      -8.6627    1.5752    7.7573   H         1 RES1   0.0000
   110 H60      -9.0290    1.7728    6.0508   H         1 RES1   0.0000
   111 H61      -8.8392    3.9270    7.0209   H         1 RES1   0.0000
   112 H62      -7.4753    3.7174    5.9401   H         1 RES1   0.0000
   113 H63      -7.0222    3.0252    8.8284   H         1 RES1   0.0000
   114 H64      -7.2643    4.7226    8.4524   H         1 RES1   0.0000
   115 H65      -4.8573    4.1158    8.4402   H         1 RES1   0.0000
   116 H66      -5.3970    4.7240    6.8758   H         1 RES1   0.0000
   117 H67      -5.1373    2.9924    7.1091   H         1 RES1   0.0000
   118 H68      -4.0308   -0.1143    1.2951   H         1 RES1   0.0000
   119 H69      -5.2757   -0.4850    2.5083   H         1 RES1   0.0000
   120 H70      -6.0452   -2.3040    0.7573   H         1 RES1   0.0000
   121 H71      -5.2584   -1.2503   -0.4021   H         1 RES1   0.0000
   122 H72      -6.9305    0.3358    1.4172   H         1 RES1   0.0000
   123 H73      -7.8505   -1.0005    0.7753   H         1 RES1   0.0000
   124 H74      -8.3274    0.4410   -0.8529   H         1 RES1   0.0000
   125 H75      -6.8423   -0.1536   -1.5399   H         1 RES1   0.0000
   126 H76      -7.3752    2.4546   -0.0818   H         1 RES1   0.0000
   127 H77      -7.0421    2.2169   -1.7790   H         1 RES1   0.0000
   128 H78      -4.8666    2.6112   -1.4210   H         1 RES1   0.0000
   129 H79      -4.7476    1.1930   -0.3874   H         1 RES1   0.0000
   130 H80      -5.5083    4.0093    0.4813   H         1 RES1   0.0000
   131 H81      -3.9421    3.2171    0.7551   H         1 RES1   0.0000
   132 H82      -5.0072    1.5024    2.1137   H         1 RES1   0.0000
   133 H83      -6.6016    2.2158    1.8240   H         1 RES1   0.0000
   134 H84      -4.3710    3.3773    3.5153   H         1 RES1   0.0000
   135 H85      -5.8695    2.6135    4.0375   H         1 RES1   0.0000
   136 H86      -5.5764    5.2850    2.6015   H         1 RES1   0.0000
   137 H87      -6.2301    4.9773    4.2175   H         1 RES1   0.0000
   138 H88      -7.1271    4.4582    2.7903   H         1 RES1   0.0000
   139 C45       6.8011   -7.1204   -3.4251   C.3       1 RES1   0.0000
   140 C46       6.1334   -7.0188   -2.0624   C.3       1 RES1   0.0000
   141 C47       5.1910   -5.8235   -1.9826   C.3       1 RES1   0.0000
   142 C48       4.5631   -5.6521   -0.6021   C.3       1 RES1   0.0000
   143 C49       3.5128   -4.5451   -0.6216   C.3       1 RES1   0.0000
   144 C50       2.6875   -4.4251    0.6609   C.3       1 RES1   0.0000
   145 C51       1.7934   -5.6157    1.0188   C.3       1 RES1   0.0000
   146 C52       0.7544   -6.0045   -0.0251   C.3       1 RES1   0.0000
   147 C53      -0.2293   -4.8627   -0.2900   C.3       1 RES1   0.0000
   148 C54       0.1445   -4.1472   -1.5838   C.3       1 RES1   0.0000
   149 N3       -0.8629   -3.1612   -1.9466   N.am      1 RES1   0.0000
   150 C55      -1.8064   -3.5621   -2.9761   C.3       1 RES1   0.0000
   151 C56      -1.1692   -4.1788   -4.2356   C.3       1 RES1   0.0000
   152 C57      -2.1630   -4.2174   -5.4162   C.3       1 RES1   0.0000
   153 C58      -1.5849   -3.7296   -6.7510   C.3       1 RES1   0.0000
   154 C59      -2.6701   -3.2895   -7.7405   C.3       1 RES1   0.0000
   155 C60      -2.0904   -2.6114   -8.9948   C.3       1 RES1   0.0000
   156 C61      -2.0193   -1.0733   -8.9192   C.3       1 RES1   0.0000
   157 C62      -3.1182   -0.3806   -9.7310   C.3       1 RES1   0.0000
   158 C63      -3.3637    1.0749   -9.3303   C.3       1 RES1   0.0000
   159 C64      -2.1336    1.9739   -9.3605   C.3       1 RES1   0.0000
   160 C65      -0.8760   -2.0728   -1.1885   C.2       1 RES1   0.0000
   161 O4       -0.1051   -2.0159   -0.2023   O.2       1 RES1   0.0000
   162 C66      -1.8011   -0.8544   -1.4020   C.3       1 RES1   0.0000
   163 O5       -1.2106    0.1933   -0.6294   O.3       1 RES1   0.0000
   164 C67      -1.2105    1.5187   -1.1335   C.3       1 RES1   0.0000
   165 C68      -0.7104    2.3687    0.0523   C.2       1 RES1   0.0000
   166 O6       -0.3887    1.7757    1.1028   O.2       1 RES1   0.0000
   167 N4       -0.7153    3.6941   -0.0424   N.am      1 RES1   0.0000
   168 C69      -0.8364    4.3752   -1.3283   C.3       1 RES1   0.0000
   169 C70      -2.2265    4.8274   -1.8170   C.3       1 RES1   0.0000
   170 C71      -2.9695    5.8457   -0.9478   C.3       1 RES1   0.0000
   171 C72      -4.1544    6.4274   -1.7220   C.3       1 RES1   0.0000
   172 C73      -4.9794    7.4742   -0.9680   C.3       1 RES1   0.0000
   173 C74      -6.0627    6.9102   -0.0438   C.3       1 RES1   0.0000
   174 C75      -7.0232    8.0220    0.3898   C.3       1 RES1   0.0000
   175 C76      -8.1017    7.5998    1.3950   C.3       1 RES1   0.0000
   176 C77      -9.2778    6.8232    0.7777   C.3       1 RES1   0.0000
   177 C78      -9.2646    5.3339    1.1015   C.3       1 RES1   0.0000
   178 C79      -0.5245    4.5076    1.1684   C.3       1 RES1   0.0000
   179 C80       0.8370    5.2132    1.2731   C.3       1 RES1   0.0000
   180 C81       1.0017    6.0166    2.5909   C.3       1 RES1   0.0000
   181 C82       1.7818    5.2836    3.6877   C.3       1 RES1   0.0000
   182 C83       1.5757    5.8313    5.1071   C.3       1 RES1   0.0000
   183 C84       2.2852    4.9487    6.1509   C.3       1 RES1   0.0000
   184 C85       1.5817    4.8818    7.5136   C.3       1 RES1   0.0000
   185 C86       1.7140    3.5129    8.1875   C.3       1 RES1   0.0000
   186 C87       0.8222    3.4105    9.4318   C.3       1 RES1   0.0000
   187 C88      -0.6132    2.9552    9.1669   C.3       1 RES1   0.0000
   188 H89       7.4734   -7.9705   -3.4588   H         1 RES1   0.0000
   189 H90       7.3764   -6.2263   -3.6473   H         1 RES1   0.0000
   190 H91       6.0590   -7.2505   -4.2069   H         1 RES1   0.0000
   191 H92       6.8983   -6.9437   -1.2888   H         1 RES1   0.0000
   192 H93       5.5621   -7.9275   -1.8706   H         1 RES1   0.0000
   193 H94       4.3918   -5.9592   -2.7117   H         1 RES1   0.0000
   194 H95       5.7266   -4.9135   -2.2570   H         1 RES1   0.0000
   195 H96       5.3366   -5.4171    0.1305   H         1 RES1   0.0000
   196 H97       4.1004   -6.5921   -0.3030   H         1 RES1   0.0000
   197 H98       2.8572   -4.7184   -1.4743   H         1 RES1   0.0000
   198 H99       4.0097   -3.5858   -0.7956   H         1 RES1   0.0000
   199 H100      2.0867   -3.5083    0.5994   H         1 RES1   0.0000
   200 H101      3.3693   -4.3087    1.5018   H         1 RES1   0.0000
   201 H102      1.2573   -5.3531    1.9365   H         1 RES1   0.0000
   202 H103      2.4107   -6.4866    1.2385   H         1 RES1   0.0000
   203 H104      0.2218   -6.8918    0.3274   H         1 RES1   0.0000
   204 H105      1.2607   -6.2736   -0.9545   H         1 RES1   0.0000
   205 H106     -0.2101   -4.1476    0.5379   H         1 RES1   0.0000
   206 H107     -1.2499   -5.2413   -0.3675   H         1 RES1   0.0000
   207 H108      0.2310   -4.8677   -2.3923   H         1 RES1   0.0000
   208 H109      1.0954   -3.6281   -1.4581   H         1 RES1   0.0000
   209 H110     -2.3722   -2.6805   -3.2536   H         1 RES1   0.0000
   210 H111     -2.4894   -4.2911   -2.5247   H         1 RES1   0.0000
   211 H112     -0.8354   -5.1955   -4.0175   H         1 RES1   0.0000
   212 H113     -0.3017   -3.5791   -4.5141   H         1 RES1   0.0000
   213 H114     -3.0349   -3.6160   -5.1596   H         1 RES1   0.0000
   214 H115     -2.5335   -5.2310   -5.5631   H         1 RES1   0.0000
   215 H116     -0.9905   -4.5281   -7.1956   H         1 RES1   0.0000
   216 H117     -0.9048   -2.8931   -6.5946   H         1 RES1   0.0000
   217 H118     -3.3639   -2.6034   -7.2474   H         1 RES1   0.0000
   218 H119     -3.2512   -4.1621   -8.0364   H         1 RES1   0.0000
   219 H120     -2.6856   -2.8918   -9.8643   H         1 RES1   0.0000
   220 H121     -1.0890   -3.0076   -9.1619   H         1 RES1   0.0000
   221 H122     -1.0477   -0.7357   -9.2858   H         1 RES1   0.0000
   222 H123     -2.1006   -0.7512   -7.8800   H         1 RES1   0.0000
   223 H124     -4.0579   -0.9184   -9.5923   H         1 RES1   0.0000
   224 H125     -2.8648   -0.4303  -10.7894   H         1 RES1   0.0000
   225 H126     -3.7950    1.0878   -8.3270   H         1 RES1   0.0000
   226 H127     -4.1129    1.4885  -10.0072   H         1 RES1   0.0000
   227 H128     -1.3507    1.6091   -8.6987   H         1 RES1   0.0000
   228 H129     -2.4117    2.9771   -9.0451   H         1 RES1   0.0000
   229 H130     -1.7262    2.0352  -10.3646   H         1 RES1   0.0000
   230 H131     -2.7885   -1.0855   -0.9731   H         1 RES1   0.0000
   231 H132     -1.8957   -0.5663   -2.4507   H         1 RES1   0.0000
   232 H133     -2.2189    1.8610   -1.4077   H         1 RES1   0.0000
   233 H134     -0.5517    1.6097   -2.0110   H         1 RES1   0.0000
   234 H135     -0.4272    3.7058   -2.0874   H         1 RES1   0.0000
   235 H136     -0.1843    5.2498   -1.3005   H         1 RES1   0.0000
   236 H137     -2.8841    3.9736   -1.9919   H         1 RES1   0.0000
   237 H138     -2.0490    5.2782   -2.7981   H         1 RES1   0.0000
   238 H139     -2.2952    6.6545   -0.6637   H         1 RES1   0.0000
   239 H140     -3.3301    5.3598   -0.0425   H         1 RES1   0.0000
   240 H141     -4.8085    5.6108   -2.0275   H         1 RES1   0.0000
   241 H142     -3.7629    6.8844   -2.6307   H         1 RES1   0.0000
   242 H143     -5.4798    8.0949   -1.7123   H         1 RES1   0.0000
   243 H144     -4.3197    8.1270   -0.3926   H         1 RES1   0.0000
   244 H145     -5.6109    6.4620    0.8445   H         1 RES1   0.0000
   245 H146     -6.6266    6.1327   -0.5651   H         1 RES1   0.0000
   246 H147     -7.5170    8.4259   -0.4963   H         1 RES1   0.0000
   247 H148     -6.4370    8.8313    0.8327   H         1 RES1   0.0000
   248 H149     -8.4883    8.5118    1.8547   H         1 RES1   0.0000
   249 H150     -7.6419    7.0092    2.1903   H         1 RES1   0.0000
   250 H151     -9.2757    6.9578   -0.3056   H         1 RES1   0.0000
   251 H152    -10.2150    7.2441    1.1453   H         1 RES1   0.0000
   252 H153     -8.3619    4.8592    0.7231   H         1 RES1   0.0000
   253 H154     -9.3184    5.1797    2.1774   H         1 RES1   0.0000
   254 H155    -10.1233    4.8460    0.6476   H         1 RES1   0.0000
   255 H156     -0.6544    3.8432    2.0252   H         1 RES1   0.0000
   256 H157     -1.3257    5.2475    1.1781   H         1 RES1   0.0000
   257 H158      0.9542    5.8981    0.4297   H         1 RES1   0.0000
   258 H159      1.6173    4.4531    1.1949   H         1 RES1   0.0000
   259 H160      0.0211    6.3013    2.9761   H         1 RES1   0.0000
   260 H161      1.5267    6.9441    2.3740   H         1 RES1   0.0000
   261 H162      2.8486    5.3116    3.4570   H         1 RES1   0.0000
   262 H163      1.4622    4.2455    3.7059   H         1 RES1   0.0000
   263 H164      1.9467    6.8522    5.1912   H         1 RES1   0.0000
   264 H165      0.5105    5.8543    5.3403   H         1 RES1   0.0000
   265 H166      3.3140    5.2825    6.2932   H         1 RES1   0.0000
   266 H167      2.3485    3.9356    5.7498   H         1 RES1   0.0000
   267 H168      0.5190    5.0845    7.3881   H         1 RES1   0.0000
   268 H169      1.9890    5.6515    8.1693   H         1 RES1   0.0000
   269 H170      2.7539    3.3420    8.4722   H         1 RES1   0.0000
   270 H171      1.4490    2.7182    7.4823   H         1 RES1   0.0000
   271 H172      0.7895    4.3925    9.9048   H         1 RES1   0.0000
   272 H173      1.2666    2.7154   10.1466   H         1 RES1   0.0000
   273 H174     -1.1426    3.6296    8.4953   H         1 RES1   0.0000
   274 H175     -1.1563    2.9359   10.1104   H         1 RES1   0.0000
   275 H176     -0.6382    1.9483    8.7481   H         1 RES1   0.0000
   276 C89      -2.8817    6.0517    5.0607   C.3       1 RES1   0.0000
   277 C90      -2.3170    4.7892    5.7006   C.3       1 RES1   0.0000
   278 C91      -1.8655    3.7296    4.6978   C.3       1 RES1   0.0000
   279 C92      -1.7610    2.3753    5.3947   C.3       1 RES1   0.0000
   280 C93      -0.9233    1.3529    4.6378   C.3       1 RES1   0.0000
   281 C94       0.4930    1.8884    4.4525   C.3       1 RES1   0.0000
   282 C95       1.5018    0.7695    4.2638   C.3       1 RES1   0.0000
   283 C96       2.9702    1.1866    4.4752   C.3       1 RES1   0.0000
   284 C97       3.7778    1.3203    3.1843   C.3       1 RES1   0.0000
   285 C98       3.4877    2.5948    2.3846   C.3       1 RES1   0.0000
   286 N5        3.9319    2.4315    1.0074   N.am      1 RES1   0.0000
   287 C99       5.2177    2.9785    0.6025   C.3       1 RES1   0.0000
   288 C100      5.1755    4.3404   -0.1092   C.3       1 RES1   0.0000
   289 C101      6.5983    4.7416   -0.5240   C.3       1 RES1   0.0000
   290 C102      6.6814    5.9918   -1.4203   C.3       1 RES1   0.0000
   291 C103      7.3506    5.7480   -2.7783   C.3       1 RES1   0.0000
   292 C104      6.4606    5.1235   -3.8622   C.3       1 RES1   0.0000
   293 C105      6.2478    3.6049   -3.7872   C.3       1 RES1   0.0000
   294 C106      7.5149    2.8084   -4.1146   C.3       1 RES1   0.0000
   295 C107      7.4525    1.3513   -3.6560   C.3       1 RES1   0.0000
   296 C108      6.3875    0.5331   -4.3757   C.3       1 RES1   0.0000
   297 C109      3.2021    1.6277    0.2552   C.2       1 RES1   0.0000
   298 O7        2.1738    1.0673    0.6939   O.2       1 RES1   0.0000
   299 C110      3.5781    1.3794   -1.1904   C.3       1 RES1   0.0000
   300 O8        2.3567    1.0715   -1.8157   O.3       1 RES1   0.0000
   301 C111      2.4788    0.6089   -3.1475   C.3       1 RES1   0.0000
   302 C112      1.1922   -0.1708   -3.3850   C.2       1 RES1   0.0000
   303 O9        0.6381   -0.6489   -2.3929   O.2       1 RES1   0.0000
   304 N6        0.6981   -0.2090   -4.6259   N.am      1 RES1   0.0000
   305 C113      1.4795    0.1100   -5.8161   C.3       1 RES1   0.0000
   306 C114      2.6251   -0.8811   -6.0729   C.3       1 RES1   0.0000
   307 C115      2.1882   -2.3486   -6.0491   C.3       1 RES1   0.0000
   308 C116      3.3901   -3.2900   -6.0590   C.3       1 RES1   0.0000
   309 C117      3.0562   -4.7565   -6.3099   C.3       1 RES1   0.0000
   310 C118      2.2247   -5.4289   -5.2131   C.3       1 RES1   0.0000
   311 C119      2.6680   -6.8856   -5.0443   C.3       1 RES1   0.0000
   312 C120      1.8557   -7.6767   -4.0176   C.3       1 RES1   0.0000
   313 C121      2.4398   -9.0741   -3.7897   C.3       1 RES1   0.0000
   314 C122      1.4830  -10.0151   -3.0694   C.3       1 RES1   0.0000
   315 C123     -0.6785   -0.6487   -4.8373   C.3       1 RES1   0.0000
   316 C124     -1.6151    0.5617   -4.9503   C.3       1 RES1   0.0000
   317 C125     -3.0464    0.2595   -5.4391   C.3       1 RES1   0.0000
   318 C126     -4.1615    0.0649   -4.3948   C.3       1 RES1   0.0000
   319 C127     -4.3997   -1.3778   -3.9267   C.3       1 RES1   0.0000
   320 C128     -5.8688   -1.7819   -3.8129   C.3       1 RES1   0.0000
   321 C129     -6.0780   -3.2699   -3.5041   C.3       1 RES1   0.0000
   322 C130     -5.4987   -3.7094   -2.1609   C.3       1 RES1   0.0000
   323 C131     -5.9518   -5.0859   -1.6587   C.3       1 RES1   0.0000
   324 C132     -5.2113   -6.2800   -2.2526   C.3       1 RES1   0.0000
   325 H177     -3.0493    6.8138    5.8221   H         1 RES1   0.0000
   326 H178     -3.8278    5.8321    4.5713   H         1 RES1   0.0000
   327 H179     -2.1917    6.4570    4.3202   H         1 RES1   0.0000
   328 H180     -3.0748    4.3457    6.3453   H         1 RES1   0.0000
   329 H181     -1.4660    5.0627    6.3263   H         1 RES1   0.0000
   330 H182     -0.9078    4.0319    4.2761   H         1 RES1   0.0000
   331 H183     -2.5777    3.6673    3.8749   H         1 RES1   0.0000
   332 H184     -2.7604    1.9801    5.5780   H         1 RES1   0.0000
   333 H185     -1.2886    2.5286    6.3665   H         1 RES1   0.0000
   334 H186     -1.3545    1.1111    3.6592   H         1 RES1   0.0000
   335 H187     -0.8976    0.4298    5.2222   H         1 RES1   0.0000
   336 H188      0.7649    2.4883    5.3214   H         1 RES1   0.0000
   337 H189      0.5198    2.5184    3.5658   H         1 RES1   0.0000
   338 H190      1.3244    0.3654    3.2419   H         1 RES1   0.0000
   339 H191      1.2672   -0.0264    4.9714   H         1 RES1   0.0000
   340 H192      3.4622    0.4354    5.0983   H         1 RES1   0.0000
   341 H193      3.0191    2.1308    5.0201   H         1 RES1   0.0000
   342 H194      3.5069    0.4758    2.5451   H         1 RES1   0.0000
   343 H195      4.8445    1.2682    3.4153   H         1 RES1   0.0000
   344 H196      3.9853    3.4666    2.8004   H         1 RES1   0.0000
   345 H197      2.4099    2.7714    2.3596   H         1 RES1   0.0000
   346 H198      5.7323    2.2497   -0.0295   H         1 RES1   0.0000
   347 H199      5.8107    3.0939    1.5082   H         1 RES1   0.0000
   348 H200      4.7597    5.1013    0.5512   H         1 RES1   0.0000
   349 H201      4.5362    4.2964   -0.9909   H         1 RES1   0.0000
   350 H202      7.0539    3.9045   -1.0523   H         1 RES1   0.0000
   351 H203      7.1853    4.9085    0.3788   H         1 RES1   0.0000
   352 H204      7.2586    6.7616   -0.9078   H         1 RES1   0.0000
   353 H205      5.6868    6.4067   -1.5802   H         1 RES1   0.0000
   354 H206      8.2479    5.1448   -2.6342   H         1 RES1   0.0000
   355 H207      7.6765    6.7150   -3.1631   H         1 RES1   0.0000
   356 H208      6.9061    5.3440   -4.8354   H         1 RES1   0.0000
   357 H209      5.4820    5.6129   -3.8445   H         1 RES1   0.0000
   358 H210      5.4671    3.3376   -4.5081   H         1 RES1   0.0000
   359 H211      5.8886    3.3249   -2.7924   H         1 RES1   0.0000
   360 H212      8.3722    3.2742   -3.6264   H         1 RES1   0.0000
   361 H213      7.6934    2.8450   -5.1908   H         1 RES1   0.0000
   362 H214      7.2685    1.3254   -2.5765   H         1 RES1   0.0000
   363 H215      8.4247    0.8894   -3.8342   H         1 RES1   0.0000
   364 H216      5.3988    0.9653   -4.2312   H         1 RES1   0.0000
   365 H217      6.3873   -0.4889   -4.0023   H         1 RES1   0.0000
   366 H218      6.5902    0.5059   -5.4426   H         1 RES1   0.0000
   367 H219      4.2672    0.5185   -1.2348   H         1 RES1   0.0000
   368 H220      4.0639    2.2455   -1.6556   H         1 RES1   0.0000
   369 H221      3.3519   -0.0441   -3.2758   H         1 RES1   0.0000
   370 H222      2.5714    1.4546   -3.8410   H         1 RES1   0.0000
   371 H223      1.8817    1.1267   -5.7624   H         1 RES1   0.0000
   372 H224      0.7929    0.0720   -6.6606   H         1 RES1   0.0000
   373 H225      3.4249   -0.7286   -5.3478   H         1 RES1   0.0000
   374 H226      3.0323   -0.6453   -7.0549   H         1 RES1   0.0000
   375 H227      1.5505   -2.5538   -6.9100   H         1 RES1   0.0000
   376 H228      1.5969   -2.5315   -5.1514   H         1 RES1   0.0000
   377 H229      3.9190   -3.2094   -5.1063   H         1 RES1   0.0000
   378 H230      4.0699   -2.9685   -6.8449   H         1 RES1   0.0000
   379 H231      4.0049   -5.2880   -6.3665   H         1 RES1   0.0000
   380 H232      2.5624   -4.8731   -7.2751   H         1 RES1   0.0000
   381 H233      1.1644   -5.4030   -5.4658   H         1 RES1   0.0000
   382 H234      2.3459   -4.8960   -4.2632   H         1 RES1   0.0000
   383 H235      2.5886   -7.3893   -6.0086   H         1 RES1   0.0000
   384 H236      3.7248   -6.8971   -4.7615   H         1 RES1   0.0000
   385 H237      0.8237   -7.7744   -4.3695   H         1 RES1   0.0000
   386 H238      1.8200   -7.1159   -3.0760   H         1 RES1   0.0000
   387 H239      3.3700   -9.0002   -3.2228   H         1 RES1   0.0000
   388 H240      2.6967   -9.5093   -4.7573   H         1 RES1   0.0000
   389 H241      0.5546  -10.1271   -3.6223   H         1 RES1   0.0000
   390 H242      1.9432  -10.9930   -2.9817   H         1 RES1   0.0000
   391 H243      1.2388   -9.6632   -2.0714   H         1 RES1   0.0000
   392 H244     -0.9452   -1.3022   -4.0106   H         1 RES1   0.0000
   393 H245     -0.7261   -1.2251   -5.7606   H         1 RES1   0.0000
   394 H246     -1.1618    1.2374   -5.6786   H         1 RES1   0.0000
   395 H247     -1.6358    1.1079   -4.0025   H         1 RES1   0.0000
   396 H248     -3.0390   -0.6059   -6.1043   H         1 RES1   0.0000
   397 H249     -3.3310    1.1146   -6.0561   H         1 RES1   0.0000
   398 H250     -5.0786    0.4197   -4.8637   H         1 RES1   0.0000
   399 H251     -3.9810    0.7177   -3.5389   H         1 RES1   0.0000
   400 H252     -3.9383   -1.5305   -2.9530   H         1 RES1   0.0000
   401 H253     -3.9413   -2.0537   -4.6443   H         1 RES1   0.0000
   402 H254     -6.3644   -1.5675   -4.7570   H         1 RES1   0.0000
   403 H255     -6.3549   -1.1701   -3.0529   H         1 RES1   0.0000
   404 H256     -5.6607   -3.8653   -4.3169   H         1 RES1   0.0000
   405 H257     -7.1520   -3.4522   -3.4845   H         1 RES1   0.0000
   406 H258     -5.8152   -2.9825   -1.4157   H         1 RES1   0.0000
   407 H259     -4.4105   -3.6970   -2.2075   H         1 RES1   0.0000
   408 H260     -7.0203   -5.1996   -1.8415   H         1 RES1   0.0000
   409 H261     -5.8037   -5.1128   -0.5739   H         1 RES1   0.0000
   410 H262     -5.2879   -6.3082   -3.3335   H         1 RES1   0.0000
   411 H263     -5.6402   -7.2009   -1.8651   H         1 RES1   0.0000
   412 H264     -4.1559   -6.2658   -1.9831   H         1 RES1   0.0000
@<TRIPOS>BOND
     1     1    24    1
     2     1    26    1
     3     1    29    1
     4     1   161    1
     5     1   163    1
     6     1   166    1
     7     1   298    1
     8     1   300    1
     9     1   303    1
    10     2     3    1
    11     2    51    1
    12     2    52    1
    13     2    53    1
    14     3     4    1
    15     3    54    1
    16     3    55    1
    17     4     5    1
    18     4    56    1
    19     4    57    1
    20     5     6    1
    21     5    58    1
    22     5    59    1
    23     6     7    1
    24     6    60    1
    25     6    61    1
    26     7     8    1
    27     7    62    1
    28     7    63    1
    29     8     9    1
    30     8    64    1
    31     8    65    1
    32     9    10    1
    33     9    66    1
    34     9    67    1
    35    10    11    1
    36    10    68    1
    37    10    69    1
    38    11    12    1
    39    11    70    1
    40    11    71    1
    41    12    13    1
    42    12    23    1
    43    13    14    1
    44    13    72    1
    45    13    73    1
    46    14    15    1
    47    14    74    1
    48    14    75    1
    49    15    16    1
    50    15    76    1
    51    15    77    1
    52    16    17    1
    53    16    78    1
    54    16    79    1
    55    17    18    1
    56    17    80    1
    57    17    81    1
    58    18    19    1
    59    18    82    1
    60    18    83    1
    61    19    20    1
    62    19    84    1
    63    19    85    1
    64    20    21    1
    65    20    86    1
    66    20    87    1
    67    21    22    1
    68    21    88    1
    69    21    89    1
    70    22    90    1
    71    22    91    1
    72    22    92    1
    73    23    24    2
    74    23    25    1
    75    25    26    1
    76    25    93    1
    77    25    94    1
    78    26    27    1
    79    27    28    1
    80    27    95    1
    81    27    96    1
    82    28    29    2
    83    28    30    1
    84    30    31    1
    85    30    41    1
    86    31    32    1
    87    31    97    1
    88    31    98    1
    89    32    33    1
    90    32    99    1
    91    32   100    1
    92    33    34    1
    93    33   101    1
    94    33   102    1
    95    34    35    1
    96    34   103    1
    97    34   104    1
    98    35    36    1
    99    35   105    1
   100    35   106    1
   101    36    37    1
   102    36   107    1
   103    36   108    1
   104    37    38    1
   105    37   109    1
   106    37   110    1
   107    38    39    1
   108    38   111    1
   109    38   112    1
   110    39    40    1
   111    39   113    1
   112    39   114    1
   113    40   115    1
   114    40   116    1
   115    40   117    1
   116    41    42    1
   117    41   118    1
   118    41   119    1
   119    42    43    1
   120    42   120    1
   121    42   121    1
   122    43    44    1
   123    43   122    1
   124    43   123    1
   125    44    45    1
   126    44   124    1
   127    44   125    1
   128    45    46    1
   129    45   126    1
   130    45   127    1
   131    46    47    1
   132    46   128    1
   133    46   129    1
   134    47    48    1
   135    47   130    1
   136    47   131    1
   137    48    49    1
   138    48   132    1
   139    48   133    1
   140    49    50    1
   141    49   134    1
   142    49   135    1
   143    50   136    1
   144    50   137    1
   145    50   138    1
   146   139   140    1
   147   139   188    1
   148   139   189    1
   149   139   190    1
   150   140   141    1
   151   140   191    1
   152   140   192    1
   153   141   142    1
   154   141   193    1
   155   141   194    1
   156   142   143    1
   157   142   195    1
   158   142   196    1
   159   143   144    1
   160   143   197    1
   161   143   198    1
   162   144   145    1
   163   144   199    1
   164   144   200    1
   165   145   146    1
   166   145   201    1
   167   145   202    1
   168   146   147    1
   169   146   203    1
   170   146   204    1
   171   147   148    1
   172   147   205    1
   173   147   206    1
   174   148   149    1
   175   148   207    1
   176   148   208    1
   177   149   150    1
   178   149   160    1
   179   150   151    1
   180   150   209    1
   181   150   210    1
   182   151   152    1
   183   151   211    1
   184   151   212    1
   185   152   153    1
   186   152   213    1
   187   152   214    1
   188   153   154    1
   189   153   215    1
   190   153   216    1
   191   154   155    1
   192   154   217    1
   193   154   218    1
   194   155   156    1
   195   155   219    1
   196   155   220    1
   197   156   157    1
   198   156   221    1
   199   156   222    1
   200   157   158    1
   201   157   223    1
   202   157   224    1
   203   158   159    1
   204   158   225    1
   205   158   226    1
   206   159   227    1
   207   159   228    1
   208   159   229    1
   209   160   161    2
   210   160   162    1
   211   162   163    1
   212   162   230    1
   213   162   231    1
   214   163   164    1
   215   164   165    1
   216   164   232    1
   217   164   233    1
   218   165   166    2
   219   165   167    1
   220   167   168    1
   221   167   178    1
   222   168   169    1
   223   168   234    1
   224   168   235    1
   225   169   170    1
   226   169   236    1
   227   169   237    1
   228   170   171    1
   229   170   238    1
   230   170   239    1
   231   171   172    1
   232   171   240    1
   233   171   241    1
   234   172   173    1
   235   172   242    1
   236   172   243    1
   237   173   174    1
   238   173   244    1
   239   173   245    1
   240   174   175    1
   241   174   246    1
   242   174   247    1
   243   175   176    1
   244   175   248    1
   245   175   249    1
   246   176   177    1
   247   176   250    1
   248   176   251    1
   249   177   252    1
   250   177   253    1
   251   177   254    1
   252   178   179    1
   253   178   255    1
   254   178   256    1
   255   179   180    1
   256   179   257    1
   257   179   258    1
   258   180   181    1
   259   180   259    1
   260   180   260    1
   261   181   182    1
   262   181   261    1
   263   181   262    1
   264   182   183    1
   265   182   263    1
   266   182   264    1
   267   183   184    1
   268   183   265    1
   269   183   266    1
   270   184   185    1
   271   184   267    1
   272   184   268    1
   273   185   186    1
   274   185   269    1
   275   185   270    1
   276   186   187    1
   277   186   271    1
   278   186   272    1
   279   187   273    1
   280   187   274    1
   281   187   275    1
   282   276   277    1
   283   276   325    1
   284   276   326    1
   285   276   327    1
   286   277   278    1
   287   277   328    1
   288   277   329    1
   289   278   279    1
   290   278   330    1
   291   278   331    1
   292   279   280    1
   293   279   332    1
   294   279   333    1
   295   280   281    1
   296   280   334    1
   297   280   335    1
   298   281   282    1
   299   281   336    1
   300   281   337    1
   301   282   283    1
   302   282   338    1
   303   282   339    1
   304   283   284    1
   305   283   340    1
   306   283   341    1
   307   284   285    1
   308   284   342    1
   309   284   343    1
   310   285   286    1
   311   285   344    1
   312   285   345    1
   313   286   287    1
   314   286   297    1
   315   287   288    1
   316   287   346    1
   317   287   347    1
   318   288   289    1
   319   288   348    1
   320   288   349    1
   321   289   290    1
   322   289   350    1
   323   289   351    1
   324   290   291    1
   325   290   352    1
   326   290   353    1
   327   291   292    1
   328   291   354    1
   329   291   355    1
   330   292   293    1
   331   292   356    1
   332   292   357    1
   333   293   294    1
   334   293   358    1
   335   293   359    1
   336   294   295    1
   337   294   360    1
   338   294   361    1
   339   295   296    1
   340   295   362    1
   341   295   363    1
   342   296   364    1
   343   296   365    1
   344   296   366    1
   345   297   298    2
   346   297   299    1
   347   299   300    1
   348   299   367    1
   349   299   368    1
   350   300   301    1
   351   301   302    1
   352   301   369    1
   353   301   370    1
   354   302   303    2
   355   302   304    1
   356   304   305    1
   357   304   315    1
   358   305   306    1
   359   305   371    1
   360   305   372    1
   361   306   307    1
   362   306   373    1
   363   306   374    1
   364   307   308    1
   365   307   375    1
   366   307   376    1
   367   308   309    1
   368   308   377    1
   369   308   378    1
   370   309   310    1
   371   309   379    1
   372   309   380    1
   373   310   311    1
   374   310   381    1
   375   310   382    1
   376   311   312    1
   377   311   383    1
   378   311   384    1
   379   312   313    1
   380   312   385    1
   381   312   386    1
   382   313   314    1
   383   313   387    1
   384   313   388    1
   385   314   389    1
   386   314   390    1
   387   314   391    1
   388   315   316    1
   389   315   392    1
   390   315   393    1
   391   316   317    1
   392   316   394    1
   393   316   395    1
   394   317   318    1
   395   317   396    1
   396   317   397    1
   397   318   319    1
   398   318   398    1
   399   318   399    1
   400   319   320    1
   401   319   400    1
   402   319   401    1
   403   320   321    1
   404   320   402    1
   405   320   403    1
   406   321   322    1
   407   321   404    1
   408   321   405    1
   409   322   323    1
   410   322   406    1
   411   322   407    1
   412   323   324    1
   413   323   408    1
   414   323   409    1
   415   324   410    1
   416   324   411    1
   417   324   412    1
@<TRIPOS>SUBSTRUCTURE
     1 RES1      412 GROUP             0 ****  ****    0  
