@<TRIPOS>MOLECULE
am_c3_9H2O_c0_0_nunpairedes_0_charge_3 Charge: 3 Unpaired_Electrons: 6 XTB_Unpaired_Electrons: 0 XTB_Charge: 3
   361   369     1     0     0
SMALL
NoCharges
****
Generated from Architector

@<TRIPOS>ATOM
     1 Eu1      -0.1903   -0.0096    0.0480   Eu        1 RES1   0.0000
     2 C1       -6.7932   -6.4726    5.1426   C.3       1 RES1   0.0000
     3 C2       -5.4845   -6.3292    4.3730   C.3       1 RES1   0.0000
     4 C3       -5.7069   -5.6874    3.0015   C.3       1 RES1   0.0000
     5 C4       -4.4375   -5.5638    2.1495   C.3       1 RES1   0.0000
     6 C5       -3.2222   -4.9699    2.8686   C.3       1 RES1   0.0000
     7 C6       -3.4821   -3.6396    3.5777   C.3       1 RES1   0.0000
     8 C7       -3.2631   -2.3824    2.7325   C.3       1 RES1   0.0000
     9 C8       -3.5160   -1.1674    3.6197   C.3       1 RES1   0.0000
    10 P1       -2.6856    0.3596    3.0366   P.3       1 RES1   0.0000
    11 O1       -1.5120    0.0611    2.1579   O.2       1 RES1   0.0000
    12 C9       -2.1532    1.2041    4.5985   C.3       1 RES1   0.0000
    13 C10      -3.0897    1.1132    5.8052   C.3       1 RES1   0.0000
    14 C11      -4.4485    1.7919    5.5818   C.3       1 RES1   0.0000
    15 C12      -5.6098    1.0368    6.2266   C.3       1 RES1   0.0000
    16 C13      -6.9683    1.5440    5.7363   C.3       1 RES1   0.0000
    17 C14      -8.1168    0.5759    6.0370   C.3       1 RES1   0.0000
    18 C15      -8.1231   -0.6548    5.1285   C.3       1 RES1   0.0000
    19 C16      -9.2444   -1.6213    5.4877   C.3       1 RES1   0.0000
    20 C17      -3.9564    1.2799    2.0215   C.3       1 RES1   0.0000
    21 C18      -4.6245    0.2486    1.1966   C.ar      1 RES1   0.0000
    22 C19      -5.8206   -0.3391    1.5726   C.ar      1 RES1   0.0000
    23 C20      -6.3747   -1.3503    0.8123   C.ar      1 RES1   0.0000
    24 C21      -5.7300   -1.7072   -0.3553   C.ar      1 RES1   0.0000
    25 C22      -4.5640   -1.0729   -0.7414   C.ar      1 RES1   0.0000
    26 C23      -3.9829   -1.2916   -2.0853   C.3       1 RES1   0.0000
    27 P2       -2.3547   -2.1926   -2.1908   P.3       1 RES1   0.0000
    28 O2       -1.2770   -1.4112   -1.5108   O.2       1 RES1   0.0000
    29 C24      -2.4359   -3.8760   -1.4330   C.3       1 RES1   0.0000
    30 C25      -2.8955   -5.0202   -2.3314   C.3       1 RES1   0.0000
    31 C26      -4.3778   -4.9178   -2.6762   C.3       1 RES1   0.0000
    32 C27      -4.8485   -6.0914   -3.5312   C.3       1 RES1   0.0000
    33 C28      -6.3631   -6.1140   -3.7425   C.3       1 RES1   0.0000
    34 C29      -6.9884   -4.9131   -4.4599   C.3       1 RES1   0.0000
    35 C30      -6.7134   -4.8019   -5.9632   C.3       1 RES1   0.0000
    36 C31      -5.3781   -4.1582   -6.3129   C.3       1 RES1   0.0000
    37 C32      -2.1066   -2.4025   -4.0029   C.3       1 RES1   0.0000
    38 C33      -2.2563   -1.1289   -4.8532   C.3       1 RES1   0.0000
    39 C34      -3.4491   -1.2217   -5.8101   C.3       1 RES1   0.0000
    40 C35      -3.5276   -0.1019   -6.8485   C.3       1 RES1   0.0000
    41 C36      -3.8154    1.2956   -6.3020   C.3       1 RES1   0.0000
    42 C37      -5.2037    1.4427   -5.6811   C.3       1 RES1   0.0000
    43 C38      -5.3959    2.8088   -5.0240   C.3       1 RES1   0.0000
    44 C39      -6.7755    2.9505   -4.3929   C.3       1 RES1   0.0000
    45 N1       -3.9823   -0.1513    0.0676   N.ar      1 RES1   0.0000
    46 O3       -2.8498    0.3859   -0.2617   O.co2     1 RES1   0.0000
    47 H1       -6.6158   -6.9581    6.0990   H         1 RES1   0.0000
    48 H2       -7.5045   -7.0715    4.5806   H         1 RES1   0.0000
    49 H3       -7.2401   -5.4986    5.3325   H         1 RES1   0.0000
    50 H4       -5.0325   -7.3140    4.2394   H         1 RES1   0.0000
    51 H5       -4.7994   -5.7218    4.9697   H         1 RES1   0.0000
    52 H6       -6.1707   -4.7052    3.1311   H         1 RES1   0.0000
    53 H7       -6.4226   -6.2980    2.4455   H         1 RES1   0.0000
    54 H8       -4.6753   -4.9689    1.2630   H         1 RES1   0.0000
    55 H9       -4.1504   -6.5598    1.8094   H         1 RES1   0.0000
    56 H10      -2.4137   -4.8400    2.1423   H         1 RES1   0.0000
    57 H11      -2.8878   -5.6898    3.6159   H         1 RES1   0.0000
    58 H12      -2.8372   -3.5780    4.4599   H         1 RES1   0.0000
    59 H13      -4.5064   -3.6279    3.9469   H         1 RES1   0.0000
    60 H14      -3.9289   -2.3954    1.8672   H         1 RES1   0.0000
    61 H15      -2.2330   -2.3183    2.3567   H         1 RES1   0.0000
    62 H16      -3.0597   -1.3782    4.5901   H         1 RES1   0.0000
    63 H17      -4.5819   -1.0069    3.7919   H         1 RES1   0.0000
    64 H18      -1.9253    2.2452    4.3876   H         1 RES1   0.0000
    65 H19      -1.2009    0.7103    4.8200   H         1 RES1   0.0000
    66 H20      -2.5831    1.5677    6.6590   H         1 RES1   0.0000
    67 H21      -3.2500    0.0667    6.0654   H         1 RES1   0.0000
    68 H22      -4.6434    1.8431    4.5122   H         1 RES1   0.0000
    69 H23      -4.4275    2.8160    5.9535   H         1 RES1   0.0000
    70 H24      -5.5551    1.1207    7.3105   H         1 RES1   0.0000
    71 H25      -5.5130   -0.0204    5.9783   H         1 RES1   0.0000
    72 H26      -6.9270    1.7120    4.6545   H         1 RES1   0.0000
    73 H27      -7.1845    2.5065    6.2021   H         1 RES1   0.0000
    74 H28      -9.0631    1.1029    5.9074   H         1 RES1   0.0000
    75 H29      -8.0642    0.2622    7.0804   H         1 RES1   0.0000
    76 H30      -7.1679   -1.1823    5.2031   H         1 RES1   0.0000
    77 H31      -8.2517   -0.3348    4.0895   H         1 RES1   0.0000
    78 H32      -9.1487   -1.9450    6.5204   H         1 RES1   0.0000
    79 H33      -9.2188   -2.5000    4.8468   H         1 RES1   0.0000
    80 H34     -10.2134   -1.1461    5.3685   H         1 RES1   0.0000
    81 H35      -3.4154    1.9833    1.3844   H         1 RES1   0.0000
    82 H36      -4.6872    1.7965    2.6404   H         1 RES1   0.0000
    83 H37      -6.3163   -0.0001    2.4693   H         1 RES1   0.0000
    84 H38      -7.3019   -1.8156    1.0947   H         1 RES1   0.0000
    85 H39      -6.1512   -2.4509   -1.0094   H         1 RES1   0.0000
    86 H40      -3.7594   -0.3116   -2.5228   H         1 RES1   0.0000
    87 H41      -4.7082   -1.8103   -2.7108   H         1 RES1   0.0000
    88 H42      -3.0786   -3.8170   -0.5504   H         1 RES1   0.0000
    89 H43      -1.4086   -4.0360   -1.0902   H         1 RES1   0.0000
    90 H44      -2.7254   -5.9618   -1.8046   H         1 RES1   0.0000
    91 H45      -2.3005   -5.0556   -3.2455   H         1 RES1   0.0000
    92 H46      -4.5685   -3.9862   -3.2096   H         1 RES1   0.0000
    93 H47      -4.9548   -4.9014   -1.7482   H         1 RES1   0.0000
    94 H48      -4.5697   -7.0183   -3.0292   H         1 RES1   0.0000
    95 H49      -4.3285   -6.0825   -4.4884   H         1 RES1   0.0000
    96 H50      -6.8393   -6.2025   -2.7597   H         1 RES1   0.0000
    97 H51      -6.6127   -7.0164   -4.3034   H         1 RES1   0.0000
    98 H52      -6.7011   -3.9800   -3.9642   H         1 RES1   0.0000
    99 H53      -8.0670   -5.0159   -4.3387   H         1 RES1   0.0000
   100 H54      -7.4984   -4.1784   -6.3946   H         1 RES1   0.0000
   101 H55      -6.7845   -5.7841   -6.4304   H         1 RES1   0.0000
   102 H56      -5.2374   -3.2646   -5.7102   H         1 RES1   0.0000
   103 H57      -5.3672   -3.8631   -7.3595   H         1 RES1   0.0000
   104 H58      -4.5389   -4.8290   -6.1500   H         1 RES1   0.0000
   105 H59      -2.8140   -3.1559   -4.3445   H         1 RES1   0.0000
   106 H60      -1.1124   -2.8378   -4.1202   H         1 RES1   0.0000
   107 H61      -1.3562   -0.9911   -5.4538   H         1 RES1   0.0000
   108 H62      -2.3390   -0.2599   -4.1986   H         1 RES1   0.0000
   109 H63      -4.3823   -1.2549   -5.2455   H         1 RES1   0.0000
   110 H64      -3.3619   -2.1611   -6.3595   H         1 RES1   0.0000
   111 H65      -4.3133   -0.3658   -7.5573   H         1 RES1   0.0000
   112 H66      -2.5842   -0.0755   -7.3957   H         1 RES1   0.0000
   113 H67      -3.7252    2.0017   -7.1291   H         1 RES1   0.0000
   114 H68      -3.0602    1.5641   -5.5655   H         1 RES1   0.0000
   115 H69      -5.3563    0.6729   -4.9225   H         1 RES1   0.0000
   116 H70      -5.9647    1.3013   -6.4491   H         1 RES1   0.0000
   117 H71      -5.2516    3.5938   -5.7688   H         1 RES1   0.0000
   118 H72      -4.6348    2.9396   -4.2468   H         1 RES1   0.0000
   119 H73      -7.5492    2.8457   -5.1465   H         1 RES1   0.0000
   120 H74      -6.8857    3.9273   -3.9298   H         1 RES1   0.0000
   121 H75      -6.9324    2.1880   -3.6325   H         1 RES1   0.0000
   122 C40      -3.5699    8.0129    5.1985   C.3       1 RES1   0.0000
   123 C41      -3.8665    7.0785    4.0338   C.3       1 RES1   0.0000
   124 C42      -2.8775    7.3049    2.8903   C.3       1 RES1   0.0000
   125 C43      -3.1626    6.4681    1.6390   C.3       1 RES1   0.0000
   126 C44      -3.3265    4.9720    1.9102   C.3       1 RES1   0.0000
   127 C45      -2.1770    4.3402    2.6956   C.3       1 RES1   0.0000
   128 C46      -0.8941    4.0121    1.9243   C.3       1 RES1   0.0000
   129 C47       0.2381    3.7469    2.9237   C.3       1 RES1   0.0000
   130 P3        1.4434    2.4485    2.3917   P.3       1 RES1   0.0000
   131 O4        0.8455    1.5528    1.3509   O.2       1 RES1   0.0000
   132 C48       1.9429    1.3736    3.7977   C.3       1 RES1   0.0000
   133 C49       1.9247    1.8502    5.2458   C.3       1 RES1   0.0000
   134 C50       3.1161    2.7487    5.5974   C.3       1 RES1   0.0000
   135 C51       2.7189    4.2173    5.5572   C.3       1 RES1   0.0000
   136 C52       3.8950    5.1722    5.7402   C.3       1 RES1   0.0000
   137 C53       3.4283    6.5874    6.0874   C.3       1 RES1   0.0000
   138 C54       2.4504    7.1766    5.0720   C.3       1 RES1   0.0000
   139 C55       1.9959    8.5703    5.4802   C.3       1 RES1   0.0000
   140 C56       2.9417    3.3368    1.7412   C.3       1 RES1   0.0000
   141 C57       2.3855    4.3508    0.8107   C.ar      1 RES1   0.0000
   142 C58       2.2374    5.6775    1.1625   C.ar      1 RES1   0.0000
   143 C59       1.5378    6.5474    0.3483   C.ar      1 RES1   0.0000
   144 C60       0.9876    6.0340   -0.8149   C.ar      1 RES1   0.0000
   145 C61       1.1780    4.7080   -1.1615   C.ar      1 RES1   0.0000
   146 C62       0.6219    4.1126   -2.3936   C.3       1 RES1   0.0000
   147 P4       -0.9092    3.1139   -2.0684   P.3       1 RES1   0.0000
   148 O5       -0.6956    2.0196   -1.0686   O.2       1 RES1   0.0000
   149 C63      -2.2445    4.1985   -1.4041   C.3       1 RES1   0.0000
   150 C64      -3.1059    5.0490   -2.3306   C.3       1 RES1   0.0000
   151 C65      -2.3675    6.2465   -2.9150   C.3       1 RES1   0.0000
   152 C66      -3.2900    7.0932   -3.7910   C.3       1 RES1   0.0000
   153 C67      -2.6721    8.4287   -4.2086   C.3       1 RES1   0.0000
   154 C68      -1.3386    8.3758   -4.9619   C.3       1 RES1   0.0000
   155 C69      -1.3885    7.8627   -6.4057   C.3       1 RES1   0.0000
   156 C70      -1.3961    6.3454   -6.5420   C.3       1 RES1   0.0000
   157 C71      -1.4768    2.4681   -3.6891   C.3       1 RES1   0.0000
   158 C72      -0.3941    2.0915   -4.7051   C.3       1 RES1   0.0000
   159 C73      -0.1571    3.2206   -5.7081   C.3       1 RES1   0.0000
   160 C74       0.6879    2.8616   -6.9344   C.3       1 RES1   0.0000
   161 C75       2.1475    2.4810   -6.6672   C.3       1 RES1   0.0000
   162 C76       2.8650    3.3988   -5.6800   C.3       1 RES1   0.0000
   163 C77       4.3439    3.0487   -5.5386   C.3       1 RES1   0.0000
   164 C78       5.0108    3.8494   -4.4268   C.3       1 RES1   0.0000
   165 N2        1.8931    3.8725   -0.3634   N.ar      1 RES1   0.0000
   166 O6        2.1059    2.6687   -0.7119   O.co2     1 RES1   0.0000
   167 H76      -4.2636    7.8393    6.0160   H         1 RES1   0.0000
   168 H77      -3.6632    9.0491    4.8868   H         1 RES1   0.0000
   169 H78      -2.5568    7.8552    5.5631   H         1 RES1   0.0000
   170 H79      -4.8796    7.2531    3.6699   H         1 RES1   0.0000
   171 H80      -3.8105    6.0457    4.3873   H         1 RES1   0.0000
   172 H81      -1.8628    7.1085    3.2487   H         1 RES1   0.0000
   173 H82      -2.9102    8.3584    2.6042   H         1 RES1   0.0000
   174 H83      -2.3538    6.6321    0.9227   H         1 RES1   0.0000
   175 H84      -4.0887    6.8195    1.1790   H         1 RES1   0.0000
   176 H85      -3.4702    4.4472    0.9653   H         1 RES1   0.0000
   177 H86      -4.2370    4.8349    2.4965   H         1 RES1   0.0000
   178 H87      -2.5610    3.4081    3.1091   H         1 RES1   0.0000
   179 H88      -1.9225    5.0000    3.5256   H         1 RES1   0.0000
   180 H89      -0.6159    4.8373    1.2689   H         1 RES1   0.0000
   181 H90      -1.0396    3.1216    1.3015   H         1 RES1   0.0000
   182 H91      -0.1851    3.3756    3.8566   H         1 RES1   0.0000
   183 H92       0.7645    4.6706    3.1612   H         1 RES1   0.0000
   184 H93       2.9546    1.0495    3.5516   H         1 RES1   0.0000
   185 H94       1.2820    0.5123    3.6574   H         1 RES1   0.0000
   186 H95       1.9321    0.9627    5.8824   H         1 RES1   0.0000
   187 H96       0.9977    2.3807    5.4626   H         1 RES1   0.0000
   188 H97       3.9370    2.5659    4.9016   H         1 RES1   0.0000
   189 H98       3.4806    2.5112    6.5956   H         1 RES1   0.0000
   190 H99       1.9913    4.4038    6.3488   H         1 RES1   0.0000
   191 H100      2.2352    4.4139    4.6010   H         1 RES1   0.0000
   192 H101      4.4985    5.1932    4.8291   H         1 RES1   0.0000
   193 H102      4.5336    4.8078    6.5468   H         1 RES1   0.0000
   194 H103      4.3001    7.2398    6.1603   H         1 RES1   0.0000
   195 H104      2.9506    6.5701    7.0688   H         1 RES1   0.0000
   196 H105      1.5682    6.5372    4.9922   H         1 RES1   0.0000
   197 H106      2.9305    7.2208    4.0906   H         1 RES1   0.0000
   198 H107      1.5317    8.5407    6.4623   H         1 RES1   0.0000
   199 H108      1.2724    8.9643    4.7706   H         1 RES1   0.0000
   200 H109      2.8405    9.2501    5.5229   H         1 RES1   0.0000
   201 H110      3.5608    2.6107    1.2122   H         1 RES1   0.0000
   202 H111      3.5004    3.8033    2.5491   H         1 RES1   0.0000
   203 H112      2.6688    6.0282    2.0855   H         1 RES1   0.0000
   204 H113      1.4019    7.5797    0.6189   H         1 RES1   0.0000
   205 H114      0.4080    6.6652   -1.4616   H         1 RES1   0.0000
   206 H115      1.3488    3.4148   -2.8151   H         1 RES1   0.0000
   207 H116      0.3707    4.8876   -3.1131   H         1 RES1   0.0000
   208 H117     -1.7839    4.8401   -0.6499   H         1 RES1   0.0000
   209 H118     -2.8711    3.4677   -0.8833   H         1 RES1   0.0000
   210 H119     -3.9528    5.4203   -1.7478   H         1 RES1   0.0000
   211 H120     -3.5173    4.4417   -3.1366   H         1 RES1   0.0000
   212 H121     -1.5218    5.8956   -3.5070   H         1 RES1   0.0000
   213 H122     -1.9876    6.8636   -2.0966   H         1 RES1   0.0000
   214 H123     -4.2010    7.3106   -3.2275   H         1 RES1   0.0000
   215 H124     -3.5860    6.5209   -4.6703   H         1 RES1   0.0000
   216 H125     -2.5179    9.0271   -3.3051   H         1 RES1   0.0000
   217 H126     -3.3993    8.9572   -4.8269   H         1 RES1   0.0000
   218 H127     -0.6073    7.7937   -4.3938   H         1 RES1   0.0000
   219 H128     -0.9677    9.4023   -5.0003   H         1 RES1   0.0000
   220 H129     -0.4943    8.2286   -6.9150   H         1 RES1   0.0000
   221 H130     -2.2519    8.2846   -6.9197   H         1 RES1   0.0000
   222 H131     -0.5968    5.9221   -5.9398   H         1 RES1   0.0000
   223 H132     -1.2223    6.0630   -7.5777   H         1 RES1   0.0000
   224 H133     -2.3403    5.9077   -6.2323   H         1 RES1   0.0000
   225 H134     -2.1534    3.1968   -4.1358   H         1 RES1   0.0000
   226 H135     -2.0615    1.5896   -3.4015   H         1 RES1   0.0000
   227 H136     -0.7407    1.2218   -5.2613   H         1 RES1   0.0000
   228 H137      0.5165    1.8036   -4.1774   H         1 RES1   0.0000
   229 H138      0.2958    4.0763   -5.2082   H         1 RES1   0.0000
   230 H139     -1.1338    3.5356   -6.0856   H         1 RES1   0.0000
   231 H140      0.6683    3.7317   -7.5943   H         1 RES1   0.0000
   232 H141      0.2074    2.0392   -7.4707   H         1 RES1   0.0000
   233 H142      2.6748    2.5060   -7.6217   H         1 RES1   0.0000
   234 H143      2.1974    1.4526   -6.3082   H         1 RES1   0.0000
   235 H144      2.4022    3.3128   -4.6952   H         1 RES1   0.0000
   236 H145      2.7683    4.4358   -6.0032   H         1 RES1   0.0000
   237 H146      4.8537    3.2416   -6.4821   H         1 RES1   0.0000
   238 H147      4.4395    1.9801   -5.3252   H         1 RES1   0.0000
   239 H148      4.9832    4.9117   -4.6495   H         1 RES1   0.0000
   240 H149      6.0514    3.5574   -4.3196   H         1 RES1   0.0000
   241 H150      4.5095    3.6862   -3.4740   H         1 RES1   0.0000
   242 C79       8.9436   -2.5334    4.3006   C.3       1 RES1   0.0000
   243 C80       8.2786   -1.2708    3.7683   C.3       1 RES1   0.0000
   244 C81       7.4565   -1.5739    2.5149   C.3       1 RES1   0.0000
   245 C82       6.6451   -0.3846    1.9951   C.3       1 RES1   0.0000
   246 C83       5.6932    0.2331    3.0250   C.3       1 RES1   0.0000
   247 C84       4.8478   -0.7823    3.7935   C.3       1 RES1   0.0000
   248 C85       3.8173   -1.4918    2.9161   C.3       1 RES1   0.0000
   249 C86       2.8343   -2.2718    3.7840   C.3       1 RES1   0.0000
   250 P5        1.1788   -2.4366    3.0047   P.3       1 RES1   0.0000
   251 O7        0.8333   -1.2572    2.1566   O.2       1 RES1   0.0000
   252 C87      -0.0730   -2.7172    4.3275   C.3       1 RES1   0.0000
   253 C88       0.2447   -3.5120    5.6011   C.3       1 RES1   0.0000
   254 C89       0.3397   -5.0364    5.4251   C.3       1 RES1   0.0000
   255 C90       1.7878   -5.5097    5.3489   C.3       1 RES1   0.0000
   256 C91       1.9565   -6.9905    5.0129   C.3       1 RES1   0.0000
   257 C92       3.4027   -7.4539    5.2159   C.3       1 RES1   0.0000
   258 C93       4.4085   -6.7658    4.2913   C.3       1 RES1   0.0000
   259 C94       5.8407   -7.1742    4.6098   C.3       1 RES1   0.0000
   260 C95       1.1801   -3.9921    1.9982   C.3       1 RES1   0.0000
   261 C96       2.2349   -3.9195    0.9662   C.ar      1 RES1   0.0000
   262 C97       3.4519   -4.5709    1.0967   C.ar      1 RES1   0.0000
   263 C98       4.3863   -4.5193    0.0812   C.ar      1 RES1   0.0000
   264 C99       4.0327   -3.8630   -1.0847   C.ar      1 RES1   0.0000
   265 C100      2.8179   -3.2079   -1.1872   C.ar      1 RES1   0.0000
   266 C101      2.3544   -2.5702   -2.4333   C.3       1 RES1   0.0000
   267 P6        2.4145   -0.7043   -2.4601   P.3       1 RES1   0.0000
   268 O8        1.2205   -0.0988   -1.7954   O.2       1 RES1   0.0000
   269 C102      3.9430   -0.1010   -1.6278   C.3       1 RES1   0.0000
   270 C103      5.1638    0.1264   -2.5157   C.3       1 RES1   0.0000
   271 C104      5.7898   -1.1674   -3.0322   C.3       1 RES1   0.0000
   272 C105      6.9094   -0.8821   -4.0332   C.3       1 RES1   0.0000
   273 C106      7.6557   -2.1350   -4.4992   C.3       1 RES1   0.0000
   274 C107      6.8485   -3.1772   -5.2829   C.3       1 RES1   0.0000
   275 C108      6.5398   -2.8481   -6.7477   C.3       1 RES1   0.0000
   276 C109      5.4644   -1.7864   -6.9504   C.3       1 RES1   0.0000
   277 C110      2.4901   -0.3828   -4.2659   C.3       1 RES1   0.0000
   278 C111      1.3700   -1.0628   -5.0811   C.3       1 RES1   0.0000
   279 C112      1.9386   -1.9401   -6.2017   C.3       1 RES1   0.0000
   280 C113      0.9596   -2.3641   -7.3034   C.3       1 RES1   0.0000
   281 C114     -0.1184   -3.4012   -6.9665   C.3       1 RES1   0.0000
   282 C115      0.3765   -4.6259   -6.1980   C.3       1 RES1   0.0000
   283 C116     -0.7221   -5.6804   -6.0460   C.3       1 RES1   0.0000
   284 C117     -0.2993   -6.8154   -5.1217   C.3       1 RES1   0.0000
   285 N3        1.9670   -3.1712   -0.1333   N.ar      1 RES1   0.0000
   286 O9        0.8669   -2.4922   -0.2184   O.co2     1 RES1   0.0000
   287 H151      9.5329   -2.3089    5.1843   H         1 RES1   0.0000
   288 H152      9.5997   -2.9672    3.5514   H         1 RES1   0.0000
   289 H153      8.1937   -3.2746    4.5703   H         1 RES1   0.0000
   290 H154      9.0387   -0.5260    3.5287   H         1 RES1   0.0000
   291 H155      7.6404   -0.8565    4.5511   H         1 RES1   0.0000
   292 H156      6.7869   -2.4143    2.7173   H         1 RES1   0.0000
   293 H157      8.1326   -1.8959    1.7198   H         1 RES1   0.0000
   294 H158      6.0681   -0.7097    1.1234   H         1 RES1   0.0000
   295 H159      7.3304    0.3977    1.6614   H         1 RES1   0.0000
   296 H160      5.0261    0.9291    2.5039   H         1 RES1   0.0000
   297 H161      6.2738    0.8135    3.7440   H         1 RES1   0.0000
   298 H162      4.3324   -0.2637    4.6057   H         1 RES1   0.0000
   299 H163      5.4963   -1.5203    4.2630   H         1 RES1   0.0000
   300 H164      4.3280   -2.1696    2.2311   H         1 RES1   0.0000
   301 H165      3.2639   -0.7628    2.3143   H         1 RES1   0.0000
   302 H166      2.6598   -1.7328    4.7186   H         1 RES1   0.0000
   303 H167      3.2334   -3.2509    4.0436   H         1 RES1   0.0000
   304 H168     -0.9136   -3.1910    3.8203   H         1 RES1   0.0000
   305 H169     -0.3857   -1.7006    4.5945   H         1 RES1   0.0000
   306 H170     -0.5628   -3.2939    6.3038   H         1 RES1   0.0000
   307 H171      1.1665   -3.1491    6.0564   H         1 RES1   0.0000
   308 H172     -0.2178   -5.3517    4.5414   H         1 RES1   0.0000
   309 H173     -0.1229   -5.5225    6.2834   H         1 RES1   0.0000
   310 H174      2.2586   -5.3224    6.3154   H         1 RES1   0.0000
   311 H175      2.3073   -4.9106    4.6024   H         1 RES1   0.0000
   312 H176      1.6537   -7.1795    3.9791   H         1 RES1   0.0000
   313 H177      1.3081   -7.5850    5.6587   H         1 RES1   0.0000
   314 H178      3.4580   -8.5307    5.0498   H         1 RES1   0.0000
   315 H179      3.6920   -7.2708    6.2525   H         1 RES1   0.0000
   316 H180      4.3357   -5.6800    4.3987   H         1 RES1   0.0000
   317 H181      4.1775   -7.0271    3.2542   H         1 RES1   0.0000
   318 H182      6.0897   -6.9051    5.6326   H         1 RES1   0.0000
   319 H183      6.5414   -6.6753    3.9438   H         1 RES1   0.0000
   320 H184      5.9668   -8.2460    4.4992   H         1 RES1   0.0000
   321 H185      0.1973   -4.0363    1.5199   H         1 RES1   0.0000
   322 H186      1.3307   -4.8537    2.6422   H         1 RES1   0.0000
   323 H187      3.6496   -5.1391    1.9910   H         1 RES1   0.0000
   324 H188      5.3413   -5.0061    0.1688   H         1 RES1   0.0000
   325 H189      4.6844   -3.8761   -1.9375   H         1 RES1   0.0000
   326 H190      1.2980   -2.8080   -2.5720   H         1 RES1   0.0000
   327 H191      2.9423   -2.9312   -3.2729   H         1 RES1   0.0000
   328 H192      4.1843   -0.8002   -0.8228   H         1 RES1   0.0000
   329 H193      3.6085    0.8393   -1.1788   H         1 RES1   0.0000
   330 H194      5.9153    0.6661   -1.9353   H         1 RES1   0.0000
   331 H195      4.8894    0.7643   -3.3569   H         1 RES1   0.0000
   332 H196      5.0248   -1.7817   -3.5093   H         1 RES1   0.0000
   333 H197      6.1938   -1.7341   -2.1903   H         1 RES1   0.0000
   334 H198      7.6353   -0.2214   -3.5559   H         1 RES1   0.0000
   335 H199      6.5040   -0.3465   -4.8904   H         1 RES1   0.0000
   336 H200      8.0720   -2.6283   -3.6143   H         1 RES1   0.0000
   337 H201      8.4970   -1.8176   -5.1182   H         1 RES1   0.0000
   338 H202      5.9143   -3.4031   -4.7584   H         1 RES1   0.0000
   339 H203      7.4428   -4.0934   -5.2878   H         1 RES1   0.0000
   340 H204      6.1921   -3.7720   -7.2153   H         1 RES1   0.0000
   341 H205      7.4526   -2.5490   -7.2626   H         1 RES1   0.0000
   342 H206      4.6888   -1.9046   -6.1993   H         1 RES1   0.0000
   343 H207      5.0072   -1.8975   -7.9306   H         1 RES1   0.0000
   344 H208      5.8642   -0.7790   -6.8864   H         1 RES1   0.0000
   345 H209      3.4664   -0.7177   -4.6166   H         1 RES1   0.0000
   346 H210      2.4674    0.6987   -4.3931   H         1 RES1   0.0000
   347 H211      0.7499   -0.2930   -5.5390   H         1 RES1   0.0000
   348 H212      0.7277   -1.6367   -4.4114   H         1 RES1   0.0000
   349 H213      2.4178   -2.8279   -5.7842   H         1 RES1   0.0000
   350 H214      2.7054   -1.3482   -6.7048   H         1 RES1   0.0000
   351 H215      0.4621   -1.4714   -7.6897   H         1 RES1   0.0000
   352 H216      1.5706   -2.7670   -8.1128   H         1 RES1   0.0000
   353 H217     -0.5449   -3.7356   -7.9150   H         1 RES1   0.0000
   354 H218     -0.9288   -2.9381   -6.4051   H         1 RES1   0.0000
   355 H219      0.7125   -4.3272   -5.2005   H         1 RES1   0.0000
   356 H220      1.2292   -5.0679   -6.7159   H         1 RES1   0.0000
   357 H221     -0.9689   -6.0874   -7.0275   H         1 RES1   0.0000
   358 H222     -1.6260   -5.2058   -5.6502   H         1 RES1   0.0000
   359 H223      0.5492   -7.3483   -5.5379   H         1 RES1   0.0000
   360 H224     -1.1107   -7.5252   -4.9923   H         1 RES1   0.0000
   361 H225     -0.0173   -6.4353   -4.1412   H         1 RES1   0.0000
@<TRIPOS>BOND
     1     1    11    1
     2     1    28    1
     3     1    46    1
     4     1   131    1
     5     1   148    1
     6     1   166    1
     7     1   251    1
     8     1   268    1
     9     1   286    1
    10     2     3    1
    11     2    47    1
    12     2    48    1
    13     2    49    1
    14     3     4    1
    15     3    50    1
    16     3    51    1
    17     4     5    1
    18     4    52    1
    19     4    53    1
    20     5     6    1
    21     5    54    1
    22     5    55    1
    23     6     7    1
    24     6    56    1
    25     6    57    1
    26     7     8    1
    27     7    58    1
    28     7    59    1
    29     8     9    1
    30     8    60    1
    31     8    61    1
    32     9    10    1
    33     9    62    1
    34     9    63    1
    35    10    11    2
    36    10    12    1
    37    10    20    1
    38    12    13    1
    39    12    64    1
    40    12    65    1
    41    13    14    1
    42    13    66    1
    43    13    67    1
    44    14    15    1
    45    14    68    1
    46    14    69    1
    47    15    16    1
    48    15    70    1
    49    15    71    1
    50    16    17    1
    51    16    72    1
    52    16    73    1
    53    17    18    1
    54    17    74    1
    55    17    75    1
    56    18    19    1
    57    18    76    1
    58    18    77    1
    59    19    78    1
    60    19    79    1
    61    19    80    1
    62    20    21    1
    63    20    81    1
    64    20    82    1
    65    21    22    1
    66    21    45    2
    67    22    23    2
    68    22    83    1
    69    23    24    1
    70    23    84    1
    71    24    25    2
    72    24    85    1
    73    25    26    1
    74    25    45    1
    75    26    27    1
    76    26    86    1
    77    26    87    1
    78    27    28    2
    79    27    29    1
    80    27    37    1
    81    29    30    1
    82    29    88    1
    83    29    89    1
    84    30    31    1
    85    30    90    1
    86    30    91    1
    87    31    32    1
    88    31    92    1
    89    31    93    1
    90    32    33    1
    91    32    94    1
    92    32    95    1
    93    33    34    1
    94    33    96    1
    95    33    97    1
    96    34    35    1
    97    34    98    1
    98    34    99    1
    99    35    36    1
   100    35   100    1
   101    35   101    1
   102    36   102    1
   103    36   103    1
   104    36   104    1
   105    37    38    1
   106    37   105    1
   107    37   106    1
   108    38    39    1
   109    38   107    1
   110    38   108    1
   111    39    40    1
   112    39   109    1
   113    39   110    1
   114    40    41    1
   115    40   111    1
   116    40   112    1
   117    41    42    1
   118    41   113    1
   119    41   114    1
   120    42    43    1
   121    42   115    1
   122    42   116    1
   123    43    44    1
   124    43   117    1
   125    43   118    1
   126    44   119    1
   127    44   120    1
   128    44   121    1
   129    45    46    1
   130   122   123    1
   131   122   167    1
   132   122   168    1
   133   122   169    1
   134   123   124    1
   135   123   170    1
   136   123   171    1
   137   124   125    1
   138   124   172    1
   139   124   173    1
   140   125   126    1
   141   125   174    1
   142   125   175    1
   143   126   127    1
   144   126   176    1
   145   126   177    1
   146   127   128    1
   147   127   178    1
   148   127   179    1
   149   128   129    1
   150   128   180    1
   151   128   181    1
   152   129   130    1
   153   129   182    1
   154   129   183    1
   155   130   131    2
   156   130   132    1
   157   130   140    1
   158   132   133    1
   159   132   184    1
   160   132   185    1
   161   133   134    1
   162   133   186    1
   163   133   187    1
   164   134   135    1
   165   134   188    1
   166   134   189    1
   167   135   136    1
   168   135   190    1
   169   135   191    1
   170   136   137    1
   171   136   192    1
   172   136   193    1
   173   137   138    1
   174   137   194    1
   175   137   195    1
   176   138   139    1
   177   138   196    1
   178   138   197    1
   179   139   198    1
   180   139   199    1
   181   139   200    1
   182   140   141    1
   183   140   201    1
   184   140   202    1
   185   141   142    1
   186   141   165    2
   187   142   143    2
   188   142   203    1
   189   143   144    1
   190   143   204    1
   191   144   145    2
   192   144   205    1
   193   145   146    1
   194   145   165    1
   195   146   147    1
   196   146   206    1
   197   146   207    1
   198   147   148    2
   199   147   149    1
   200   147   157    1
   201   149   150    1
   202   149   208    1
   203   149   209    1
   204   150   151    1
   205   150   210    1
   206   150   211    1
   207   151   152    1
   208   151   212    1
   209   151   213    1
   210   152   153    1
   211   152   214    1
   212   152   215    1
   213   153   154    1
   214   153   216    1
   215   153   217    1
   216   154   155    1
   217   154   218    1
   218   154   219    1
   219   155   156    1
   220   155   220    1
   221   155   221    1
   222   156   222    1
   223   156   223    1
   224   156   224    1
   225   157   158    1
   226   157   225    1
   227   157   226    1
   228   158   159    1
   229   158   227    1
   230   158   228    1
   231   159   160    1
   232   159   229    1
   233   159   230    1
   234   160   161    1
   235   160   231    1
   236   160   232    1
   237   161   162    1
   238   161   233    1
   239   161   234    1
   240   162   163    1
   241   162   235    1
   242   162   236    1
   243   163   164    1
   244   163   237    1
   245   163   238    1
   246   164   239    1
   247   164   240    1
   248   164   241    1
   249   165   166    1
   250   242   243    1
   251   242   287    1
   252   242   288    1
   253   242   289    1
   254   243   244    1
   255   243   290    1
   256   243   291    1
   257   244   245    1
   258   244   292    1
   259   244   293    1
   260   245   246    1
   261   245   294    1
   262   245   295    1
   263   246   247    1
   264   246   296    1
   265   246   297    1
   266   247   248    1
   267   247   298    1
   268   247   299    1
   269   248   249    1
   270   248   300    1
   271   248   301    1
   272   249   250    1
   273   249   302    1
   274   249   303    1
   275   250   251    2
   276   250   252    1
   277   250   260    1
   278   252   253    1
   279   252   304    1
   280   252   305    1
   281   253   254    1
   282   253   306    1
   283   253   307    1
   284   254   255    1
   285   254   308    1
   286   254   309    1
   287   255   256    1
   288   255   310    1
   289   255   311    1
   290   256   257    1
   291   256   312    1
   292   256   313    1
   293   257   258    1
   294   257   314    1
   295   257   315    1
   296   258   259    1
   297   258   316    1
   298   258   317    1
   299   259   318    1
   300   259   319    1
   301   259   320    1
   302   260   261    1
   303   260   321    1
   304   260   322    1
   305   261   262    1
   306   261   285    2
   307   262   263    2
   308   262   323    1
   309   263   264    1
   310   263   324    1
   311   264   265    2
   312   264   325    1
   313   265   266    1
   314   265   285    1
   315   266   267    1
   316   266   326    1
   317   266   327    1
   318   267   268    2
   319   267   269    1
   320   267   277    1
   321   269   270    1
   322   269   328    1
   323   269   329    1
   324   270   271    1
   325   270   330    1
   326   270   331    1
   327   271   272    1
   328   271   332    1
   329   271   333    1
   330   272   273    1
   331   272   334    1
   332   272   335    1
   333   273   274    1
   334   273   336    1
   335   273   337    1
   336   274   275    1
   337   274   338    1
   338   274   339    1
   339   275   276    1
   340   275   340    1
   341   275   341    1
   342   276   342    1
   343   276   343    1
   344   276   344    1
   345   277   278    1
   346   277   345    1
   347   277   346    1
   348   278   279    1
   349   278   347    1
   350   278   348    1
   351   279   280    1
   352   279   349    1
   353   279   350    1
   354   280   281    1
   355   280   351    1
   356   280   352    1
   357   281   282    1
   358   281   353    1
   359   281   354    1
   360   282   283    1
   361   282   355    1
   362   282   356    1
   363   283   284    1
   364   283   357    1
   365   283   358    1
   366   284   359    1
   367   284   360    1
   368   284   361    1
   369   285   286    1
@<TRIPOS>SUBSTRUCTURE
     1 RES1      361 GROUP             0 ****  ****    0  
