@<TRIPOS>MOLECULE
cn9_YICLED_0_nunpairedes_0_charge_3 Charge: 3 Unpaired_Electrons: 6 XTB_Unpaired_Electrons: 0 XTB_Charge: 3
   358   363     1     0     0
SMALL
NoCharges
****
Generated from Architector

@<TRIPOS>ATOM
     1 Eu1      -0.0187   -0.0617    0.0627   Eu        1 RES1   0.0000
     2 C1        1.9654   -6.0875    1.3987   C.3       1 RES1   0.0000
     3 C2        2.0689   -6.7253    2.7809   C.3       1 RES1   0.0000
     4 C3        0.7118   -6.9482    3.4456   C.3       1 RES1   0.0000
     5 C4       -0.0507   -5.6345    3.6064   C.3       1 RES1   0.0000
     6 C5       -1.1896   -5.7218    4.6195   C.3       1 RES1   0.0000
     7 C6       -1.9581   -4.4038    4.7963   C.3       1 RES1   0.0000
     8 C7       -2.7704   -3.9190    3.5764   C.3       1 RES1   0.0000
     9 C8       -2.0434   -3.0949    2.5069   C.3       1 RES1   0.0000
    10 N1       -2.0599   -3.5096    1.0769   N.am      1 RES1   0.0000
    11 C9       -2.9392   -4.5217    0.5022   C.3       1 RES1   0.0000
    12 C10      -4.0110   -4.0462   -0.4948   C.3       1 RES1   0.0000
    13 C11      -4.6457   -5.2228   -1.2639   C.3       1 RES1   0.0000
    14 C12      -5.9075   -4.6982   -1.9517   C.3       1 RES1   0.0000
    15 C13      -3.6731   -5.8539   -2.2723   C.3       1 RES1   0.0000
    16 C14      -3.8159   -7.3673   -2.5630   C.3       1 RES1   0.0000
    17 C15      -5.1914   -7.7190   -3.1306   C.3       1 RES1   0.0000
    18 C16      -3.5771   -8.2147   -1.3119   C.3       1 RES1   0.0000
    19 C17      -2.7459   -7.7234   -3.6028   C.3       1 RES1   0.0000
    20 C18      -1.1500   -2.8710    0.3632   C.2       1 RES1   0.0000
    21 O1       -0.3355   -2.0798    0.8907   O.2       1 RES1   0.0000
    22 C19      -1.0778   -2.9122   -1.1690   C.3       1 RES1   0.0000
    23 O2       -1.0541   -1.5126   -1.4783   O.3       1 RES1   0.0000
    24 C20      -1.5264   -1.1401   -2.7572   C.3       1 RES1   0.0000
    25 C21      -1.6869    0.3803   -2.7797   C.2       1 RES1   0.0000
    26 O3       -1.2352    1.0284   -1.8128   O.2       1 RES1   0.0000
    27 N2       -2.2797    0.9360   -3.8337   N.am      1 RES1   0.0000
    28 C22      -2.3465    2.4106   -3.8494   C.3       1 RES1   0.0000
    29 C23      -2.1898    3.1378   -5.1930   C.3       1 RES1   0.0000
    30 C24      -0.8682    3.8924   -5.3600   C.3       1 RES1   0.0000
    31 C25      -0.7059    5.0925   -4.4147   C.3       1 RES1   0.0000
    32 C26       0.2701    6.1531   -4.9687   C.3       1 RES1   0.0000
    33 C27       0.6920    7.2077   -3.9304   C.3       1 RES1   0.0000
    34 C28       2.0729    7.8279   -4.1759   C.3       1 RES1   0.0000
    35 C29       2.7302    8.2419   -2.8621   C.3       1 RES1   0.0000
    36 C30      -2.8490    0.1744   -4.9474   C.3       1 RES1   0.0000
    37 C31      -4.0259   -0.7929   -4.7011   C.3       1 RES1   0.0000
    38 C32      -5.4717   -0.2442   -4.7302   C.3       1 RES1   0.0000
    39 C33      -5.6234    0.9643   -5.6461   C.3       1 RES1   0.0000
    40 C34      -5.9951   -0.0055   -3.3061   C.3       1 RES1   0.0000
    41 C35      -7.5040   -0.2332   -3.0639   C.3       1 RES1   0.0000
    42 C36      -8.3576    0.7879   -3.8150   C.3       1 RES1   0.0000
    43 C37      -7.7566   -0.0940   -1.5567   C.3       1 RES1   0.0000
    44 C38      -7.9250   -1.6498   -3.4575   C.3       1 RES1   0.0000
    45 H1        2.9398   -6.0839    0.9149   H         1 RES1   0.0000
    46 H2        1.6107   -5.0590    1.4668   H         1 RES1   0.0000
    47 H3        1.2756   -6.6513    0.7748   H         1 RES1   0.0000
    48 H4        2.6824   -6.0896    3.4226   H         1 RES1   0.0000
    49 H5        2.5755   -7.6838    2.6888   H         1 RES1   0.0000
    50 H6        0.8738   -7.3959    4.4279   H         1 RES1   0.0000
    51 H7        0.1189   -7.6499    2.8566   H         1 RES1   0.0000
    52 H8       -0.4573   -5.3270    2.6391   H         1 RES1   0.0000
    53 H9        0.6594   -4.8759    3.9408   H         1 RES1   0.0000
    54 H10      -0.7855   -6.0104    5.5954   H         1 RES1   0.0000
    55 H11      -1.8895   -6.5070    4.3236   H         1 RES1   0.0000
    56 H12      -1.2774   -3.6238    5.1466   H         1 RES1   0.0000
    57 H13      -2.6893   -4.5736    5.5943   H         1 RES1   0.0000
    58 H14      -3.5679   -3.2950    3.9800   H         1 RES1   0.0000
    59 H15      -3.2322   -4.8045    3.1577   H         1 RES1   0.0000
    60 H16      -0.9846   -3.0067    2.7618   H         1 RES1   0.0000
    61 H17      -2.4449   -2.0715    2.5065   H         1 RES1   0.0000
    62 H18      -3.4599   -5.0019    1.3278   H         1 RES1   0.0000
    63 H19      -2.3083   -5.2711    0.0107   H         1 RES1   0.0000
    64 H20      -3.6473   -3.3211   -1.2195   H         1 RES1   0.0000
    65 H21      -4.8097   -3.5301    0.0302   H         1 RES1   0.0000
    66 H22      -4.9512   -5.9684   -0.5303   H         1 RES1   0.0000
    67 H23      -5.6499   -3.9027   -2.6536   H         1 RES1   0.0000
    68 H24      -6.6053   -4.3066   -1.2116   H         1 RES1   0.0000
    69 H25      -6.4182   -5.4879   -2.4929   H         1 RES1   0.0000
    70 H26      -2.6462   -5.7089   -1.9270   H         1 RES1   0.0000
    71 H27      -3.7697   -5.3227   -3.2223   H         1 RES1   0.0000
    72 H28      -5.9599   -7.6489   -2.3641   H         1 RES1   0.0000
    73 H29      -5.1893   -8.7433   -3.4954   H         1 RES1   0.0000
    74 H30      -5.4491   -7.0689   -3.9635   H         1 RES1   0.0000
    75 H31      -4.3997   -8.1061   -0.6103   H         1 RES1   0.0000
    76 H32      -2.6446   -7.9426   -0.8198   H         1 RES1   0.0000
    77 H33      -3.5255   -9.2680   -1.5800   H         1 RES1   0.0000
    78 H34      -2.9565   -7.2217   -4.5439   H         1 RES1   0.0000
    79 H35      -2.7365   -8.7947   -3.7883   H         1 RES1   0.0000
    80 H36      -1.7546   -7.4264   -3.2593   H         1 RES1   0.0000
    81 H37      -1.9252   -3.3977   -1.6452   H         1 RES1   0.0000
    82 H38      -0.1450   -3.4010   -1.5016   H         1 RES1   0.0000
    83 H39      -2.4874   -1.6161   -2.9492   H         1 RES1   0.0000
    84 H40      -0.8199   -1.4213   -3.5464   H         1 RES1   0.0000
    85 H41      -1.5533    2.7407   -3.1801   H         1 RES1   0.0000
    86 H42      -3.2920    2.6852   -3.3801   H         1 RES1   0.0000
    87 H43      -3.0042    3.8560   -5.2817   H         1 RES1   0.0000
    88 H44      -2.2734    2.4546   -6.0329   H         1 RES1   0.0000
    89 H45      -0.8234    4.2517   -6.3872   H         1 RES1   0.0000
    90 H46      -0.0305    3.2023   -5.2336   H         1 RES1   0.0000
    91 H47      -0.3383    4.7246   -3.4515   H         1 RES1   0.0000
    92 H48      -1.6870    5.5494   -4.2477   H         1 RES1   0.0000
    93 H49      -0.2023    6.6530   -5.8168   H         1 RES1   0.0000
    94 H50       1.1639    5.6460   -5.3477   H         1 RES1   0.0000
    95 H51       0.7189    6.7409   -2.9500   H         1 RES1   0.0000
    96 H52      -0.0569    8.0004   -3.8771   H         1 RES1   0.0000
    97 H53       1.9823    8.7055   -4.8125   H         1 RES1   0.0000
    98 H54       2.7187    7.1137   -4.6923   H         1 RES1   0.0000
    99 H55       2.0506    8.8266   -2.2486   H         1 RES1   0.0000
   100 H56       3.6147    8.8425   -3.0402   H         1 RES1   0.0000
   101 H57       3.0456    7.3779   -2.2781   H         1 RES1   0.0000
   102 H58      -2.0361   -0.3890   -5.4252   H         1 RES1   0.0000
   103 H59      -3.2148    0.9085   -5.6620   H         1 RES1   0.0000
   104 H60      -3.9331   -1.3376   -3.7644   H         1 RES1   0.0000
   105 H61      -3.9428   -1.5351   -5.4962   H         1 RES1   0.0000
   106 H62      -6.0591   -1.0468   -5.1779   H         1 RES1   0.0000
   107 H63      -5.1465    1.8494   -5.2334   H         1 RES1   0.0000
   108 H64      -6.6719    1.1950   -5.7913   H         1 RES1   0.0000
   109 H65      -5.1988    0.7495   -6.6252   H         1 RES1   0.0000
   110 H66      -5.7487    1.0131   -3.0052   H         1 RES1   0.0000
   111 H67      -5.4709   -0.6755   -2.6176   H         1 RES1   0.0000
   112 H68      -7.9221    1.7823   -3.7438   H         1 RES1   0.0000
   113 H69      -9.3622    0.8248   -3.3993   H         1 RES1   0.0000
   114 H70      -8.4461    0.5123   -4.8620   H         1 RES1   0.0000
   115 H71      -7.4055    0.8691   -1.1872   H         1 RES1   0.0000
   116 H72      -7.2464   -0.8963   -1.0229   H         1 RES1   0.0000
   117 H73      -8.8199   -0.1710   -1.3406   H         1 RES1   0.0000
   118 H74      -7.8528   -1.8057   -4.5291   H         1 RES1   0.0000
   119 H75      -8.9594   -1.8248   -3.1721   H         1 RES1   0.0000
   120 H76      -7.3047   -2.3863   -2.9517   H         1 RES1   0.0000
   121 C39       6.0998    3.5181    1.0747   C.3       1 RES1   0.0000
   122 C40       7.1716    4.0467    0.1209   C.3       1 RES1   0.0000
   123 C41       6.6269    4.9271   -1.0085   C.3       1 RES1   0.0000
   124 C42       5.5047    4.1939   -1.7352   C.3       1 RES1   0.0000
   125 C43       5.0937    4.7727   -3.0845   C.3       1 RES1   0.0000
   126 C44       3.9134    4.0266   -3.7291   C.3       1 RES1   0.0000
   127 C45       2.5485    4.3548   -3.0975   C.3       1 RES1   0.0000
   128 C46       2.2120    3.4843   -1.8931   C.3       1 RES1   0.0000
   129 N3        1.0937    3.9097   -1.0236   N.am      1 RES1   0.0000
   130 C47       0.9176    5.3190   -0.6593   C.3       1 RES1   0.0000
   131 C48      -0.4835    5.9039   -0.8736   C.3       1 RES1   0.0000
   132 C49      -0.6584    7.3096   -0.2694   C.3       1 RES1   0.0000
   133 C50      -1.9716    7.8758   -0.8175   C.3       1 RES1   0.0000
   134 C51      -0.6586    7.2300    1.2668   C.3       1 RES1   0.0000
   135 C52      -0.0984    8.4346    2.0511   C.3       1 RES1   0.0000
   136 C53      -0.8274    9.7233    1.6735   C.3       1 RES1   0.0000
   137 C54       1.4029    8.6000    1.8010   C.3       1 RES1   0.0000
   138 C55      -0.3112    8.1497    3.5446   C.3       1 RES1   0.0000
   139 C56       0.5649    2.8934   -0.3494   C.2       1 RES1   0.0000
   140 O4        1.0715    1.7556   -0.4083   O.2       1 RES1   0.0000
   141 C57      -0.7225    3.0577    0.4653   C.3       1 RES1   0.0000
   142 O5       -0.8973    1.8487    1.1891   O.3       1 RES1   0.0000
   143 C58      -2.0917    1.7456    1.9594   C.3       1 RES1   0.0000
   144 C59      -3.0476    0.7393    1.3013   C.2       1 RES1   0.0000
   145 O6       -2.5017   -0.1817    0.6583   O.2       1 RES1   0.0000
   146 N4       -4.3551    0.8319    1.5152   N.am      1 RES1   0.0000
   147 C60      -5.2415   -0.2474    1.0520   C.3       1 RES1   0.0000
   148 C61      -6.3176   -0.7389    2.0382   C.3       1 RES1   0.0000
   149 C62      -5.9183   -1.8524    3.0164   C.3       1 RES1   0.0000
   150 C63      -5.8383   -3.2320    2.3407   C.3       1 RES1   0.0000
   151 C64      -6.1313   -4.4440    3.2424   C.3       1 RES1   0.0000
   152 C65      -5.9717   -5.8036    2.5191   C.3       1 RES1   0.0000
   153 C66      -5.0383   -6.8190    3.2199   C.3       1 RES1   0.0000
   154 C67      -3.8659   -7.2956    2.3516   C.3       1 RES1   0.0000
   155 C68      -4.9800    1.9667    2.1919   C.3       1 RES1   0.0000
   156 C69      -4.7825    3.3928    1.6298   C.3       1 RES1   0.0000
   157 C70      -5.8583    3.9968    0.6933   C.3       1 RES1   0.0000
   158 C71      -7.2768    3.6062    1.0955   C.3       1 RES1   0.0000
   159 C72      -5.5240    3.6915   -0.7733   C.3       1 RES1   0.0000
   160 C73      -6.0290    4.6794   -1.8492   C.3       1 RES1   0.0000
   161 C74      -7.5455    4.6006   -2.0279   C.3       1 RES1   0.0000
   162 C75      -5.3453    4.3013   -3.1694   C.3       1 RES1   0.0000
   163 C76      -5.6146    6.1155   -1.5302   C.3       1 RES1   0.0000
   164 H77       6.5763    3.0344    1.9254   H         1 RES1   0.0000
   165 H78       5.4576    2.7856    0.5850   H         1 RES1   0.0000
   166 H79       5.4812    4.3324    1.4462   H         1 RES1   0.0000
   167 H80       7.6950    3.1947   -0.3187   H         1 RES1   0.0000
   168 H81       7.8998    4.6166    0.6954   H         1 RES1   0.0000
   169 H82       7.4392    5.1518   -1.7002   H         1 RES1   0.0000
   170 H83       6.2562    5.8751   -0.6104   H         1 RES1   0.0000
   171 H84       4.6449    4.2049   -1.0688   H         1 RES1   0.0000
   172 H85       5.8235    3.1600   -1.8780   H         1 RES1   0.0000
   173 H86       5.9489    4.7424   -3.7645   H         1 RES1   0.0000
   174 H87       4.8261    5.8232   -2.9585   H         1 RES1   0.0000
   175 H88       4.0975    2.9499   -3.7255   H         1 RES1   0.0000
   176 H89       3.8684    4.3338   -4.7755   H         1 RES1   0.0000
   177 H90       1.7786    4.2373   -3.8605   H         1 RES1   0.0000
   178 H91       2.5985    5.4012   -2.8109   H         1 RES1   0.0000
   179 H92       3.0847    3.3618   -1.2519   H         1 RES1   0.0000
   180 H93       1.9411    2.4803   -2.2270   H         1 RES1   0.0000
   181 H94       1.6355    5.8940   -1.2444   H         1 RES1   0.0000
   182 H95       1.2211    5.4568    0.3853   H         1 RES1   0.0000
   183 H96      -1.2558    5.2762   -0.4364   H         1 RES1   0.0000
   184 H97      -0.6936    5.9711   -1.9383   H         1 RES1   0.0000
   185 H98       0.1548    7.9437   -0.6271   H         1 RES1   0.0000
   186 H99      -2.8103    7.2381   -0.5380   H         1 RES1   0.0000
   187 H100     -1.9348    7.9411   -1.9045   H         1 RES1   0.0000
   188 H101     -2.1637    8.8707   -0.4329   H         1 RES1   0.0000
   189 H102     -0.0762    6.3614    1.5853   H         1 RES1   0.0000
   190 H103     -1.6832    7.0582    1.6011   H         1 RES1   0.0000
   191 H104     -0.5904   10.0111    0.6524   H         1 RES1   0.0000
   192 H105     -0.5299   10.5417    2.3247   H         1 RES1   0.0000
   193 H106     -1.9032    9.5923    1.7698   H         1 RES1   0.0000
   194 H107      1.6079    8.8290    0.7586   H         1 RES1   0.0000
   195 H108      1.9437    7.6945    2.0740   H         1 RES1   0.0000
   196 H109      1.7941    9.4185    2.4000   H         1 RES1   0.0000
   197 H110     -1.3673    8.0101    3.7692   H         1 RES1   0.0000
   198 H111      0.0534    8.9806    4.1440   H         1 RES1   0.0000
   199 H112      0.2269    7.2511    3.8459   H         1 RES1   0.0000
   200 H113     -1.5433    3.2001   -0.2525   H         1 RES1   0.0000
   201 H114     -0.6559    3.9131    1.1485   H         1 RES1   0.0000
   202 H115     -2.5156    2.7244    2.1776   H         1 RES1   0.0000
   203 H116     -1.7989    1.2613    2.9031   H         1 RES1   0.0000
   204 H117     -4.5938   -1.0773    0.7725   H         1 RES1   0.0000
   205 H118     -5.7412    0.1079    0.1467   H         1 RES1   0.0000
   206 H119     -7.1453   -1.1063    1.4300   H         1 RES1   0.0000
   207 H120     -6.7155    0.0897    2.6176   H         1 RES1   0.0000
   208 H121     -6.6626   -1.8903    3.8132   H         1 RES1   0.0000
   209 H122     -4.9665   -1.5922    3.4899   H         1 RES1   0.0000
   210 H123     -4.8311   -3.3431    1.9504   H         1 RES1   0.0000
   211 H124     -6.5471   -3.2514    1.5073   H         1 RES1   0.0000
   212 H125     -7.1499   -4.3717    3.6209   H         1 RES1   0.0000
   213 H126     -5.4649   -4.4170    4.1040   H         1 RES1   0.0000
   214 H127     -5.6117   -5.6327    1.5028   H         1 RES1   0.0000
   215 H128     -6.9607   -6.2548    2.3908   H         1 RES1   0.0000
   216 H129     -5.6234   -7.6930    3.5139   H         1 RES1   0.0000
   217 H130     -4.6491   -6.3830    4.1431   H         1 RES1   0.0000
   218 H131     -4.1379   -7.3083    1.3016   H         1 RES1   0.0000
   219 H132     -3.5591   -8.3038    2.6145   H         1 RES1   0.0000
   220 H133     -2.9836   -6.6703    2.4674   H         1 RES1   0.0000
   221 H134     -4.6419    1.9538    3.2346   H         1 RES1   0.0000
   222 H135     -6.0478    1.7719    2.1738   H         1 RES1   0.0000
   223 H136     -3.8399    3.4857    1.0945   H         1 RES1   0.0000
   224 H137     -4.7302    4.0460    2.5032   H         1 RES1   0.0000
   225 H138     -5.7743    5.0750    0.8497   H         1 RES1   0.0000
   226 H139     -7.5231    2.5914    0.7903   H         1 RES1   0.0000
   227 H140     -7.9946    4.2667    0.6222   H         1 RES1   0.0000
   228 H141     -7.4092    3.7013    2.1724   H         1 RES1   0.0000
   229 H142     -5.9001    2.6965   -1.0149   H         1 RES1   0.0000
   230 H143     -4.4338    3.6538   -0.8732   H         1 RES1   0.0000
   231 H144     -7.8874    3.5685   -1.9885   H         1 RES1   0.0000
   232 H145     -7.8387    5.0233   -2.9866   H         1 RES1   0.0000
   233 H146     -8.0528    5.1680   -1.2536   H         1 RES1   0.0000
   234 H147     -5.5032    3.2496   -3.4017   H         1 RES1   0.0000
   235 H148     -4.2762    4.5046   -3.1048   H         1 RES1   0.0000
   236 H149     -5.7447    4.8919   -3.9896   H         1 RES1   0.0000
   237 H150     -6.1210    6.4928   -0.6480   H         1 RES1   0.0000
   238 H151     -5.8719    6.7706   -2.3587   H         1 RES1   0.0000
   239 H152     -4.5383    6.1728   -1.3752   H         1 RES1   0.0000
   240 C77      -4.3971    3.4272    7.4241   C.3       1 RES1   0.0000
   241 C78      -3.0434    3.2573    6.7501   C.3       1 RES1   0.0000
   242 C79      -2.9701    4.0868    5.4714   C.3       1 RES1   0.0000
   243 C80      -1.7394    3.7737    4.6237   C.3       1 RES1   0.0000
   244 C81      -0.4346    4.3145    5.2046   C.3       1 RES1   0.0000
   245 C82       0.7357    4.1848    4.2216   C.3       1 RES1   0.0000
   246 C83       1.1550    2.7250    4.0412   C.3       1 RES1   0.0000
   247 C84       2.4133    2.5975    3.1837   C.3       1 RES1   0.0000
   248 N5        2.9553    1.2474    2.9861   N.am      1 RES1   0.0000
   249 C85       4.2738    1.0136    3.5581   C.3       1 RES1   0.0000
   250 C86       4.2799    0.9125    5.0922   C.3       1 RES1   0.0000
   251 C87       3.5627   -0.3188    5.6768   C.3       1 RES1   0.0000
   252 C88       4.1088   -0.5976    7.0747   C.3       1 RES1   0.0000
   253 C89       2.0528   -0.0524    5.6805   C.3       1 RES1   0.0000
   254 C90       1.0233   -1.1906    5.7896   C.3       1 RES1   0.0000
   255 C91       0.9040   -1.7563    7.2069   C.3       1 RES1   0.0000
   256 C92      -0.3327   -0.5787    5.3825   C.3       1 RES1   0.0000
   257 C93       1.3415   -2.3077    4.7987   C.3       1 RES1   0.0000
   258 C94       2.2937    0.3667    2.2430   C.2       1 RES1   0.0000
   259 O7        1.0698    0.4489    2.0306   O.2       1 RES1   0.0000
   260 C95       3.0621   -0.7618    1.5397   C.3       1 RES1   0.0000
   261 O8        2.1870   -1.2227    0.5237   O.3       1 RES1   0.0000
   262 C96       2.7543   -2.1234   -0.4160   C.3       1 RES1   0.0000
   263 C97       2.1892   -1.6963   -1.7819   C.2       1 RES1   0.0000
   264 O9        1.3837   -0.7456   -1.7820   O.2       1 RES1   0.0000
   265 N6        2.5432   -2.3290   -2.8966   N.am      1 RES1   0.0000
   266 C98       2.0691   -1.7751   -4.1721   C.3       1 RES1   0.0000
   267 C99       1.6186   -2.7854   -5.2293   C.3       1 RES1   0.0000
   268 C100      0.5947   -3.8177   -4.7321   C.3       1 RES1   0.0000
   269 C101     -0.8280   -3.6006   -5.2499   C.3       1 RES1   0.0000
   270 C102     -0.9875   -3.7512   -6.7653   C.3       1 RES1   0.0000
   271 C103     -2.4579   -3.9943   -7.1194   C.3       1 RES1   0.0000
   272 C104     -2.8615   -5.4509   -6.9110   C.3       1 RES1   0.0000
   273 C105     -4.3535   -5.6624   -7.1168   C.3       1 RES1   0.0000
   274 C106      3.4997   -3.4256   -2.9007   C.3       1 RES1   0.0000
   275 C107      4.9578   -2.9646   -2.7691   C.3       1 RES1   0.0000
   276 C108      5.5857   -2.4462   -4.0757   C.3       1 RES1   0.0000
   277 C109      6.0503   -3.6162   -4.9429   C.3       1 RES1   0.0000
   278 C110      6.7625   -1.5016   -3.7768   C.3       1 RES1   0.0000
   279 C111      6.4489    0.0071   -3.7109   C.3       1 RES1   0.0000
   280 C112      5.3407    0.3366   -2.7047   C.3       1 RES1   0.0000
   281 C113      7.7374    0.7138   -3.2732   C.3       1 RES1   0.0000
   282 C114      6.0546    0.5467   -5.0889   C.3       1 RES1   0.0000
   283 H153     -4.4372    2.8696    8.3543   H         1 RES1   0.0000
   284 H154     -5.1944    3.0702    6.7745   H         1 RES1   0.0000
   285 H155     -4.5781    4.4757    7.6441   H         1 RES1   0.0000
   286 H156     -2.8841    2.2017    6.5115   H         1 RES1   0.0000
   287 H157     -2.2545    3.5673    7.4346   H         1 RES1   0.0000
   288 H158     -2.9743    5.1475    5.7232   H         1 RES1   0.0000
   289 H159     -3.8671    3.8893    4.8761   H         1 RES1   0.0000
   290 H160     -1.8741    4.2101    3.6280   H         1 RES1   0.0000
   291 H161     -1.6585    2.6896    4.5225   H         1 RES1   0.0000
   292 H162     -0.1964    3.7789    6.1252   H         1 RES1   0.0000
   293 H163     -0.5710    5.3661    5.4606   H         1 RES1   0.0000
   294 H164      1.5821    4.7573    4.6112   H         1 RES1   0.0000
   295 H165      0.4529    4.6186    3.2569   H         1 RES1   0.0000
   296 H166      0.3557    2.1493    3.5734   H         1 RES1   0.0000
   297 H167      1.3377    2.3296    5.0368   H         1 RES1   0.0000
   298 H168      3.2146    3.1889    3.6302   H         1 RES1   0.0000
   299 H169      2.2036    2.9981    2.1841   H         1 RES1   0.0000
   300 H170      4.9152    1.8482    3.2579   H         1 RES1   0.0000
   301 H171      4.6936    0.0947    3.1545   H         1 RES1   0.0000
   302 H172      3.8722    1.8229    5.5307   H         1 RES1   0.0000
   303 H173      5.3317    0.8710    5.3779   H         1 RES1   0.0000
   304 H174      3.8071   -1.1708    5.0366   H         1 RES1   0.0000
   305 H175      3.8949    0.2292    7.7474   H         1 RES1   0.0000
   306 H176      5.1863   -0.7423    7.0449   H         1 RES1   0.0000
   307 H177      3.6637   -1.4948    7.4899   H         1 RES1   0.0000
   308 H178      1.8160    0.4197    4.7358   H         1 RES1   0.0000
   309 H179      1.8445    0.6545    6.4846   H         1 RES1   0.0000
   310 H180      0.8315   -0.9521    7.9370   H         1 RES1   0.0000
   311 H181      1.7663   -2.3688    7.4560   H         1 RES1   0.0000
   312 H182      0.0158   -2.3823    7.3018   H         1 RES1   0.0000
   313 H183     -0.5469    0.3143    5.9680   H         1 RES1   0.0000
   314 H184     -1.1465   -1.2855    5.5412   H         1 RES1   0.0000
   315 H185     -0.3212   -0.3066    4.3231   H         1 RES1   0.0000
   316 H186      2.3078   -2.7559    5.0093   H         1 RES1   0.0000
   317 H187      1.3283   -1.9285    3.7748   H         1 RES1   0.0000
   318 H188      0.5884   -3.0831    4.8926   H         1 RES1   0.0000
   319 H189      3.3166   -1.5811    2.2246   H         1 RES1   0.0000
   320 H190      3.9701   -0.3380    1.0886   H         1 RES1   0.0000
   321 H191      2.4590   -3.1530   -0.1625   H         1 RES1   0.0000
   322 H192      3.8468   -2.0592   -0.3960   H         1 RES1   0.0000
   323 H193      2.8573   -1.1587   -4.6155   H         1 RES1   0.0000
   324 H194      1.2488   -1.0988   -3.9248   H         1 RES1   0.0000
   325 H195      2.4821   -3.2935   -5.6570   H         1 RES1   0.0000
   326 H196      1.1877   -2.1948   -6.0394   H         1 RES1   0.0000
   327 H197      0.5778   -3.8007   -3.6380   H         1 RES1   0.0000
   328 H198      0.9020   -4.8188   -5.0361   H         1 RES1   0.0000
   329 H199     -1.1903   -2.6104   -4.9682   H         1 RES1   0.0000
   330 H200     -1.4746   -4.3305   -4.7573   H         1 RES1   0.0000
   331 H201     -0.3865   -4.5914   -7.1184   H         1 RES1   0.0000
   332 H202     -0.6287   -2.8508   -7.2728   H         1 RES1   0.0000
   333 H203     -2.6389   -3.7168   -8.1568   H         1 RES1   0.0000
   334 H204     -3.0889   -3.3522   -6.4951   H         1 RES1   0.0000
   335 H205     -2.5863   -5.7574   -5.9003   H         1 RES1   0.0000
   336 H206     -2.3068   -6.0832   -7.6042   H         1 RES1   0.0000
   337 H207     -4.9304   -5.0543   -6.4218   H         1 RES1   0.0000
   338 H208     -4.6174   -6.7050   -6.9645   H         1 RES1   0.0000
   339 H209     -4.6348   -5.3857   -8.1283   H         1 RES1   0.0000
   340 H210      3.3656   -3.9596   -3.8399   H         1 RES1   0.0000
   341 H211      3.2444   -4.1094   -2.0840   H         1 RES1   0.0000
   342 H212      5.5360   -3.8139   -2.4042   H         1 RES1   0.0000
   343 H213      5.0301   -2.1823   -2.0166   H         1 RES1   0.0000
   344 H214      4.8304   -1.9000   -4.6445   H         1 RES1   0.0000
   345 H215      6.8829   -4.1342   -4.4727   H         1 RES1   0.0000
   346 H216      6.3818   -3.2666   -5.9178   H         1 RES1   0.0000
   347 H217      5.2480   -4.3340   -5.1077   H         1 RES1   0.0000
   348 H218      7.5157   -1.6306   -4.5536   H         1 RES1   0.0000
   349 H219      7.2329   -1.7981   -2.8367   H         1 RES1   0.0000
   350 H220      5.6103   -0.0099   -1.7082   H         1 RES1   0.0000
   351 H221      4.3865   -0.0985   -2.9940   H         1 RES1   0.0000
   352 H222      5.2069    1.4145   -2.6545   H         1 RES1   0.0000
   353 H223      8.0481    0.3760   -2.2859   H         1 RES1   0.0000
   354 H224      7.6005    1.7938   -3.2444   H         1 RES1   0.0000
   355 H225      8.5420    0.4927   -3.9708   H         1 RES1   0.0000
   356 H226      5.1230    0.1091   -5.4410   H         1 RES1   0.0000
   357 H227      6.8314    0.3265   -5.8162   H         1 RES1   0.0000
   358 H228      5.9224    1.6271   -5.0549   H         1 RES1   0.0000
@<TRIPOS>BOND
     1     1    21    1
     2     1    23    1
     3     1    26    1
     4     1   140    1
     5     1   142    1
     6     1   145    1
     7     1   259    1
     8     1   261    1
     9     1   264    1
    10     2     3    1
    11     2    45    1
    12     2    46    1
    13     2    47    1
    14     3     4    1
    15     3    48    1
    16     3    49    1
    17     4     5    1
    18     4    50    1
    19     4    51    1
    20     5     6    1
    21     5    52    1
    22     5    53    1
    23     6     7    1
    24     6    54    1
    25     6    55    1
    26     7     8    1
    27     7    56    1
    28     7    57    1
    29     8     9    1
    30     8    58    1
    31     8    59    1
    32     9    10    1
    33     9    60    1
    34     9    61    1
    35    10    11    1
    36    10    20    1
    37    11    12    1
    38    11    62    1
    39    11    63    1
    40    12    13    1
    41    12    64    1
    42    12    65    1
    43    13    14    1
    44    13    15    1
    45    13    66    1
    46    14    67    1
    47    14    68    1
    48    14    69    1
    49    15    16    1
    50    15    70    1
    51    15    71    1
    52    16    17    1
    53    16    18    1
    54    16    19    1
    55    17    72    1
    56    17    73    1
    57    17    74    1
    58    18    75    1
    59    18    76    1
    60    18    77    1
    61    19    78    1
    62    19    79    1
    63    19    80    1
    64    20    21    2
    65    20    22    1
    66    22    23    1
    67    22    81    1
    68    22    82    1
    69    23    24    1
    70    24    25    1
    71    24    83    1
    72    24    84    1
    73    25    26    2
    74    25    27    1
    75    27    28    1
    76    27    36    1
    77    28    29    1
    78    28    85    1
    79    28    86    1
    80    29    30    1
    81    29    87    1
    82    29    88    1
    83    30    31    1
    84    30    89    1
    85    30    90    1
    86    31    32    1
    87    31    91    1
    88    31    92    1
    89    32    33    1
    90    32    93    1
    91    32    94    1
    92    33    34    1
    93    33    95    1
    94    33    96    1
    95    34    35    1
    96    34    97    1
    97    34    98    1
    98    35    99    1
    99    35   100    1
   100    35   101    1
   101    36    37    1
   102    36   102    1
   103    36   103    1
   104    37    38    1
   105    37   104    1
   106    37   105    1
   107    38    39    1
   108    38    40    1
   109    38   106    1
   110    39   107    1
   111    39   108    1
   112    39   109    1
   113    40    41    1
   114    40   110    1
   115    40   111    1
   116    41    42    1
   117    41    43    1
   118    41    44    1
   119    42   112    1
   120    42   113    1
   121    42   114    1
   122    43   115    1
   123    43   116    1
   124    43   117    1
   125    44   118    1
   126    44   119    1
   127    44   120    1
   128   121   122    1
   129   121   164    1
   130   121   165    1
   131   121   166    1
   132   122   123    1
   133   122   167    1
   134   122   168    1
   135   123   124    1
   136   123   169    1
   137   123   170    1
   138   124   125    1
   139   124   171    1
   140   124   172    1
   141   125   126    1
   142   125   173    1
   143   125   174    1
   144   126   127    1
   145   126   175    1
   146   126   176    1
   147   127   128    1
   148   127   177    1
   149   127   178    1
   150   128   129    1
   151   128   179    1
   152   128   180    1
   153   129   130    1
   154   129   139    1
   155   130   131    1
   156   130   181    1
   157   130   182    1
   158   131   132    1
   159   131   183    1
   160   131   184    1
   161   132   133    1
   162   132   134    1
   163   132   185    1
   164   133   186    1
   165   133   187    1
   166   133   188    1
   167   134   135    1
   168   134   189    1
   169   134   190    1
   170   135   136    1
   171   135   137    1
   172   135   138    1
   173   136   191    1
   174   136   192    1
   175   136   193    1
   176   137   194    1
   177   137   195    1
   178   137   196    1
   179   138   197    1
   180   138   198    1
   181   138   199    1
   182   139   140    2
   183   139   141    1
   184   141   142    1
   185   141   200    1
   186   141   201    1
   187   142   143    1
   188   143   144    1
   189   143   202    1
   190   143   203    1
   191   144   145    2
   192   144   146    1
   193   146   147    1
   194   146   155    1
   195   147   148    1
   196   147   204    1
   197   147   205    1
   198   148   149    1
   199   148   206    1
   200   148   207    1
   201   149   150    1
   202   149   208    1
   203   149   209    1
   204   150   151    1
   205   150   210    1
   206   150   211    1
   207   151   152    1
   208   151   212    1
   209   151   213    1
   210   152   153    1
   211   152   214    1
   212   152   215    1
   213   153   154    1
   214   153   216    1
   215   153   217    1
   216   154   218    1
   217   154   219    1
   218   154   220    1
   219   155   156    1
   220   155   221    1
   221   155   222    1
   222   156   157    1
   223   156   223    1
   224   156   224    1
   225   157   158    1
   226   157   159    1
   227   157   225    1
   228   158   226    1
   229   158   227    1
   230   158   228    1
   231   159   160    1
   232   159   229    1
   233   159   230    1
   234   160   161    1
   235   160   162    1
   236   160   163    1
   237   161   231    1
   238   161   232    1
   239   161   233    1
   240   162   234    1
   241   162   235    1
   242   162   236    1
   243   163   237    1
   244   163   238    1
   245   163   239    1
   246   240   241    1
   247   240   283    1
   248   240   284    1
   249   240   285    1
   250   241   242    1
   251   241   286    1
   252   241   287    1
   253   242   243    1
   254   242   288    1
   255   242   289    1
   256   243   244    1
   257   243   290    1
   258   243   291    1
   259   244   245    1
   260   244   292    1
   261   244   293    1
   262   245   246    1
   263   245   294    1
   264   245   295    1
   265   246   247    1
   266   246   296    1
   267   246   297    1
   268   247   248    1
   269   247   298    1
   270   247   299    1
   271   248   249    1
   272   248   258    1
   273   249   250    1
   274   249   300    1
   275   249   301    1
   276   250   251    1
   277   250   302    1
   278   250   303    1
   279   251   252    1
   280   251   253    1
   281   251   304    1
   282   252   305    1
   283   252   306    1
   284   252   307    1
   285   253   254    1
   286   253   308    1
   287   253   309    1
   288   254   255    1
   289   254   256    1
   290   254   257    1
   291   255   310    1
   292   255   311    1
   293   255   312    1
   294   256   313    1
   295   256   314    1
   296   256   315    1
   297   257   316    1
   298   257   317    1
   299   257   318    1
   300   258   259    2
   301   258   260    1
   302   260   261    1
   303   260   319    1
   304   260   320    1
   305   261   262    1
   306   262   263    1
   307   262   321    1
   308   262   322    1
   309   263   264    2
   310   263   265    1
   311   265   266    1
   312   265   274    1
   313   266   267    1
   314   266   323    1
   315   266   324    1
   316   267   268    1
   317   267   325    1
   318   267   326    1
   319   268   269    1
   320   268   327    1
   321   268   328    1
   322   269   270    1
   323   269   329    1
   324   269   330    1
   325   270   271    1
   326   270   331    1
   327   270   332    1
   328   271   272    1
   329   271   333    1
   330   271   334    1
   331   272   273    1
   332   272   335    1
   333   272   336    1
   334   273   337    1
   335   273   338    1
   336   273   339    1
   337   274   275    1
   338   274   340    1
   339   274   341    1
   340   275   276    1
   341   275   342    1
   342   275   343    1
   343   276   277    1
   344   276   278    1
   345   276   344    1
   346   277   345    1
   347   277   346    1
   348   277   347    1
   349   278   279    1
   350   278   348    1
   351   278   349    1
   352   279   280    1
   353   279   281    1
   354   279   282    1
   355   280   350    1
   356   280   351    1
   357   280   352    1
   358   281   353    1
   359   281   354    1
   360   281   355    1
   361   282   356    1
   362   282   357    1
   363   282   358    1
@<TRIPOS>SUBSTRUCTURE
     1 RES1      358 GROUP             0 ****  ****    0  
