@<TRIPOS>MOLECULE
cn9_YICLED_0_nunpairedes_0_charge_3 Charge: 3 Unpaired_Electrons: 6 XTB_Unpaired_Electrons: 0 XTB_Charge: 3
   344   347     1     0     0
SMALL
NoCharges
****
Generated from Architector

@<TRIPOS>ATOM
     1 Eu1       0.0650   -0.0720   -0.0685   Eu        1 RES1   0.0000
     2 C1       -0.5023    4.0172    8.0640   C.3       1 RES1   0.0000
     3 C2       -1.6579    4.9498    7.7181   C.3       1 RES1   0.0000
     4 C3       -1.8705    5.0648    6.2083   C.3       1 RES1   0.0000
     5 C4       -3.1051    5.8999    5.8672   C.3       1 RES1   0.0000
     6 C5       -3.1541    6.4106    4.4245   C.3       1 RES1   0.0000
     7 C6       -3.4143    5.3317    3.3718   C.3       1 RES1   0.0000
     8 C7       -3.5208    5.9453    1.9791   C.3       1 RES1   0.0000
     9 C8       -3.8184    4.9282    0.8720   C.3       1 RES1   0.0000
    10 N1       -2.6907    4.0743    0.5198   N.am      1 RES1   0.0000
    11 C9       -1.6543    4.7744   -0.2177   C.3       1 RES1   0.0000
    12 C10      -2.5820    2.7351    0.5997   C.2       1 RES1   0.0000
    13 O1       -1.5005    2.1673    0.3501   O.2       1 RES1   0.0000
    14 C11      -3.8707    1.9232    0.6650   C.3       1 RES1   0.0000
    15 C12      -3.8113    1.2935   -0.7692   C.3       1 RES1   0.0000
    16 C13      -3.7570    2.3899   -1.8472   C.3       1 RES1   0.0000
    17 C14      -4.4146    2.0734   -3.1976   C.3       1 RES1   0.0000
    18 C15      -3.5462    1.3981   -4.2570   C.3       1 RES1   0.0000
    19 C16      -3.2595   -0.0790   -3.9728   C.3       1 RES1   0.0000
    20 C17      -3.3473   -0.9750   -5.2085   C.3       1 RES1   0.0000
    21 C18      -3.9910    0.8129    1.7347   C.2       1 RES1   0.0000
    22 O2       -3.2319   -0.1421    1.6221   O.2       1 RES1   0.0000
    23 N2       -4.9183    0.8960    2.7230   N.am      1 RES1   0.0000
    24 C19      -5.3558    2.2056    3.1650   C.3       1 RES1   0.0000
    25 C20      -5.6912   -0.1672    3.4492   C.3       1 RES1   0.0000
    26 C21      -5.2725   -1.6569    3.5574   C.3       1 RES1   0.0000
    27 C22      -6.4638   -2.6300    3.4037   C.3       1 RES1   0.0000
    28 C23      -6.1054   -4.1377    3.3469   C.3       1 RES1   0.0000
    29 C24      -5.7017   -4.6618    1.9590   C.3       1 RES1   0.0000
    30 C25      -5.5172   -6.1727    1.7985   C.3       1 RES1   0.0000
    31 C26      -4.7281   -6.5202    0.5255   C.3       1 RES1   0.0000
    32 C27      -5.4454   -6.2907   -0.8021   C.3       1 RES1   0.0000
    33 H1       -0.3147    4.0229    9.1347   H         1 RES1   0.0000
    34 H2        0.4112    4.3344    7.5619   H         1 RES1   0.0000
    35 H3       -0.7239    2.9938    7.7656   H         1 RES1   0.0000
    36 H4       -1.4459    5.9394    8.1259   H         1 RES1   0.0000
    37 H5       -2.5706    4.5861    8.1929   H         1 RES1   0.0000
    38 H6       -1.9615    4.0626    5.7810   H         1 RES1   0.0000
    39 H7       -0.9877    5.5377    5.7738   H         1 RES1   0.0000
    40 H8       -3.1180    6.7711    6.5246   H         1 RES1   0.0000
    41 H9       -4.0089    5.3251    6.0782   H         1 RES1   0.0000
    42 H10      -2.2260    6.9400    4.1966   H         1 RES1   0.0000
    43 H11      -3.9617    7.1413    4.3558   H         1 RES1   0.0000
    44 H12      -4.3615    4.8495    3.6171   H         1 RES1   0.0000
    45 H13      -2.6228    4.5792    3.3823   H         1 RES1   0.0000
    46 H14      -2.6075    6.4944    1.7593   H         1 RES1   0.0000
    47 H15      -4.3436    6.6628    1.9766   H         1 RES1   0.0000
    48 H16      -4.1142    5.4845   -0.0232   H         1 RES1   0.0000
    49 H17      -4.6738    4.3466    1.1979   H         1 RES1   0.0000
    50 H18      -1.9311    5.8198   -0.3252   H         1 RES1   0.0000
    51 H19      -1.5565    4.3331   -1.2122   H         1 RES1   0.0000
    52 H20      -0.6885    4.6886    0.2703   H         1 RES1   0.0000
    53 H21      -4.7418    2.5678    0.7079   H         1 RES1   0.0000
    54 H22      -4.6884    0.6855   -0.9232   H         1 RES1   0.0000
    55 H23      -2.9335    0.6391   -0.8248   H         1 RES1   0.0000
    56 H24      -2.7205    2.6878   -2.0238   H         1 RES1   0.0000
    57 H25      -4.2912    3.2550   -1.4487   H         1 RES1   0.0000
    58 H26      -4.7359    3.0276   -3.6166   H         1 RES1   0.0000
    59 H27      -5.3115    1.4763   -3.0408   H         1 RES1   0.0000
    60 H28      -2.6234    1.9677   -4.3690   H         1 RES1   0.0000
    61 H29      -4.0871    1.4688   -5.2014   H         1 RES1   0.0000
    62 H30      -4.0127   -0.4277   -3.2722   H         1 RES1   0.0000
    63 H31      -2.2818   -0.2020   -3.4957   H         1 RES1   0.0000
    64 H32      -4.3789   -1.0538   -5.5441   H         1 RES1   0.0000
    65 H33      -2.9952   -1.9786   -4.9733   H         1 RES1   0.0000
    66 H34      -2.7707   -0.5858   -6.0470   H         1 RES1   0.0000
    67 H35      -4.6574    2.9707    2.8430   H         1 RES1   0.0000
    68 H36      -5.3502    2.2163    4.2565   H         1 RES1   0.0000
    69 H37      -6.3605    2.4517    2.8132   H         1 RES1   0.0000
    70 H38      -6.6915   -0.1426    3.0045   H         1 RES1   0.0000
    71 H39      -5.8138    0.2205    4.4637   H         1 RES1   0.0000
    72 H40      -4.5160   -1.8885    2.8192   H         1 RES1   0.0000
    73 H41      -4.8585   -1.8401    4.5503   H         1 RES1   0.0000
    74 H42      -7.0607   -2.3721    2.5262   H         1 RES1   0.0000
    75 H43      -7.1055   -2.4895    4.2739   H         1 RES1   0.0000
    76 H44      -6.9918   -4.6834    3.6749   H         1 RES1   0.0000
    77 H45      -5.3103   -4.3390    4.0682   H         1 RES1   0.0000
    78 H46      -4.7423   -4.2214    1.6855   H         1 RES1   0.0000
    79 H47      -6.4575   -4.3522    1.2365   H         1 RES1   0.0000
    80 H48      -6.4807   -6.6782    1.7808   H         1 RES1   0.0000
    81 H49      -4.9644   -6.5704    2.6495   H         1 RES1   0.0000
    82 H50      -4.4520   -7.5737    0.5844   H         1 RES1   0.0000
    83 H51      -3.7963   -5.9437    0.4977   H         1 RES1   0.0000
    84 H52      -6.3562   -6.8797   -0.8630   H         1 RES1   0.0000
    85 H53      -4.7889   -6.6043   -1.6138   H         1 RES1   0.0000
    86 H54      -5.6936   -5.2415   -0.9575   H         1 RES1   0.0000
    87 C28      -5.1271   -4.3224   -5.4960   C.3       1 RES1   0.0000
    88 C29      -4.2056   -5.5372   -5.4279   C.3       1 RES1   0.0000
    89 C30      -2.7754   -5.1885   -5.0081   C.3       1 RES1   0.0000
    90 C31      -1.9897   -4.4657   -6.1049   C.3       1 RES1   0.0000
    91 C32      -0.6130   -3.9886   -5.6261   C.3       1 RES1   0.0000
    92 C33      -0.0914   -2.7984   -6.4363   C.3       1 RES1   0.0000
    93 C34       1.3190   -2.3598   -6.0063   C.3       1 RES1   0.0000
    94 C35       1.5044   -0.8365   -5.9539   C.3       1 RES1   0.0000
    95 N3        0.9020   -0.2040   -4.7833   N.am      1 RES1   0.0000
    96 C36      -0.1286    0.7640   -5.0979   C.3       1 RES1   0.0000
    97 C37       1.2375   -0.4137   -3.5106   C.2       1 RES1   0.0000
    98 O3        0.5245    0.0227   -2.5763   O.2       1 RES1   0.0000
    99 C38       2.5967   -1.0762   -3.2491   C.3       1 RES1   0.0000
   100 C39       2.5065   -2.4075   -2.4833   C.3       1 RES1   0.0000
   101 C40       3.8449   -3.1458   -2.5180   C.3       1 RES1   0.0000
   102 C41       3.7946   -4.6128   -2.0568   C.3       1 RES1   0.0000
   103 C42       4.3301   -4.8415   -0.6435   C.3       1 RES1   0.0000
   104 C43       3.3461   -4.4575    0.4549   C.3       1 RES1   0.0000
   105 C44       3.9494   -4.6224    1.8490   C.3       1 RES1   0.0000
   106 C45       3.3464   -0.0286   -2.4255   C.2       1 RES1   0.0000
   107 O4        2.7719    0.4114   -1.4156   O.2       1 RES1   0.0000
   108 N4        4.5364    0.4436   -2.8129   N.am      1 RES1   0.0000
   109 C46       5.0646    1.6294   -2.1568   C.3       1 RES1   0.0000
   110 C47       5.4104    0.0017   -3.8923   C.3       1 RES1   0.0000
   111 C48       6.6315   -0.8291   -3.4462   C.3       1 RES1   0.0000
   112 C49       7.7998   -0.1074   -2.7474   C.3       1 RES1   0.0000
   113 C50       7.7608   -0.2373   -1.2177   C.3       1 RES1   0.0000
   114 C51       8.6646    0.7266   -0.4370   C.3       1 RES1   0.0000
   115 C52       8.2416    2.1961   -0.4992   C.3       1 RES1   0.0000
   116 C53       9.0238    3.0896    0.4688   C.3       1 RES1   0.0000
   117 C54       8.5282    3.0060    1.9092   C.3       1 RES1   0.0000
   118 H55      -6.1492   -4.6401   -5.6866   H         1 RES1   0.0000
   119 H56      -4.8349   -3.6467   -6.2964   H         1 RES1   0.0000
   120 H57      -5.1140   -3.7740   -4.5530   H         1 RES1   0.0000
   121 H58      -4.1813   -6.0316   -6.3999   H         1 RES1   0.0000
   122 H59      -4.6172   -6.2451   -4.7050   H         1 RES1   0.0000
   123 H60      -2.2500   -6.1076   -4.7389   H         1 RES1   0.0000
   124 H61      -2.8180   -4.5564   -4.1121   H         1 RES1   0.0000
   125 H62      -2.5606   -3.6012   -6.4435   H         1 RES1   0.0000
   126 H63      -1.8712   -5.1313   -6.9609   H         1 RES1   0.0000
   127 H64       0.1005   -4.8114   -5.6759   H         1 RES1   0.0000
   128 H65      -0.6852   -3.6840   -4.5764   H         1 RES1   0.0000
   129 H66      -0.7892   -1.9735   -6.2985   H         1 RES1   0.0000
   130 H67      -0.0996   -3.0585   -7.4949   H         1 RES1   0.0000
   131 H68       2.0552   -2.7499   -6.7092   H         1 RES1   0.0000
   132 H69       1.5388   -2.7983   -5.0344   H         1 RES1   0.0000
   133 H70       1.0239   -0.4036   -6.8330   H         1 RES1   0.0000
   134 H71       2.5686   -0.5925   -6.0101   H         1 RES1   0.0000
   135 H72       0.2933    1.5100   -5.7742   H         1 RES1   0.0000
   136 H73      -0.4692    1.2495   -4.1872   H         1 RES1   0.0000
   137 H74      -0.9757    0.2805   -5.5733   H         1 RES1   0.0000
   138 H75       3.0927   -1.2921   -4.1883   H         1 RES1   0.0000
   139 H76       1.7560   -3.0272   -2.9745   H         1 RES1   0.0000
   140 H77       2.1640   -2.2170   -1.4593   H         1 RES1   0.0000
   141 H78       4.5768   -2.6030   -1.9173   H         1 RES1   0.0000
   142 H79       4.2005   -3.1371   -3.5506   H         1 RES1   0.0000
   143 H80       4.4037   -5.1987   -2.7464   H         1 RES1   0.0000
   144 H81       2.7767   -5.0031   -2.1225   H         1 RES1   0.0000
   145 H82       5.2593   -4.2861   -0.5046   H         1 RES1   0.0000
   146 H83       4.5687   -5.8983   -0.5358   H         1 RES1   0.0000
   147 H84       2.4609   -5.0861    0.3632   H         1 RES1   0.0000
   148 H85       3.0152   -3.4281    0.3236   H         1 RES1   0.0000
   149 H86       3.9973   -5.6689    2.1415   H         1 RES1   0.0000
   150 H87       3.3584   -4.0958    2.5957   H         1 RES1   0.0000
   151 H88       4.9594   -4.2203    1.8858   H         1 RES1   0.0000
   152 H89       4.5900    1.7586   -1.1890   H         1 RES1   0.0000
   153 H90       4.8685    2.5033   -2.7833   H         1 RES1   0.0000
   154 H91       6.1366    1.5370   -2.0474   H         1 RES1   0.0000
   155 H92       5.7619    0.8919   -4.4242   H         1 RES1   0.0000
   156 H93       4.8544   -0.5978   -4.6102   H         1 RES1   0.0000
   157 H94       7.0212   -1.2795   -4.3597   H         1 RES1   0.0000
   158 H95       6.3028   -1.6391   -2.7961   H         1 RES1   0.0000
   159 H96       7.8502    0.9374   -3.0492   H         1 RES1   0.0000
   160 H97       8.7284   -0.5687   -3.0830   H         1 RES1   0.0000
   161 H98       8.0712   -1.2519   -0.9645   H         1 RES1   0.0000
   162 H99       6.7352   -0.1246   -0.8637   H         1 RES1   0.0000
   163 H100      9.6861    0.6387   -0.8041   H         1 RES1   0.0000
   164 H101      8.6780    0.4051    0.6082   H         1 RES1   0.0000
   165 H102      7.1783    2.2954   -0.2639   H         1 RES1   0.0000
   166 H103      8.3937    2.5764   -1.5100   H         1 RES1   0.0000
   167 H104      8.9384    4.1268    0.1403   H         1 RES1   0.0000
   168 H105     10.0787    2.8213    0.4337   H         1 RES1   0.0000
   169 H106      7.5021    3.3663    1.9884   H         1 RES1   0.0000
   170 H107      9.1477    3.6190    2.5596   H         1 RES1   0.0000
   171 H108      8.5659    1.9852    2.2816   H         1 RES1   0.0000
   172 C55      -7.1186    4.7799   -3.4258   C.3       1 RES1   0.0000
   173 C56      -8.1462    4.5718   -2.3160   C.3       1 RES1   0.0000
   174 C57      -7.7529    3.5182   -1.2741   C.3       1 RES1   0.0000
   175 C58      -7.8606    2.0524   -1.7238   C.3       1 RES1   0.0000
   176 C59      -7.3652    1.1200   -0.6027   C.3       1 RES1   0.0000
   177 C60      -6.8436   -0.2891   -0.9869   C.3       1 RES1   0.0000
   178 C61      -6.1385   -0.8732    0.2578   C.3       1 RES1   0.0000
   179 C62      -5.2389   -2.1471    0.2956   C.3       1 RES1   0.0000
   180 N5       -3.8128   -2.1198   -0.0781   N.am      1 RES1   0.0000
   181 C63      -3.6889   -2.2780   -1.5242   C.3       1 RES1   0.0000
   182 C64      -2.6236   -1.8810    0.5724   C.2       1 RES1   0.0000
   183 O5       -1.7273   -1.3307   -0.1139   O.2       1 RES1   0.0000
   184 C65      -2.0996   -2.4988    1.9076   C.3       1 RES1   0.0000
   185 C66      -1.4011   -1.5033    2.9286   C.3       1 RES1   0.0000
   186 C67      -2.2481   -0.8606    4.0359   C.3       1 RES1   0.0000
   187 C68      -1.8741    0.5725    4.4339   C.3       1 RES1   0.0000
   188 C69      -0.7423    0.7417    5.4436   C.3       1 RES1   0.0000
   189 C70       0.6503    0.4712    4.8813   C.3       1 RES1   0.0000
   190 C71       1.7458    1.1967    5.6656   C.3       1 RES1   0.0000
   191 C72      -0.8098   -3.3210    1.6420   C.2       1 RES1   0.0000
   192 O6        0.1375   -2.7856    1.0317   O.2       1 RES1   0.0000
   193 N6       -0.6870   -4.4882    2.2899   N.am      1 RES1   0.0000
   194 C73       0.6143   -5.0429    2.6184   C.3       1 RES1   0.0000
   195 C74      -1.7894   -5.3820    2.6199   C.3       1 RES1   0.0000
   196 C75      -2.3999   -5.2974    4.0239   C.3       1 RES1   0.0000
   197 C76      -1.6438   -5.9201    5.2096   C.3       1 RES1   0.0000
   198 C77      -0.9477   -4.8869    6.0956   C.3       1 RES1   0.0000
   199 C78      -0.6209   -5.3943    7.5039   C.3       1 RES1   0.0000
   200 C79       0.5842   -6.3295    7.5858   C.3       1 RES1   0.0000
   201 C80       1.0612   -6.5112    9.0295   C.3       1 RES1   0.0000
   202 C81       1.8570   -5.3176    9.5469   C.3       1 RES1   0.0000
   203 H109     -7.4135    5.6199   -4.0518   H         1 RES1   0.0000
   204 H110     -7.0336    3.9043   -4.0649   H         1 RES1   0.0000
   205 H111     -6.1359    5.0103   -3.0114   H         1 RES1   0.0000
   206 H112     -9.1101    4.3183   -2.7580   H         1 RES1   0.0000
   207 H113     -8.2674    5.5229   -1.7920   H         1 RES1   0.0000
   208 H114     -8.3915    3.6617   -0.3986   H         1 RES1   0.0000
   209 H115     -6.7207    3.7204   -0.9660   H         1 RES1   0.0000
   210 H116     -7.2660    1.9058   -2.6242   H         1 RES1   0.0000
   211 H117     -8.8971    1.8249   -1.9722   H         1 RES1   0.0000
   212 H118     -8.1634    1.0109    0.1347   H         1 RES1   0.0000
   213 H119     -6.5542    1.6499   -0.0976   H         1 RES1   0.0000
   214 H120     -6.1767   -0.2181   -1.8476   H         1 RES1   0.0000
   215 H121     -7.6813   -0.9209   -1.2874   H         1 RES1   0.0000
   216 H122     -6.9570   -1.1031    0.9439   H         1 RES1   0.0000
   217 H123     -5.5872   -0.0668    0.7230   H         1 RES1   0.0000
   218 H124     -5.6958   -2.9196   -0.3256   H         1 RES1   0.0000
   219 H125     -5.2855   -2.4481    1.3240   H         1 RES1   0.0000
   220 H126     -3.5621   -3.3437   -1.7372   H         1 RES1   0.0000
   221 H127     -2.8475   -1.7227   -1.9250   H         1 RES1   0.0000
   222 H128     -4.6047   -1.9409   -1.9941   H         1 RES1   0.0000
   223 H129     -2.8412   -3.1134    2.4084   H         1 RES1   0.0000
   224 H130     -0.9023   -0.7217    2.3178   H         1 RES1   0.0000
   225 H131     -0.6140   -2.0771    3.4291   H         1 RES1   0.0000
   226 H132     -2.2364   -1.4970    4.9215   H         1 RES1   0.0000
   227 H133     -3.2594   -0.7921    3.6829   H         1 RES1   0.0000
   228 H134     -2.7708    1.0016    4.8912   H         1 RES1   0.0000
   229 H135     -1.6559    1.1369    3.5233   H         1 RES1   0.0000
   230 H136     -0.9385    0.1057    6.3081   H         1 RES1   0.0000
   231 H137     -0.7732    1.7759    5.7914   H         1 RES1   0.0000
   232 H138      0.6758    0.7988    3.8434   H         1 RES1   0.0000
   233 H139      0.8414   -0.6004    4.8834   H         1 RES1   0.0000
   234 H140      1.4983    2.2478    5.7973   H         1 RES1   0.0000
   235 H141      2.6940    1.1451    5.1332   H         1 RES1   0.0000
   236 H142      1.8969    0.7688    6.6556   H         1 RES1   0.0000
   237 H143      1.3084   -4.2375    2.8356   H         1 RES1   0.0000
   238 H144      1.0219   -5.6607    1.8196   H         1 RES1   0.0000
   239 H145      0.5093   -5.6838    3.4909   H         1 RES1   0.0000
   240 H146     -1.4421   -6.4056    2.4555   H         1 RES1   0.0000
   241 H147     -2.5960   -5.2058    1.9115   H         1 RES1   0.0000
   242 H148     -3.3477   -5.8294    3.9401   H         1 RES1   0.0000
   243 H149     -2.6282   -4.2588    4.2659   H         1 RES1   0.0000
   244 H150     -0.9292   -6.6759    4.8824   H         1 RES1   0.0000
   245 H151     -2.3787   -6.4240    5.8391   H         1 RES1   0.0000
   246 H152     -1.6147   -4.0276    6.2089   H         1 RES1   0.0000
   247 H153     -0.0322   -4.5328    5.6201   H         1 RES1   0.0000
   248 H154     -1.4961   -5.8985    7.9174   H         1 RES1   0.0000
   249 H155     -0.4262   -4.5273    8.1369   H         1 RES1   0.0000
   250 H156      1.4070   -5.9286    6.9882   H         1 RES1   0.0000
   251 H157      0.3244   -7.3061    7.1759   H         1 RES1   0.0000
   252 H158      1.6906   -7.4001    9.0901   H         1 RES1   0.0000
   253 H159      0.1971   -6.6810    9.6736   H         1 RES1   0.0000
   254 H160      2.7689   -5.1866    8.9675   H         1 RES1   0.0000
   255 H161      2.1380   -5.4674   10.5860   H         1 RES1   0.0000
   256 H162      1.2829   -4.3953    9.4901   H         1 RES1   0.0000
   257 C82       1.1196   -2.2143    7.0542   C.3       1 RES1   0.0000
   258 C83       2.5400   -2.7521    6.9162   C.3       1 RES1   0.0000
   259 C84       3.2612   -2.2395    5.6613   C.3       1 RES1   0.0000
   260 C85       4.7488   -2.0019    5.9231   C.3       1 RES1   0.0000
   261 C86       5.5338   -1.5771    4.6819   C.3       1 RES1   0.0000
   262 C87       5.0602   -0.2464    4.0895   C.3       1 RES1   0.0000
   263 C88       5.9747    0.2127    2.9488   C.3       1 RES1   0.0000
   264 C89       5.2808    1.0516    1.8671   C.3       1 RES1   0.0000
   265 N7        4.1325    0.3714    1.2965   N.am      1 RES1   0.0000
   266 C90       4.3491   -1.0218    0.9583   C.3       1 RES1   0.0000
   267 C91       2.8971    0.8429    1.1620   C.2       1 RES1   0.0000
   268 O7        1.9424    0.0349    1.0438   O.2       1 RES1   0.0000
   269 C92       2.6074    2.3349    1.1782   C.3       1 RES1   0.0000
   270 C93       1.8118    2.8777   -0.0533   C.3       1 RES1   0.0000
   271 C94       2.5935    3.5716   -1.1756   C.3       1 RES1   0.0000
   272 C95       1.7909    4.7385   -1.7782   C.3       1 RES1   0.0000
   273 C96       2.1144    4.9911   -3.2538   C.3       1 RES1   0.0000
   274 C97       1.3559    4.0542   -4.1970   C.3       1 RES1   0.0000
   275 C98      -0.1049    4.4606   -4.3585   C.3       1 RES1   0.0000
   276 C99       1.5637    2.5780    2.2771   C.2       1 RES1   0.0000
   277 O8        0.4762    2.0041    2.1479   O.2       1 RES1   0.0000
   278 N8        1.8486    3.4673    3.2321   N.am      1 RES1   0.0000
   279 C100      3.2015    3.8705    3.5638   C.3       1 RES1   0.0000
   280 C101      0.7652    4.1749    3.9004   C.3       1 RES1   0.0000
   281 C102      0.3228    5.3825    3.0722   C.3       1 RES1   0.0000
   282 C103      1.4060    6.4421    2.8602   C.3       1 RES1   0.0000
   283 C104      0.8507    7.7845    2.3700   C.3       1 RES1   0.0000
   284 C105      0.1076    7.6660    1.0414   C.3       1 RES1   0.0000
   285 C106     -0.2424    9.0203    0.4321   C.3       1 RES1   0.0000
   286 C107     -1.1783    8.9136   -0.7731   C.3       1 RES1   0.0000
   287 C108     -0.5542    8.2260   -1.9841   C.3       1 RES1   0.0000
   288 H163      0.6128   -2.6979    7.8842   H         1 RES1   0.0000
   289 H164      0.5386   -2.3992    6.1523   H         1 RES1   0.0000
   290 H165      1.1320   -1.1456    7.2525   H         1 RES1   0.0000
   291 H166      2.5173   -3.8424    6.9192   H         1 RES1   0.0000
   292 H167      3.1008   -2.4451    7.7986   H         1 RES1   0.0000
   293 H168      2.8050   -1.2993    5.3559   H         1 RES1   0.0000
   294 H169      3.1424   -2.9534    4.8391   H         1 RES1   0.0000
   295 H170      5.1919   -2.9190    6.3166   H         1 RES1   0.0000
   296 H171      4.8511   -1.2320    6.6910   H         1 RES1   0.0000
   297 H172      5.4599   -2.3685    3.9303   H         1 RES1   0.0000
   298 H173      6.5857   -1.4859    4.9558   H         1 RES1   0.0000
   299 H174      5.0331    0.5034    4.8821   H         1 RES1   0.0000
   300 H175      4.0415   -0.3665    3.7198   H         1 RES1   0.0000
   301 H176      6.4225   -0.6653    2.4853   H         1 RES1   0.0000
   302 H177      6.7855    0.8232    3.3460   H         1 RES1   0.0000
   303 H178      6.0101    1.2587    1.0783   H         1 RES1   0.0000
   304 H179      4.9548    1.9915    2.3031   H         1 RES1   0.0000
   305 H180      4.1964   -1.6782    1.8123   H         1 RES1   0.0000
   306 H181      5.3677   -1.1333    0.5984   H         1 RES1   0.0000
   307 H182      3.6538   -1.2917    0.1673   H         1 RES1   0.0000
   308 H183      3.5026    2.9366    1.2936   H         1 RES1   0.0000
   309 H184      1.1365    3.6405    0.3417   H         1 RES1   0.0000
   310 H185      1.1818    2.0621   -0.4752   H         1 RES1   0.0000
   311 H186      2.8022    2.8632   -1.9714   H         1 RES1   0.0000
   312 H187      3.5459    3.9519   -0.7983   H         1 RES1   0.0000
   313 H188      1.9824    5.6500   -1.2107   H         1 RES1   0.0000
   314 H189      0.7247    4.5296   -1.6987   H         1 RES1   0.0000
   315 H190      3.1862    4.8814   -3.4200   H         1 RES1   0.0000
   316 H191      1.8528    6.0206   -3.5012   H         1 RES1   0.0000
   317 H192      1.4165    3.0260   -3.8273   H         1 RES1   0.0000
   318 H193      1.8248    4.0839   -5.1817   H         1 RES1   0.0000
   319 H194     -0.6535    4.3633   -3.4241   H         1 RES1   0.0000
   320 H195     -0.6059    3.8492   -5.1061   H         1 RES1   0.0000
   321 H196     -0.1679    5.4979   -4.6764   H         1 RES1   0.0000
   322 H197      3.8301    2.9912    3.6959   H         1 RES1   0.0000
   323 H198      3.1962    4.4023    4.5128   H         1 RES1   0.0000
   324 H199      3.6566    4.5342    2.8254   H         1 RES1   0.0000
   325 H200      1.1037    4.5033    4.8825   H         1 RES1   0.0000
   326 H201     -0.0728    3.4902    4.0288   H         1 RES1   0.0000
   327 H202     -0.5221    5.8446    3.5771   H         1 RES1   0.0000
   328 H203     -0.0288    5.0256    2.1065   H         1 RES1   0.0000
   329 H204      2.1435    6.0952    2.1321   H         1 RES1   0.0000
   330 H205      1.9241    6.6221    3.8021   H         1 RES1   0.0000
   331 H206      1.6826    8.4849    2.2597   H         1 RES1   0.0000
   332 H207      0.1754    8.2000    3.1210   H         1 RES1   0.0000
   333 H208     -0.8201    7.1187    1.2092   H         1 RES1   0.0000
   334 H209      0.7156    7.0914    0.3402   H         1 RES1   0.0000
   335 H210      0.6712    9.5344    0.1342   H         1 RES1   0.0000
   336 H211     -0.7292    9.6303    1.1945   H         1 RES1   0.0000
   337 H212     -1.4713    9.9229   -1.0648   H         1 RES1   0.0000
   338 H213     -2.0888    8.3813   -0.4802   H         1 RES1   0.0000
   339 H214      0.3395    8.7601   -2.2993   H         1 RES1   0.0000
   340 H215     -1.2584    8.2257   -2.8141   H         1 RES1   0.0000
   341 H216     -0.2860    7.1923   -1.7686   H         1 RES1   0.0000
   342 O9       -0.1745   -2.6125   -1.7704   O.3       1 RES1   0.0000
   343 H217      0.0541   -3.1812   -1.0217   H         1 RES1   0.0000
   344 H218     -0.9043   -3.0272   -2.2424   H         1 RES1   0.0000
@<TRIPOS>BOND
     1     1    13    1
     2     1    22    1
     3     1    98    1
     4     1   107    1
     5     1   183    1
     6     1   192    1
     7     1   268    1
     8     1   277    1
     9     1   342    1
    10     2     3    1
    11     2    33    1
    12     2    34    1
    13     2    35    1
    14     3     4    1
    15     3    36    1
    16     3    37    1
    17     4     5    1
    18     4    38    1
    19     4    39    1
    20     5     6    1
    21     5    40    1
    22     5    41    1
    23     6     7    1
    24     6    42    1
    25     6    43    1
    26     7     8    1
    27     7    44    1
    28     7    45    1
    29     8     9    1
    30     8    46    1
    31     8    47    1
    32     9    10    1
    33     9    48    1
    34     9    49    1
    35    10    11    1
    36    10    12    1
    37    11    50    1
    38    11    51    1
    39    11    52    1
    40    12    13    2
    41    12    14    1
    42    14    15    1
    43    14    21    1
    44    14    53    1
    45    15    16    1
    46    15    54    1
    47    15    55    1
    48    16    17    1
    49    16    56    1
    50    16    57    1
    51    17    18    1
    52    17    58    1
    53    17    59    1
    54    18    19    1
    55    18    60    1
    56    18    61    1
    57    19    20    1
    58    19    62    1
    59    19    63    1
    60    20    64    1
    61    20    65    1
    62    20    66    1
    63    21    22    2
    64    21    23    1
    65    23    24    1
    66    23    25    1
    67    24    67    1
    68    24    68    1
    69    24    69    1
    70    25    26    1
    71    25    70    1
    72    25    71    1
    73    26    27    1
    74    26    72    1
    75    26    73    1
    76    27    28    1
    77    27    74    1
    78    27    75    1
    79    28    29    1
    80    28    76    1
    81    28    77    1
    82    29    30    1
    83    29    78    1
    84    29    79    1
    85    30    31    1
    86    30    80    1
    87    30    81    1
    88    31    32    1
    89    31    82    1
    90    31    83    1
    91    32    84    1
    92    32    85    1
    93    32    86    1
    94    87    88    1
    95    87   118    1
    96    87   119    1
    97    87   120    1
    98    88    89    1
    99    88   121    1
   100    88   122    1
   101    89    90    1
   102    89   123    1
   103    89   124    1
   104    90    91    1
   105    90   125    1
   106    90   126    1
   107    91    92    1
   108    91   127    1
   109    91   128    1
   110    92    93    1
   111    92   129    1
   112    92   130    1
   113    93    94    1
   114    93   131    1
   115    93   132    1
   116    94    95    1
   117    94   133    1
   118    94   134    1
   119    95    96    1
   120    95    97    1
   121    96   135    1
   122    96   136    1
   123    96   137    1
   124    97    98    2
   125    97    99    1
   126    99   100    1
   127    99   106    1
   128    99   138    1
   129   100   101    1
   130   100   139    1
   131   100   140    1
   132   101   102    1
   133   101   141    1
   134   101   142    1
   135   102   103    1
   136   102   143    1
   137   102   144    1
   138   103   104    1
   139   103   145    1
   140   103   146    1
   141   104   105    1
   142   104   147    1
   143   104   148    1
   144   105   149    1
   145   105   150    1
   146   105   151    1
   147   106   107    2
   148   106   108    1
   149   108   109    1
   150   108   110    1
   151   109   152    1
   152   109   153    1
   153   109   154    1
   154   110   111    1
   155   110   155    1
   156   110   156    1
   157   111   112    1
   158   111   157    1
   159   111   158    1
   160   112   113    1
   161   112   159    1
   162   112   160    1
   163   113   114    1
   164   113   161    1
   165   113   162    1
   166   114   115    1
   167   114   163    1
   168   114   164    1
   169   115   116    1
   170   115   165    1
   171   115   166    1
   172   116   117    1
   173   116   167    1
   174   116   168    1
   175   117   169    1
   176   117   170    1
   177   117   171    1
   178   172   173    1
   179   172   203    1
   180   172   204    1
   181   172   205    1
   182   173   174    1
   183   173   206    1
   184   173   207    1
   185   174   175    1
   186   174   208    1
   187   174   209    1
   188   175   176    1
   189   175   210    1
   190   175   211    1
   191   176   177    1
   192   176   212    1
   193   176   213    1
   194   177   178    1
   195   177   214    1
   196   177   215    1
   197   178   179    1
   198   178   216    1
   199   178   217    1
   200   179   180    1
   201   179   218    1
   202   179   219    1
   203   180   181    1
   204   180   182    1
   205   181   220    1
   206   181   221    1
   207   181   222    1
   208   182   183    2
   209   182   184    1
   210   184   185    1
   211   184   191    1
   212   184   223    1
   213   185   186    1
   214   185   224    1
   215   185   225    1
   216   186   187    1
   217   186   226    1
   218   186   227    1
   219   187   188    1
   220   187   228    1
   221   187   229    1
   222   188   189    1
   223   188   230    1
   224   188   231    1
   225   189   190    1
   226   189   232    1
   227   189   233    1
   228   190   234    1
   229   190   235    1
   230   190   236    1
   231   191   192    2
   232   191   193    1
   233   193   194    1
   234   193   195    1
   235   194   237    1
   236   194   238    1
   237   194   239    1
   238   195   196    1
   239   195   240    1
   240   195   241    1
   241   196   197    1
   242   196   242    1
   243   196   243    1
   244   197   198    1
   245   197   244    1
   246   197   245    1
   247   198   199    1
   248   198   246    1
   249   198   247    1
   250   199   200    1
   251   199   248    1
   252   199   249    1
   253   200   201    1
   254   200   250    1
   255   200   251    1
   256   201   202    1
   257   201   252    1
   258   201   253    1
   259   202   254    1
   260   202   255    1
   261   202   256    1
   262   257   258    1
   263   257   288    1
   264   257   289    1
   265   257   290    1
   266   258   259    1
   267   258   291    1
   268   258   292    1
   269   259   260    1
   270   259   293    1
   271   259   294    1
   272   260   261    1
   273   260   295    1
   274   260   296    1
   275   261   262    1
   276   261   297    1
   277   261   298    1
   278   262   263    1
   279   262   299    1
   280   262   300    1
   281   263   264    1
   282   263   301    1
   283   263   302    1
   284   264   265    1
   285   264   303    1
   286   264   304    1
   287   265   266    1
   288   265   267    1
   289   266   305    1
   290   266   306    1
   291   266   307    1
   292   267   268    2
   293   267   269    1
   294   269   270    1
   295   269   276    1
   296   269   308    1
   297   270   271    1
   298   270   309    1
   299   270   310    1
   300   271   272    1
   301   271   311    1
   302   271   312    1
   303   272   273    1
   304   272   313    1
   305   272   314    1
   306   273   274    1
   307   273   315    1
   308   273   316    1
   309   274   275    1
   310   274   317    1
   311   274   318    1
   312   275   319    1
   313   275   320    1
   314   275   321    1
   315   276   277    2
   316   276   278    1
   317   278   279    1
   318   278   280    1
   319   279   322    1
   320   279   323    1
   321   279   324    1
   322   280   281    1
   323   280   325    1
   324   280   326    1
   325   281   282    1
   326   281   327    1
   327   281   328    1
   328   282   283    1
   329   282   329    1
   330   282   330    1
   331   283   284    1
   332   283   331    1
   333   283   332    1
   334   284   285    1
   335   284   333    1
   336   284   334    1
   337   285   286    1
   338   285   335    1
   339   285   336    1
   340   286   287    1
   341   286   337    1
   342   286   338    1
   343   287   339    1
   344   287   340    1
   345   287   341    1
   346   342   343    1
   347   342   344    1
@<TRIPOS>SUBSTRUCTURE
     1 RES1      344 GROUP             0 ****  ****    0  
