@<TRIPOS>MOLECULE
am_c3_9H2O_c0_0_nunpairedes_0_charge_3 Charge: 3 Unpaired_Electrons: 6 XTB_Unpaired_Electrons: 0 XTB_Charge: 3
   235   243     1     0     0
SMALL
NoCharges
****
Generated from Architector

@<TRIPOS>ATOM
     1 Eu1       0.2024   -0.0736   -0.0883   Eu        1 RES1   0.0000
     2 C1        1.3993    1.5273   -8.8439   C.3       1 RES1   0.0000
     3 C2        0.8774    0.1121   -8.6143   C.3       1 RES1   0.0000
     4 C3        0.1786   -0.0668   -7.2646   C.3       1 RES1   0.0000
     5 C4       -1.1622    0.6582   -7.1898   C.3       1 RES1   0.0000
     6 C5       -1.8571    0.4664   -5.8420   C.3       1 RES1   0.0000
     7 C6       -3.2564    1.0809   -5.8804   C.3       1 RES1   0.0000
     8 C7       -4.0162    1.0031   -4.5540   C.3       1 RES1   0.0000
     9 C8       -3.8226    2.2245   -3.6450   C.3       1 RES1   0.0000
    10 N1       -2.4877    2.3389   -3.0704   N.am      1 RES1   0.0000
    11 C9       -1.5628    3.3089   -3.6631   C.3       1 RES1   0.0000
    12 C10      -1.1058    4.3913   -2.6876   C.3       1 RES1   0.0000
    13 C11      -2.2327    5.2052   -2.0590   C.3       1 RES1   0.0000
    14 C12      -1.7028    6.4542   -1.3497   C.3       1 RES1   0.0000
    15 C13      -0.7064    6.1499   -0.2318   C.3       1 RES1   0.0000
    16 C14      -0.2028    7.4294    0.4378   C.3       1 RES1   0.0000
    17 C15       0.9256    7.1834    1.4419   C.3       1 RES1   0.0000
    18 C16       0.4708    6.4132    2.6789   C.3       1 RES1   0.0000
    19 C17      -2.0581    1.5415   -2.1015   C.2       1 RES1   0.0000
    20 O1       -0.9047    1.5769   -1.6307   O.2       1 RES1   0.0000
    21 C18      -2.9868    0.4630   -1.5272   C.3       1 RES1   0.0000
    22 O2       -2.6685    0.2069   -0.1641   O.3       1 RES1   0.0000
    23 C19      -3.3323    1.0556    0.7610   C.3       1 RES1   0.0000
    24 C20      -2.3102    1.4648    1.8308   C.2       1 RES1   0.0000
    25 O3       -1.1115    1.1660    1.6596   O.2       1 RES1   0.0000
    26 N2       -2.7341    2.1474    2.8793   N.am      1 RES1   0.0000
    27 C21      -4.1195    2.4386    3.1914   C.3       1 RES1   0.0000
    28 C22      -4.4554    1.8235    4.5507   C.3       1 RES1   0.0000
    29 C23      -3.5836    2.4367    5.6599   C.3       1 RES1   0.0000
    30 C24      -2.4572    3.2812    5.0605   C.3       1 RES1   0.0000
    31 C25      -1.7739    2.5573    3.9057   C.3       1 RES1   0.0000
    32 H1        1.9488    1.5692   -9.7804   H         1 RES1   0.0000
    33 H2        2.0723    1.8234   -8.0393   H         1 RES1   0.0000
    34 H3        0.5868    2.2478   -8.9014   H         1 RES1   0.0000
    35 H4        1.7193   -0.5826   -8.6657   H         1 RES1   0.0000
    36 H5        0.1838   -0.1524   -9.4144   H         1 RES1   0.0000
    37 H6        0.8385    0.2907   -6.4694   H         1 RES1   0.0000
    38 H7        0.0066   -1.1335   -7.1016   H         1 RES1   0.0000
    39 H8       -1.8087    0.2743   -7.9805   H         1 RES1   0.0000
    40 H9       -1.0204    1.7261   -7.3642   H         1 RES1   0.0000
    41 H10      -1.2457    0.9083   -5.0496   H         1 RES1   0.0000
    42 H11      -1.9477   -0.6017   -5.6257   H         1 RES1   0.0000
    43 H12      -3.8291    0.5340   -6.6290   H         1 RES1   0.0000
    44 H13      -3.1975    2.1177   -6.2122   H         1 RES1   0.0000
    45 H14      -3.7146    0.0887   -4.0437   H         1 RES1   0.0000
    46 H15      -5.0860    0.9272   -4.7564   H         1 RES1   0.0000
    47 H16      -4.5557    2.1960   -2.8363   H         1 RES1   0.0000
    48 H17      -4.0337    3.1240   -4.2254   H         1 RES1   0.0000
    49 H18      -2.0519    3.7614   -4.5252   H         1 RES1   0.0000
    50 H19      -0.6782    2.7662   -4.0059   H         1 RES1   0.0000
    51 H20      -0.4476    5.0686   -3.2298   H         1 RES1   0.0000
    52 H21      -0.5232    3.9169   -1.9015   H         1 RES1   0.0000
    53 H22      -2.7778    4.5790   -1.3490   H         1 RES1   0.0000
    54 H23      -2.9321    5.5248   -2.8312   H         1 RES1   0.0000
    55 H24      -2.5437    7.0090   -0.9313   H         1 RES1   0.0000
    56 H25      -1.2235    7.1019   -2.0851   H         1 RES1   0.0000
    57 H26       0.1563    5.6175   -0.6403   H         1 RES1   0.0000
    58 H27      -1.1846    5.4988    0.5050   H         1 RES1   0.0000
    59 H28      -1.0287    7.9327    0.9418   H         1 RES1   0.0000
    60 H29       0.1674    8.1020   -0.3379   H         1 RES1   0.0000
    61 H30       1.3195    8.1485    1.7631   H         1 RES1   0.0000
    62 H31       1.7406    6.6448    0.9474   H         1 RES1   0.0000
    63 H32      -0.3331    6.9508    3.1752   H         1 RES1   0.0000
    64 H33       1.2925    6.3065    3.3843   H         1 RES1   0.0000
    65 H34       0.1095    5.4192    2.4129   H         1 RES1   0.0000
    66 H35      -2.7106   -0.4534   -2.0574   H         1 RES1   0.0000
    67 H36      -4.0556    0.6543   -1.6510   H         1 RES1   0.0000
    68 H37      -4.1771    0.5022    1.1932   H         1 RES1   0.0000
    69 H38      -3.7202    1.9462    0.2553   H         1 RES1   0.0000
    70 H39      -4.7868    2.0360    2.4374   H         1 RES1   0.0000
    71 H40      -4.2519    3.5205    3.2238   H         1 RES1   0.0000
    72 H41      -4.2734    0.7491    4.4979   H         1 RES1   0.0000
    73 H42      -5.5138    1.9719    4.7665   H         1 RES1   0.0000
    74 H43      -3.1552    1.6510    6.2843   H         1 RES1   0.0000
    75 H44      -4.1830    3.0760    6.3046   H         1 RES1   0.0000
    76 H45      -1.7055    3.4998    5.8205   H         1 RES1   0.0000
    77 H46      -2.8504    4.2385    4.7154   H         1 RES1   0.0000
    78 H47      -1.2549    1.6635    4.2672   H         1 RES1   0.0000
    79 H48      -1.0321    3.2143    3.4395   H         1 RES1   0.0000
    80 C26       9.0563    2.9146    0.4850   C.3       1 RES1   0.0000
    81 C27       9.0825    1.9275   -0.6769   C.3       1 RES1   0.0000
    82 C28       8.7236    2.5395   -2.0342   C.3       1 RES1   0.0000
    83 C29       7.3025    3.1001   -2.1742   C.3       1 RES1   0.0000
    84 C30       7.0799    3.5383   -3.6254   C.3       1 RES1   0.0000
    85 C31       5.7666    4.2698   -3.9474   C.3       1 RES1   0.0000
    86 C32       4.5849    3.3441   -4.3005   C.3       1 RES1   0.0000
    87 C33       3.6425    3.1726   -3.1104   C.3       1 RES1   0.0000
    88 N3        2.8208    1.9604   -3.0967   N.am      1 RES1   0.0000
    89 C34       2.5702    1.2172   -4.3304   C.3       1 RES1   0.0000
    90 C35       3.6417    0.1874   -4.7041   C.3       1 RES1   0.0000
    91 C36       3.3471   -1.2196   -4.1874   C.3       1 RES1   0.0000
    92 C37       2.3201   -1.9868   -5.0201   C.3       1 RES1   0.0000
    93 C38       2.3759   -3.4894   -4.7437   C.3       1 RES1   0.0000
    94 C39       1.9169   -3.8790   -3.3406   C.3       1 RES1   0.0000
    95 C40       0.4054   -3.7943   -3.1377   C.3       1 RES1   0.0000
    96 C41       0.0220   -4.4254   -1.8053   C.3       1 RES1   0.0000
    97 C42       2.1808    1.6142   -1.9890   C.2       1 RES1   0.0000
    98 O4        1.5978    0.5210   -1.8340   O.2       1 RES1   0.0000
    99 C43       2.1272    2.6616   -0.8713   C.3       1 RES1   0.0000
   100 O5        1.1743    2.2402    0.0954   O.3       1 RES1   0.0000
   101 C44       1.4293    2.6966    1.4145   C.3       1 RES1   0.0000
   102 C45       1.8469    1.4777    2.2569   C.2       1 RES1   0.0000
   103 O6        1.6435    0.3510    1.7573   O.2       1 RES1   0.0000
   104 N4        2.3741    1.6322    3.4586   N.am      1 RES1   0.0000
   105 C46       2.7026    2.8876    4.1095   C.3       1 RES1   0.0000
   106 C47       2.0297    2.9870    5.4802   C.3       1 RES1   0.0000
   107 C48       2.4194    1.7919    6.3421   C.3       1 RES1   0.0000
   108 C49       2.0529    0.5019    5.6177   C.3       1 RES1   0.0000
   109 C50       2.7325    0.4608    4.2510   C.3       1 RES1   0.0000
   110 H49       9.3525    2.4166    1.4063   H         1 RES1   0.0000
   111 H50       8.0624    3.3332    0.6255   H         1 RES1   0.0000
   112 H51       9.7539    3.7283    0.3068   H         1 RES1   0.0000
   113 H52       8.4141    1.0884   -0.4608   H         1 RES1   0.0000
   114 H53      10.0903    1.5137   -0.7534   H         1 RES1   0.0000
   115 H54       8.8546    1.7615   -2.7903   H         1 RES1   0.0000
   116 H55       9.4351    3.3367   -2.2535   H         1 RES1   0.0000
   117 H56       7.1744    3.9583   -1.5111   H         1 RES1   0.0000
   118 H57       6.5850    2.3320   -1.8856   H         1 RES1   0.0000
   119 H58       7.1705    2.6637   -4.2727   H         1 RES1   0.0000
   120 H59       7.9007    4.2097   -3.8777   H         1 RES1   0.0000
   121 H60       5.9537    4.9172   -4.8027   H         1 RES1   0.0000
   122 H61       5.5007    4.9254   -3.1171   H         1 RES1   0.0000
   123 H62       4.9926    2.3864   -4.6063   H         1 RES1   0.0000
   124 H63       4.0292    3.7528   -5.1434   H         1 RES1   0.0000
   125 H64       2.9923    4.0540   -3.0545   H         1 RES1   0.0000
   126 H65       4.2673    3.1568   -2.2157   H         1 RES1   0.0000
   127 H66       2.4590    1.9619   -5.1194   H         1 RES1   0.0000
   128 H67       1.6191    0.6998   -4.1902   H         1 RES1   0.0000
   129 H68       4.5990    0.5058   -4.2952   H         1 RES1   0.0000
   130 H69       3.7367    0.1583   -5.7898   H         1 RES1   0.0000
   131 H70       3.0153   -1.1488   -3.1510   H         1 RES1   0.0000
   132 H71       4.2806   -1.7843   -4.2160   H         1 RES1   0.0000
   133 H72       2.5393   -1.8316   -6.0772   H         1 RES1   0.0000
   134 H73       1.3120   -1.6166   -4.8284   H         1 RES1   0.0000
   135 H74       3.4048   -3.8274   -4.8849   H         1 RES1   0.0000
   136 H75       1.7591   -4.0171   -5.4733   H         1 RES1   0.0000
   137 H76       2.4003   -3.2426   -2.6016   H         1 RES1   0.0000
   138 H77       2.2382   -4.9052   -3.1532   H         1 RES1   0.0000
   139 H78      -0.0993   -4.3231   -3.9501   H         1 RES1   0.0000
   140 H79       0.0907   -2.7456   -3.1511   H         1 RES1   0.0000
   141 H80       0.3636   -5.4514   -1.7832   H         1 RES1   0.0000
   142 H81      -1.0522   -4.4400   -1.6617   H         1 RES1   0.0000
   143 H82       0.4814   -3.8767   -0.9832   H         1 RES1   0.0000
   144 H83       1.8044    3.6258   -1.2912   H         1 RES1   0.0000
   145 H84       3.1159    2.7824   -0.4192   H         1 RES1   0.0000
   146 H85       0.4795    3.0780    1.8040   H         1 RES1   0.0000
   147 H86       2.1617    3.5060    1.4165   H         1 RES1   0.0000
   148 H87       2.3985    3.7294    3.4949   H         1 RES1   0.0000
   149 H88       3.7877    2.9207    4.2487   H         1 RES1   0.0000
   150 H89       0.9461    3.0153    5.3554   H         1 RES1   0.0000
   151 H90       2.3422    3.9142    5.9611   H         1 RES1   0.0000
   152 H91       1.9198    1.8391    7.3091   H         1 RES1   0.0000
   153 H92       3.4944    1.8110    6.5174   H         1 RES1   0.0000
   154 H93       0.9709    0.4494    5.4850   H         1 RES1   0.0000
   155 H94       2.3689   -0.3648    6.1996   H         1 RES1   0.0000
   156 H95       2.4274   -0.4234    3.6923   H         1 RES1   0.0000
   157 H96       3.8183    0.4471    4.3804   H         1 RES1   0.0000
   158 C51      -0.2408   -8.1955   -2.5517   C.3       1 RES1   0.0000
   159 C52       1.2138   -7.7855   -2.7689   C.3       1 RES1   0.0000
   160 C53       2.1120   -7.9435   -1.5359   C.3       1 RES1   0.0000
   161 C54       1.7979   -7.0519   -0.3279   C.3       1 RES1   0.0000
   162 C55       2.6364   -7.4891    0.8761   C.3       1 RES1   0.0000
   163 C56       2.1888   -6.9291    2.2364   C.3       1 RES1   0.0000
   164 C57       3.0551   -5.7819    2.7946   C.3       1 RES1   0.0000
   165 C58       2.3342   -4.4310    2.9222   C.3       1 RES1   0.0000
   166 N5        2.4718   -3.5282    1.7812   N.am      1 RES1   0.0000
   167 C59       3.8338   -3.1876    1.3632   C.3       1 RES1   0.0000
   168 C60       4.2069   -3.6549   -0.0489   C.3       1 RES1   0.0000
   169 C61       4.4804   -2.4670   -0.9651   C.3       1 RES1   0.0000
   170 C62       5.7629   -1.7135   -0.6143   C.3       1 RES1   0.0000
   171 C63       5.7714   -0.3259   -1.2459   C.3       1 RES1   0.0000
   172 C64       4.9293    0.6985   -0.4806   C.3       1 RES1   0.0000
   173 C65       5.5949    1.2018    0.8063   C.3       1 RES1   0.0000
   174 C66       5.1851    2.6258    1.1715   C.3       1 RES1   0.0000
   175 C67       1.4767   -2.7767    1.3289   C.2       1 RES1   0.0000
   176 O7        1.5697   -2.0131    0.3490   O.2       1 RES1   0.0000
   177 C68       0.1626   -2.8031    2.1291   C.3       1 RES1   0.0000
   178 O8       -0.7474   -1.8221    1.6392   O.3       1 RES1   0.0000
   179 C69      -2.0050   -2.3434    1.2379   C.3       1 RES1   0.0000
   180 C70      -2.0928   -2.4065   -0.2981   C.2       1 RES1   0.0000
   181 O9       -1.2285   -1.7951   -0.9603   O.2       1 RES1   0.0000
   182 N6       -3.0786   -3.1006   -0.8453   N.am      1 RES1   0.0000
   183 C71      -4.1478   -3.7852   -0.1359   C.3       1 RES1   0.0000
   184 C72      -5.4989   -3.1737   -0.5145   C.3       1 RES1   0.0000
   185 C73      -5.7141   -3.2899   -2.0192   C.3       1 RES1   0.0000
   186 C74      -4.5577   -2.6236   -2.7552   C.3       1 RES1   0.0000
   187 C75      -3.2256   -3.2116   -2.2946   C.3       1 RES1   0.0000
   188 H97      -0.7833   -8.1206   -3.4919   H         1 RES1   0.0000
   189 H98      -0.7389   -7.5595   -1.8209   H         1 RES1   0.0000
   190 H99      -0.3008   -9.2256   -2.2101   H         1 RES1   0.0000
   191 H100      1.2496   -6.7613   -3.1472   H         1 RES1   0.0000
   192 H101      1.6274   -8.4218   -3.5541   H         1 RES1   0.0000
   193 H102      3.1437   -7.7554   -1.8416   H         1 RES1   0.0000
   194 H103      2.0497   -8.9845   -1.2131   H         1 RES1   0.0000
   195 H104      0.7393   -7.1435   -0.0739   H         1 RES1   0.0000
   196 H105      2.0051   -6.0054   -0.5645   H         1 RES1   0.0000
   197 H106      3.6811   -7.2285    0.7075   H         1 RES1   0.0000
   198 H107      2.5859   -8.5762    0.9218   H         1 RES1   0.0000
   199 H108      2.2185   -7.7495    2.9524   H         1 RES1   0.0000
   200 H109      1.1450   -6.6165    2.1766   H         1 RES1   0.0000
   201 H110      3.9516   -5.6837    2.1889   H         1 RES1   0.0000
   202 H111      3.3763   -6.0563    3.7999   H         1 RES1   0.0000
   203 H112      2.7038   -3.9058    3.8103   H         1 RES1   0.0000
   204 H113      1.2856   -4.6616    3.0837   H         1 RES1   0.0000
   205 H114      4.5121   -3.6011    2.1064   H         1 RES1   0.0000
   206 H115      3.9033   -2.0964    1.3993   H         1 RES1   0.0000
   207 H116      3.3830   -4.2407   -0.4549   H         1 RES1   0.0000
   208 H117      5.0880   -4.2934   -0.0142   H         1 RES1   0.0000
   209 H118      3.6184   -1.7947   -0.9137   H         1 RES1   0.0000
   210 H119      4.5703   -2.8238   -1.9901   H         1 RES1   0.0000
   211 H120      6.6119   -2.2887   -0.9829   H         1 RES1   0.0000
   212 H121      5.8839   -1.6038    0.4632   H         1 RES1   0.0000
   213 H122      5.3972   -0.4036   -2.2668   H         1 RES1   0.0000
   214 H123      6.7945    0.0436   -1.3089   H         1 RES1   0.0000
   215 H124      3.9326    0.2909   -0.2625   H         1 RES1   0.0000
   216 H125      4.7976    1.5487   -1.1503   H         1 RES1   0.0000
   217 H126      6.6750    1.1975    0.6718   H         1 RES1   0.0000
   218 H127      5.3606    0.5390    1.6407   H         1 RES1   0.0000
   219 H128      4.1368    2.6784    1.4557   H         1 RES1   0.0000
   220 H129      5.7653    2.9808    2.0185   H         1 RES1   0.0000
   221 H130      5.3618    3.3023    0.3361   H         1 RES1   0.0000
   222 H131      0.4053   -2.5563    3.1732   H         1 RES1   0.0000
   223 H132     -0.2919   -3.7970    2.0874   H         1 RES1   0.0000
   224 H133     -2.7662   -1.6512    1.6118   H         1 RES1   0.0000
   225 H134     -2.1701   -3.3281    1.6831   H         1 RES1   0.0000
   226 H135     -4.0118   -3.7304    0.9397   H         1 RES1   0.0000
   227 H136     -4.1408   -4.8367   -0.4388   H         1 RES1   0.0000
   228 H137     -5.5182   -2.1241   -0.2143   H         1 RES1   0.0000
   229 H138     -6.2932   -3.6957    0.0188   H         1 RES1   0.0000
   230 H139     -6.6569   -2.8269   -2.3079   H         1 RES1   0.0000
   231 H140     -5.7576   -4.3430   -2.2913   H         1 RES1   0.0000
   232 H141     -4.5795   -1.5534   -2.5536   H         1 RES1   0.0000
   233 H142     -4.6535   -2.7685   -3.8312   H         1 RES1   0.0000
   234 H143     -2.3807   -2.7164   -2.7718   H         1 RES1   0.0000
   235 H144     -3.1994   -4.2716   -2.5607   H         1 RES1   0.0000
@<TRIPOS>BOND
     1     1    20    1
     2     1    22    1
     3     1    25    1
     4     1    98    1
     5     1   100    1
     6     1   103    1
     7     1   176    1
     8     1   178    1
     9     1   181    1
    10     2     3    1
    11     2    32    1
    12     2    33    1
    13     2    34    1
    14     3     4    1
    15     3    35    1
    16     3    36    1
    17     4     5    1
    18     4    37    1
    19     4    38    1
    20     5     6    1
    21     5    39    1
    22     5    40    1
    23     6     7    1
    24     6    41    1
    25     6    42    1
    26     7     8    1
    27     7    43    1
    28     7    44    1
    29     8     9    1
    30     8    45    1
    31     8    46    1
    32     9    10    1
    33     9    47    1
    34     9    48    1
    35    10    11    1
    36    10    19    1
    37    11    12    1
    38    11    49    1
    39    11    50    1
    40    12    13    1
    41    12    51    1
    42    12    52    1
    43    13    14    1
    44    13    53    1
    45    13    54    1
    46    14    15    1
    47    14    55    1
    48    14    56    1
    49    15    16    1
    50    15    57    1
    51    15    58    1
    52    16    17    1
    53    16    59    1
    54    16    60    1
    55    17    18    1
    56    17    61    1
    57    17    62    1
    58    18    63    1
    59    18    64    1
    60    18    65    1
    61    19    20    2
    62    19    21    1
    63    21    22    1
    64    21    66    1
    65    21    67    1
    66    22    23    1
    67    23    24    1
    68    23    68    1
    69    23    69    1
    70    24    25    2
    71    24    26    1
    72    26    27    1
    73    26    31    1
    74    27    28    1
    75    27    70    1
    76    27    71    1
    77    28    29    1
    78    28    72    1
    79    28    73    1
    80    29    30    1
    81    29    74    1
    82    29    75    1
    83    30    31    1
    84    30    76    1
    85    30    77    1
    86    31    78    1
    87    31    79    1
    88    80    81    1
    89    80   110    1
    90    80   111    1
    91    80   112    1
    92    81    82    1
    93    81   113    1
    94    81   114    1
    95    82    83    1
    96    82   115    1
    97    82   116    1
    98    83    84    1
    99    83   117    1
   100    83   118    1
   101    84    85    1
   102    84   119    1
   103    84   120    1
   104    85    86    1
   105    85   121    1
   106    85   122    1
   107    86    87    1
   108    86   123    1
   109    86   124    1
   110    87    88    1
   111    87   125    1
   112    87   126    1
   113    88    89    1
   114    88    97    1
   115    89    90    1
   116    89   127    1
   117    89   128    1
   118    90    91    1
   119    90   129    1
   120    90   130    1
   121    91    92    1
   122    91   131    1
   123    91   132    1
   124    92    93    1
   125    92   133    1
   126    92   134    1
   127    93    94    1
   128    93   135    1
   129    93   136    1
   130    94    95    1
   131    94   137    1
   132    94   138    1
   133    95    96    1
   134    95   139    1
   135    95   140    1
   136    96   141    1
   137    96   142    1
   138    96   143    1
   139    97    98    2
   140    97    99    1
   141    99   100    1
   142    99   144    1
   143    99   145    1
   144   100   101    1
   145   101   102    1
   146   101   146    1
   147   101   147    1
   148   102   103    2
   149   102   104    1
   150   104   105    1
   151   104   109    1
   152   105   106    1
   153   105   148    1
   154   105   149    1
   155   106   107    1
   156   106   150    1
   157   106   151    1
   158   107   108    1
   159   107   152    1
   160   107   153    1
   161   108   109    1
   162   108   154    1
   163   108   155    1
   164   109   156    1
   165   109   157    1
   166   158   159    1
   167   158   188    1
   168   158   189    1
   169   158   190    1
   170   159   160    1
   171   159   191    1
   172   159   192    1
   173   160   161    1
   174   160   193    1
   175   160   194    1
   176   161   162    1
   177   161   195    1
   178   161   196    1
   179   162   163    1
   180   162   197    1
   181   162   198    1
   182   163   164    1
   183   163   199    1
   184   163   200    1
   185   164   165    1
   186   164   201    1
   187   164   202    1
   188   165   166    1
   189   165   203    1
   190   165   204    1
   191   166   167    1
   192   166   175    1
   193   167   168    1
   194   167   205    1
   195   167   206    1
   196   168   169    1
   197   168   207    1
   198   168   208    1
   199   169   170    1
   200   169   209    1
   201   169   210    1
   202   170   171    1
   203   170   211    1
   204   170   212    1
   205   171   172    1
   206   171   213    1
   207   171   214    1
   208   172   173    1
   209   172   215    1
   210   172   216    1
   211   173   174    1
   212   173   217    1
   213   173   218    1
   214   174   219    1
   215   174   220    1
   216   174   221    1
   217   175   176    2
   218   175   177    1
   219   177   178    1
   220   177   222    1
   221   177   223    1
   222   178   179    1
   223   179   180    1
   224   179   224    1
   225   179   225    1
   226   180   181    2
   227   180   182    1
   228   182   183    1
   229   182   187    1
   230   183   184    1
   231   183   226    1
   232   183   227    1
   233   184   185    1
   234   184   228    1
   235   184   229    1
   236   185   186    1
   237   185   230    1
   238   185   231    1
   239   186   187    1
   240   186   232    1
   241   186   233    1
   242   187   234    1
   243   187   235    1
@<TRIPOS>SUBSTRUCTURE
     1 RES1      235 GROUP             0 ****  ****    0  
