@<TRIPOS>MOLECULE
cn9_YICLED_0_nunpairedes_0_charge_3 Charge: 3 Unpaired_Electrons: 6 XTB_Unpaired_Electrons: 0 XTB_Charge: 3
   130   138     1     0     0
SMALL
NoCharges
****
Generated from Architector

@<TRIPOS>ATOM
     1 Eu1      -0.1449   -1.0206   -0.1610   Eu        1 RES1   0.0000
     2 C1        7.1378   -0.3510    4.7636   C.3       1 RES1   0.0000
     3 C2        7.4055   -1.6195    3.9608   C.3       1 RES1   0.0000
     4 C3        6.2786   -2.6535    4.0355   C.3       1 RES1   0.0000
     5 C4        5.0307   -2.1707    3.3015   C.3       1 RES1   0.0000
     6 C5        3.8706   -3.1662    3.2817   C.3       1 RES1   0.0000
     7 C6        3.1966   -3.3430    4.6517   C.3       1 RES1   0.0000
     8 C7        1.6693   -3.3983    4.5809   C.3       1 RES1   0.0000
     9 C8        0.9452   -2.0477    4.6478   C.3       1 RES1   0.0000
    10 N1        1.2733   -1.0994    3.5885   N.am      1 RES1   0.0000
    11 C9        0.5324   -0.8868    2.5380   C.2       1 RES1   0.0000
    12 O1        0.7540   -0.0556    1.6089   O.2       1 RES1   0.0000
    13 C10      -0.7257   -1.6744    2.2495   C.ar      1 RES1   0.0000
    14 C11      -1.9767   -1.1181    2.4859   C.ar      1 RES1   0.0000
    15 C12      -3.1090   -1.7441    1.9150   C.ar      1 RES1   0.0000
    16 O2       -4.3279   -1.2691    1.8917   O.3       1 RES1   0.0000
    17 C13      -4.6725    0.0276    2.3704   C.3       1 RES1   0.0000
    18 C14      -2.8794   -2.9757    1.2479   C.ar      1 RES1   0.0000
    19 C15      -1.5950   -3.3885    0.9844   C.ar      1 RES1   0.0000
    20 N2       -0.4965   -2.7209    1.4177   N.ar      1 RES1   0.0000
    21 H1        8.0193    0.2835    4.7489   H         1 RES1   0.0000
    22 H2        6.9187   -0.5918    5.8008   H         1 RES1   0.0000
    23 H3        6.3063    0.2227    4.3548   H         1 RES1   0.0000
    24 H4        8.3188   -2.0776    4.3409   H         1 RES1   0.0000
    25 H5        7.5838   -1.3561    2.9143   H         1 RES1   0.0000
    26 H6        6.0454   -2.8631    5.0796   H         1 RES1   0.0000
    27 H7        6.6228   -3.5817    3.5777   H         1 RES1   0.0000
    28 H8        5.3192   -1.9475    2.2710   H         1 RES1   0.0000
    29 H9        4.6994   -1.2439    3.7786   H         1 RES1   0.0000
    30 H10       4.2460   -4.1299    2.9355   H         1 RES1   0.0000
    31 H11       3.1315   -2.8273    2.5480   H         1 RES1   0.0000
    32 H12       3.5027   -2.5476    5.3317   H         1 RES1   0.0000
    33 H13       3.5407   -4.2776    5.0901   H         1 RES1   0.0000
    34 H14       1.2943   -3.9580    5.4379   H         1 RES1   0.0000
    35 H15       1.3667   -3.9385    3.6847   H         1 RES1   0.0000
    36 H16       1.1762   -1.5596    5.5950   H         1 RES1   0.0000
    37 H17      -0.1304   -2.2238    4.5905   H         1 RES1   0.0000
    38 H18       2.1444   -0.5821    3.6836   H         1 RES1   0.0000
    39 H19      -2.0751   -0.2455    3.1188   H         1 RES1   0.0000
    40 H20      -5.6285    0.2311    1.8887   H         1 RES1   0.0000
    41 H21      -3.9287    0.7836    2.0950   H         1 RES1   0.0000
    42 H22      -4.8343    0.0172    3.4521   H         1 RES1   0.0000
    43 H23      -3.7251   -3.5534    0.9106   H         1 RES1   0.0000
    44 H24      -1.4086   -4.2912    0.4071   H         1 RES1   0.0000
    45 C16      -4.0458   -6.6582   -2.6206   C.3       1 RES1   0.0000
    46 C17      -2.6197   -7.0354   -3.0057   C.3       1 RES1   0.0000
    47 C18      -1.9531   -6.0474   -3.9654   C.3       1 RES1   0.0000
    48 C19      -1.8048   -4.6489   -3.3678   C.3       1 RES1   0.0000
    49 C20      -1.0379   -3.6819   -4.2772   C.3       1 RES1   0.0000
    50 C21      -1.8222   -3.1937   -5.5098   C.3       1 RES1   0.0000
    51 C22      -2.0652   -1.6814   -5.5527   C.3       1 RES1   0.0000
    52 C23      -3.1641   -1.1634   -4.6071   C.3       1 RES1   0.0000
    53 N3       -2.9543   -1.6011   -3.2401   N.am      1 RES1   0.0000
    54 C24      -2.3091   -1.0576   -2.2446   C.2       1 RES1   0.0000
    55 O3       -2.1257   -1.6761   -1.1426   O.2       1 RES1   0.0000
    56 C25      -1.6908    0.3155   -2.2583   C.ar      1 RES1   0.0000
    57 C26      -1.5414    0.8999   -0.9760   C.ar      1 RES1   0.0000
    58 C27      -0.7672    2.0696   -0.8345   C.ar      1 RES1   0.0000
    59 O4       -0.5996    2.5037    0.4296   O.3       1 RES1   0.0000
    60 C28      -0.6526    3.9116    0.7182   C.3       1 RES1   0.0000
    61 C29      -0.2588    2.6397   -2.0105   C.ar      1 RES1   0.0000
    62 C30      -0.5403    2.0265   -3.2241   C.ar      1 RES1   0.0000
    63 N4       -1.2032    0.8820   -3.3493   N.ar      1 RES1   0.0000
    64 H25      -4.5136   -7.4795   -2.0865   H         1 RES1   0.0000
    65 H26      -4.6427   -6.4568   -3.5057   H         1 RES1   0.0000
    66 H27      -4.0737   -5.7835   -1.9727   H         1 RES1   0.0000
    67 H28      -2.6420   -8.0121   -3.4884   H         1 RES1   0.0000
    68 H29      -2.0137   -7.1329   -2.1007   H         1 RES1   0.0000
    69 H30      -2.5405   -5.9879   -4.8818   H         1 RES1   0.0000
    70 H31      -0.9698   -6.4349   -4.2359   H         1 RES1   0.0000
    71 H32      -1.2831   -4.7189   -2.4059   H         1 RES1   0.0000
    72 H33      -2.8118   -4.2799   -3.1577   H         1 RES1   0.0000
    73 H34      -0.1407   -4.2002   -4.6181   H         1 RES1   0.0000
    74 H35      -0.7026   -2.8177   -3.6953   H         1 RES1   0.0000
    75 H36      -2.7754   -3.7175   -5.5830   H         1 RES1   0.0000
    76 H37      -1.2562   -3.4439   -6.4077   H         1 RES1   0.0000
    77 H38      -2.3879   -1.4107   -6.5587   H         1 RES1   0.0000
    78 H39      -1.1384   -1.1447   -5.3462   H         1 RES1   0.0000
    79 H40      -4.1311   -1.5580   -4.9301   H         1 RES1   0.0000
    80 H41      -3.2028   -0.0737   -4.6352   H         1 RES1   0.0000
    81 H42      -3.2182   -2.5743   -3.0679   H         1 RES1   0.0000
    82 H43      -2.1132    0.5292   -0.1004   H         1 RES1   0.0000
    83 H44      -0.0633    4.5148    0.0332   H         1 RES1   0.0000
    84 H45      -0.2677    4.0204    1.7278   H         1 RES1   0.0000
    85 H46      -1.6938    4.2322    0.6810   H         1 RES1   0.0000
    86 H47       0.3469    3.5286   -1.9975   H         1 RES1   0.0000
    87 H48      -0.1982    2.4678   -4.1436   H         1 RES1   0.0000
    88 C31      -1.0419   -6.2655    2.7986   C.3       1 RES1   0.0000
    89 C32       0.1364   -6.9340    3.4965   C.3       1 RES1   0.0000
    90 C33       1.4762   -6.8402    2.7568   C.3       1 RES1   0.0000
    91 C34       1.6063   -7.7394    1.5213   C.3       1 RES1   0.0000
    92 C35       1.1323   -7.1217    0.1983   C.3       1 RES1   0.0000
    93 C36       2.2409   -6.4574   -0.6281   C.3       1 RES1   0.0000
    94 C37       2.8538   -5.2041    0.0143   C.3       1 RES1   0.0000
    95 C38       3.3438   -4.1650   -1.0085   C.3       1 RES1   0.0000
    96 N5        2.1930   -3.5126   -1.5927   N.am      1 RES1   0.0000
    97 C39       1.7179   -2.3140   -1.3963   C.2       1 RES1   0.0000
    98 O5        0.5571   -2.0123   -1.8227   O.2       1 RES1   0.0000
    99 C40       2.4172   -1.1665   -0.7081   C.ar      1 RES1   0.0000
   100 C41       2.2346    0.0885   -1.3182   C.ar      1 RES1   0.0000
   101 C42       2.7941    1.2312   -0.7023   C.ar      1 RES1   0.0000
   102 O6        2.7135    2.3756   -1.3569   O.3       1 RES1   0.0000
   103 C43       3.3176    3.5515   -0.8154   C.3       1 RES1   0.0000
   104 C44       3.4039    1.0353    0.5472   C.ar      1 RES1   0.0000
   105 C45       3.4818   -0.2386    1.0719   C.ar      1 RES1   0.0000
   106 N6        3.0121   -1.3333    0.4741   N.ar      1 RES1   0.0000
   107 H49      -1.9271   -6.3310    3.4256   H         1 RES1   0.0000
   108 H50      -1.2627   -6.7636    1.8600   H         1 RES1   0.0000
   109 H51      -0.8443   -5.2094    2.6074   H         1 RES1   0.0000
   110 H52      -0.1107   -7.9838    3.6538   H         1 RES1   0.0000
   111 H53       0.2651   -6.4820    4.4823   H         1 RES1   0.0000
   112 H54       2.2513   -7.1372    3.4654   H         1 RES1   0.0000
   113 H55       1.6748   -5.8034    2.4759   H         1 RES1   0.0000
   114 H56       1.0555   -8.6607    1.7130   H         1 RES1   0.0000
   115 H57       2.6514   -8.0265    1.4020   H         1 RES1   0.0000
   116 H58       0.3352   -6.3994    0.3824   H         1 RES1   0.0000
   117 H59       0.7101   -7.9169   -0.4174   H         1 RES1   0.0000
   118 H60       1.8155   -6.2051   -1.6026   H         1 RES1   0.0000
   119 H61       3.0272   -7.1904   -0.8091   H         1 RES1   0.0000
   120 H62       3.7037   -5.4907    0.6312   H         1 RES1   0.0000
   121 H63       2.1215   -4.7119    0.6606   H         1 RES1   0.0000
   122 H64       3.8935   -4.6552   -1.8126   H         1 RES1   0.0000
   123 H65       3.9715   -3.4103   -0.5338   H         1 RES1   0.0000
   124 H66       1.5490   -4.1203   -2.1041   H         1 RES1   0.0000
   125 H67       1.7976    0.1820   -2.3130   H         1 RES1   0.0000
   126 H68       4.4014    3.4516   -0.7619   H         1 RES1   0.0000
   127 H69       2.9175    3.7823    0.1756   H         1 RES1   0.0000
   128 H70       3.0531    4.3375   -1.5210   H         1 RES1   0.0000
   129 H71       3.8086    1.8524    1.1208   H         1 RES1   0.0000
   130 H72       3.9625   -0.3864    2.0277   H         1 RES1   0.0000
@<TRIPOS>BOND
     1     1    12    1
     2     1    16    1
     3     1    20    1
     4     1    55    1
     5     1    59    1
     6     1    63    1
     7     1    98    1
     8     1   102    1
     9     1   106    1
    10     2     3    1
    11     2    21    1
    12     2    22    1
    13     2    23    1
    14     3     4    1
    15     3    24    1
    16     3    25    1
    17     4     5    1
    18     4    26    1
    19     4    27    1
    20     5     6    1
    21     5    28    1
    22     5    29    1
    23     6     7    1
    24     6    30    1
    25     6    31    1
    26     7     8    1
    27     7    32    1
    28     7    33    1
    29     8     9    1
    30     8    34    1
    31     8    35    1
    32     9    10    1
    33     9    36    1
    34     9    37    1
    35    10    11    1
    36    10    38    1
    37    11    12    2
    38    11    13    1
    39    13    14    1
    40    13    20    2
    41    14    15    2
    42    14    39    1
    43    15    16    1
    44    15    18    1
    45    16    17    1
    46    17    40    1
    47    17    41    1
    48    17    42    1
    49    18    19    2
    50    18    43    1
    51    19    20    1
    52    19    44    1
    53    45    46    1
    54    45    64    1
    55    45    65    1
    56    45    66    1
    57    46    47    1
    58    46    67    1
    59    46    68    1
    60    47    48    1
    61    47    69    1
    62    47    70    1
    63    48    49    1
    64    48    71    1
    65    48    72    1
    66    49    50    1
    67    49    73    1
    68    49    74    1
    69    50    51    1
    70    50    75    1
    71    50    76    1
    72    51    52    1
    73    51    77    1
    74    51    78    1
    75    52    53    1
    76    52    79    1
    77    52    80    1
    78    53    54    1
    79    53    81    1
    80    54    55    2
    81    54    56    1
    82    56    57    1
    83    56    63    2
    84    57    58    2
    85    57    82    1
    86    58    59    1
    87    58    61    1
    88    59    60    1
    89    60    83    1
    90    60    84    1
    91    60    85    1
    92    61    62    2
    93    61    86    1
    94    62    63    1
    95    62    87    1
    96    88    89    1
    97    88   107    1
    98    88   108    1
    99    88   109    1
   100    89    90    1
   101    89   110    1
   102    89   111    1
   103    90    91    1
   104    90   112    1
   105    90   113    1
   106    91    92    1
   107    91   114    1
   108    91   115    1
   109    92    93    1
   110    92   116    1
   111    92   117    1
   112    93    94    1
   113    93   118    1
   114    93   119    1
   115    94    95    1
   116    94   120    1
   117    94   121    1
   118    95    96    1
   119    95   122    1
   120    95   123    1
   121    96    97    1
   122    96   124    1
   123    97    98    2
   124    97    99    1
   125    99   100    1
   126    99   106    2
   127   100   101    2
   128   100   125    1
   129   101   102    1
   130   101   104    1
   131   102   103    1
   132   103   126    1
   133   103   127    1
   134   103   128    1
   135   104   105    2
   136   104   129    1
   137   105   106    1
   138   105   130    1
@<TRIPOS>SUBSTRUCTURE
     1 RES1      130 GROUP             0 ****  ****    0  
