@<TRIPOS>MOLECULE
cn9_YICLED_0_nunpairedes_0_charge_3 Charge: 3 Unpaired_Electrons: 6 XTB_Unpaired_Electrons: 0 XTB_Charge: 3
   379   387     1     0     0
SMALL
NoCharges
****
Generated from Architector

@<TRIPOS>ATOM
     1 Eu1      -0.0801    0.4635    0.7744   Eu        1 RES1   0.0000
     2 C1        7.8827   -2.8275    1.9700   C.3       1 RES1   0.0000
     3 C2        7.3521   -3.0324    3.3863   C.3       1 RES1   0.0000
     4 C3        6.1157   -3.9450    3.4176   C.3       1 RES1   0.0000
     5 C4        5.0971   -3.6183    4.5164   C.3       1 RES1   0.0000
     6 C5        3.8700   -4.5526    4.4371   C.3       1 RES1   0.0000
     7 C6        2.4909   -3.8675    4.5639   C.3       1 RES1   0.0000
     8 C7        1.5216   -4.3529    3.4817   C.3       1 RES1   0.0000
     9 C8        0.0460   -4.4070    3.8309   C.3       1 RES1   0.0000
    10 N1       -0.7727   -3.1826    3.9746   N.am      1 RES1   0.0000
    11 C9       -1.8845   -3.4820    4.8848   C.3       1 RES1   0.0000
    12 C10      -2.7768   -4.6201    4.3833   C.3       1 RES1   0.0000
    13 C11      -3.9251   -4.8471    5.3654   C.3       1 RES1   0.0000
    14 C12      -5.1373   -5.5419    4.7421   C.3       1 RES1   0.0000
    15 C13      -6.0743   -4.5944    3.9853   C.3       1 RES1   0.0000
    16 C14      -6.8365   -3.6669    4.9397   C.3       1 RES1   0.0000
    17 C15      -8.0921   -3.0586    4.3119   C.3       1 RES1   0.0000
    18 C16      -8.7344   -2.0298    5.2362   C.3       1 RES1   0.0000
    19 C17      -0.7519   -2.0956    3.2070   C.2       1 RES1   0.0000
    20 O1        0.0748   -1.8054    2.3195   O.2       1 RES1   0.0000
    21 C18      -1.9165   -1.0848    3.3430   C.3       1 RES1   0.0000
    22 C19      -3.0953   -1.6739    2.5548   C.3       1 RES1   0.0000
    23 O2       -1.5416    0.1630    2.7287   O.3       1 RES1   0.0000
    24 C20      -1.2971    1.2518    3.6223   C.3       1 RES1   0.0000
    25 C21       0.2129    1.4989    3.7064   C.2       1 RES1   0.0000
    26 O3        0.8892    1.2535    2.6688   O.2       1 RES1   0.0000
    27 N2        0.7578    1.9471    4.8250   N.am      1 RES1   0.0000
    28 C22       2.2119    1.8397    4.9405   C.3       1 RES1   0.0000
    29 C23       2.6261    0.5102    5.5832   C.3       1 RES1   0.0000
    30 C24       2.6302    0.5335    7.1153   C.3       1 RES1   0.0000
    31 C25       2.7092   -0.8674    7.7271   C.3       1 RES1   0.0000
    32 C26       1.4097   -1.6598    7.5853   C.3       1 RES1   0.0000
    33 C27       1.4769   -3.0028    8.3124   C.3       1 RES1   0.0000
    34 C28       0.3448   -3.9359    7.8879   C.3       1 RES1   0.0000
    35 C29       0.4930   -5.3476    8.4407   C.3       1 RES1   0.0000
    36 C30      -0.0273    2.4381    5.9627   C.3       1 RES1   0.0000
    37 C31       0.5474    3.6443    6.7173   C.3       1 RES1   0.0000
    38 C32       0.4777    5.0049    6.0158   C.3       1 RES1   0.0000
    39 C33       1.4781    5.2865    4.8844   C.3       1 RES1   0.0000
    40 C34       2.7815    5.9339    5.3676   C.3       1 RES1   0.0000
    41 C35       3.6494    5.0383    6.2447   C.3       1 RES1   0.0000
    42 C36       4.8935    5.7400    6.7772   C.3       1 RES1   0.0000
    43 C37       5.6880    4.8095    7.6839   C.3       1 RES1   0.0000
    44 C38      -2.0491    2.4847    3.1500   C.ar      1 RES1   0.0000
    45 C39      -1.5356    3.7584    3.3639   C.ar      1 RES1   0.0000
    46 C40      -2.3705    4.8576    3.2554   C.ar      1 RES1   0.0000
    47 C41      -3.6933    4.7027    2.8716   C.ar      1 RES1   0.0000
    48 C42      -4.1569    3.4488    2.5121   C.ar      1 RES1   0.0000
    49 C43      -3.3457    2.3413    2.6732   C.ar      1 RES1   0.0000
    50 H1        8.8048   -2.2544    1.9925   H         1 RES1   0.0000
    51 H2        7.1730   -2.2981    1.3365   H         1 RES1   0.0000
    52 H3        8.0891   -3.7844    1.5028   H         1 RES1   0.0000
    53 H4        7.1184   -2.0683    3.8434   H         1 RES1   0.0000
    54 H5        8.1474   -3.4805    3.9777   H         1 RES1   0.0000
    55 H6        6.4339   -4.9798    3.5523   H         1 RES1   0.0000
    56 H7        5.6157   -3.8881    2.4469   H         1 RES1   0.0000
    57 H8        4.7695   -2.5811    4.4213   H         1 RES1   0.0000
    58 H9        5.5971   -3.7034    5.4808   H         1 RES1   0.0000
    59 H10       3.9678   -5.3195    5.2014   H         1 RES1   0.0000
    60 H11       3.9054   -5.0789    3.4826   H         1 RES1   0.0000
    61 H12       2.6313   -2.7880    4.5096   H         1 RES1   0.0000
    62 H13       2.0651   -4.0830    5.5415   H         1 RES1   0.0000
    63 H14       1.7703   -5.3896    3.2627   H         1 RES1   0.0000
    64 H15       1.6318   -3.8008    2.5661   H         1 RES1   0.0000
    65 H16      -0.0573   -4.9259    4.7847   H         1 RES1   0.0000
    66 H17      -0.4344   -5.0108    3.0563   H         1 RES1   0.0000
    67 H18      -2.5061   -2.6091    5.0529   H         1 RES1   0.0000
    68 H19      -1.4703   -3.7557    5.8562   H         1 RES1   0.0000
    69 H20      -2.2230   -5.5508    4.3036   H         1 RES1   0.0000
    70 H21      -3.1593   -4.3747    3.3942   H         1 RES1   0.0000
    71 H22      -4.2433   -3.8913    5.7762   H         1 RES1   0.0000
    72 H23      -3.5645   -5.4566    6.1919   H         1 RES1   0.0000
    73 H24      -5.7227   -6.0083    5.5380   H         1 RES1   0.0000
    74 H25      -4.7995   -6.3304    4.0690   H         1 RES1   0.0000
    75 H26      -6.8011   -5.1962    3.4335   H         1 RES1   0.0000
    76 H27      -5.5250   -4.0007    3.2445   H         1 RES1   0.0000
    77 H28      -6.1842   -2.8570    5.2868   H         1 RES1   0.0000
    78 H29      -7.1360   -4.2449    5.8174   H         1 RES1   0.0000
    79 H30      -8.8052   -3.8598    4.1096   H         1 RES1   0.0000
    80 H31      -7.8424   -2.5910    3.3560   H         1 RES1   0.0000
    81 H32      -8.9726   -2.4813    6.1955   H         1 RES1   0.0000
    82 H33      -9.6538   -1.6489    4.8013   H         1 RES1   0.0000
    83 H34      -8.0619   -1.1924    5.4124   H         1 RES1   0.0000
    84 H35      -2.1811   -0.9015    4.3892   H         1 RES1   0.0000
    85 H36      -3.6644   -0.8635    2.1064   H         1 RES1   0.0000
    86 H37      -3.7551   -2.2527    3.1980   H         1 RES1   0.0000
    87 H38      -2.7209   -2.3152    1.7539   H         1 RES1   0.0000
    88 H39      -1.6859    0.9849    4.6177   H         1 RES1   0.0000
    89 H40       2.6031    2.6795    5.5090   H         1 RES1   0.0000
    90 H41       2.6088    1.8933    3.9237   H         1 RES1   0.0000
    91 H42       3.6393    0.2871    5.2430   H         1 RES1   0.0000
    92 H43       1.9644   -0.2765    5.2090   H         1 RES1   0.0000
    93 H44       1.7416    1.0274    7.5070   H         1 RES1   0.0000
    94 H45       3.4926    1.1142    7.4470   H         1 RES1   0.0000
    95 H46       2.9389   -0.7663    8.7890   H         1 RES1   0.0000
    96 H47       3.5265   -1.4154    7.2531   H         1 RES1   0.0000
    97 H48       1.2012   -1.8411    6.5275   H         1 RES1   0.0000
    98 H49       0.5778   -1.0745    7.9836   H         1 RES1   0.0000
    99 H50       1.4296   -2.8378    9.3881   H         1 RES1   0.0000
   100 H51       2.4341   -3.4786    8.0933   H         1 RES1   0.0000
   101 H52       0.3421   -3.9884    6.7953   H         1 RES1   0.0000
   102 H53      -0.6131   -3.5209    8.2103   H         1 RES1   0.0000
   103 H54       1.4249   -5.7940    8.1004   H         1 RES1   0.0000
   104 H55      -0.3315   -5.9776    8.1110   H         1 RES1   0.0000
   105 H56       0.4923   -5.3393    9.5265   H         1 RES1   0.0000
   106 H57      -0.1496    1.6258    6.6873   H         1 RES1   0.0000
   107 H58      -1.0148    2.7317    5.6099   H         1 RES1   0.0000
   108 H59       1.5541    3.4343    7.0632   H         1 RES1   0.0000
   109 H60      -0.0784    3.7265    7.6076   H         1 RES1   0.0000
   110 H61       0.6326    5.7666    6.7819   H         1 RES1   0.0000
   111 H62      -0.5409    5.1360    5.6456   H         1 RES1   0.0000
   112 H63       1.0061    5.9923    4.1953   H         1 RES1   0.0000
   113 H64       1.6980    4.3797    4.3152   H         1 RES1   0.0000
   114 H65       2.5317    6.8388    5.9224   H         1 RES1   0.0000
   115 H66       3.3594    6.2457    4.4956   H         1 RES1   0.0000
   116 H67       3.9680    4.1633    5.6723   H         1 RES1   0.0000
   117 H68       3.0768    4.7014    7.1075   H         1 RES1   0.0000
   118 H69       4.5953    6.6276    7.3348   H         1 RES1   0.0000
   119 H70       5.5164    6.0680    5.9458   H         1 RES1   0.0000
   120 H71       5.0813    4.4891    8.5269   H         1 RES1   0.0000
   121 H72       6.5692    5.3090    8.0703   H         1 RES1   0.0000
   122 H73       6.0131    3.9224    7.1450   H         1 RES1   0.0000
   123 H74      -0.5013    3.8935    3.6408   H         1 RES1   0.0000
   124 H75      -1.9866    5.8356    3.5021   H         1 RES1   0.0000
   125 H76      -4.3356    5.5679    2.8166   H         1 RES1   0.0000
   126 H77      -5.1685    3.3291    2.1568   H         1 RES1   0.0000
   127 H78      -3.7428    1.3618    2.4710   H         1 RES1   0.0000
   128 C44      -4.4731    0.9033    6.3714   C.3       1 RES1   0.0000
   129 C45      -5.5265    1.2494    5.3227   C.3       1 RES1   0.0000
   130 C46      -5.5926    0.1943    4.2218   C.3       1 RES1   0.0000
   131 C47      -6.6086    0.5388    3.1340   C.3       1 RES1   0.0000
   132 C48      -6.5624   -0.4138    1.9283   C.3       1 RES1   0.0000
   133 C49      -5.8548    0.1442    0.6874   C.3       1 RES1   0.0000
   134 C50      -5.8232   -0.8993   -0.4420   C.3       1 RES1   0.0000
   135 C51      -4.4175   -1.3320   -0.8647   C.3       1 RES1   0.0000
   136 N3       -3.6145   -0.3656   -1.6251   N.am      1 RES1   0.0000
   137 C52      -4.1452   -0.1062   -2.9559   C.3       1 RES1   0.0000
   138 C53      -3.9723   -1.2603   -3.9503   C.3       1 RES1   0.0000
   139 C54      -5.0053   -1.1286   -5.0688   C.3       1 RES1   0.0000
   140 C55      -4.9303   -2.2698   -6.0843   C.3       1 RES1   0.0000
   141 C56      -3.6512   -2.2836   -6.9228   C.3       1 RES1   0.0000
   142 C57      -3.3931   -0.9505   -7.6316   C.3       1 RES1   0.0000
   143 C58      -2.4727   -1.1077   -8.8436   C.3       1 RES1   0.0000
   144 C59      -1.9455    0.2345   -9.3365   C.3       1 RES1   0.0000
   145 C60      -2.4313    0.0287   -1.1764   C.2       1 RES1   0.0000
   146 O4       -2.0354   -0.2295   -0.0100   O.2       1 RES1   0.0000
   147 C61      -1.3753    0.5710   -2.1504   C.3       1 RES1   0.0000
   148 C62      -0.7460   -0.7377   -2.6540   C.3       1 RES1   0.0000
   149 O5       -0.3416    1.3236   -1.4834   O.3       1 RES1   0.0000
   150 C63      -0.2561    2.7234   -1.8038   C.3       1 RES1   0.0000
   151 C64      -1.1843    3.4932   -0.8302   C.2       1 RES1   0.0000
   152 O6       -1.4852    2.8464    0.2002   O.2       1 RES1   0.0000
   153 N4       -1.4571    4.7804   -1.0307   N.am      1 RES1   0.0000
   154 C65      -2.3133    5.4623   -0.0653   C.3       1 RES1   0.0000
   155 C66      -3.8062    5.2515   -0.3135   C.3       1 RES1   0.0000
   156 C67      -4.3230    5.7750   -1.6548   C.3       1 RES1   0.0000
   157 C68      -5.7792    5.3692   -1.8828   C.3       1 RES1   0.0000
   158 C69      -5.8861    3.8896   -2.2348   C.3       1 RES1   0.0000
   159 C70      -7.3308    3.4167   -2.2819   C.3       1 RES1   0.0000
   160 C71      -7.3998    1.9548   -2.7061   C.3       1 RES1   0.0000
   161 C72      -8.8028    1.3773   -2.5848   C.3       1 RES1   0.0000
   162 C73      -1.0435    5.5533   -2.2140   C.3       1 RES1   0.0000
   163 C74      -0.7453    7.0596   -2.0663   C.3       1 RES1   0.0000
   164 C75       0.5739    7.4930   -1.4180   C.3       1 RES1   0.0000
   165 C76       0.7199    7.4445    0.1079   C.3       1 RES1   0.0000
   166 C77       0.2094    8.6857    0.8511   C.3       1 RES1   0.0000
   167 C78      -1.2691    8.6390    1.2128   C.3       1 RES1   0.0000
   168 C79      -1.6754    9.7636    2.1591   C.3       1 RES1   0.0000
   169 C80      -3.1558    9.6760    2.5059   C.3       1 RES1   0.0000
   170 C81       1.0717    3.3639   -1.4268   C.ar      1 RES1   0.0000
   171 C82       1.3947    3.5418   -0.0791   C.ar      1 RES1   0.0000
   172 C83       2.4016    4.4256    0.2824   C.ar      1 RES1   0.0000
   173 C84       3.0904    5.1428   -0.6819   C.ar      1 RES1   0.0000
   174 C85       2.8419    4.9000   -2.0249   C.ar      1 RES1   0.0000
   175 C86       1.8455    4.0068   -2.3941   C.ar      1 RES1   0.0000
   176 H79      -4.4494    1.6596    7.1521   H         1 RES1   0.0000
   177 H80      -3.4782    0.8501    5.9215   H         1 RES1   0.0000
   178 H81      -4.6906   -0.0567    6.8359   H         1 RES1   0.0000
   179 H82      -5.2816    2.2180    4.8789   H         1 RES1   0.0000
   180 H83      -6.4991    1.3376    5.8083   H         1 RES1   0.0000
   181 H84      -5.8611   -0.7667    4.6625   H         1 RES1   0.0000
   182 H85      -4.5967    0.0922    3.7935   H         1 RES1   0.0000
   183 H86      -6.4605    1.5663    2.8016   H         1 RES1   0.0000
   184 H87      -7.6017    0.4980    3.5778   H         1 RES1   0.0000
   185 H88      -7.5844   -0.6574    1.6349   H         1 RES1   0.0000
   186 H89      -6.0765   -1.3461    2.2247   H         1 RES1   0.0000
   187 H90      -4.8280    0.4381    0.9169   H         1 RES1   0.0000
   188 H91      -6.3857    1.0393    0.3590   H         1 RES1   0.0000
   189 H92      -6.4052   -0.5615   -1.2993   H         1 RES1   0.0000
   190 H93      -6.3141   -1.8094   -0.0926   H         1 RES1   0.0000
   191 H94      -4.5239   -2.2161   -1.4985   H         1 RES1   0.0000
   192 H95      -3.8434   -1.6091    0.0149   H         1 RES1   0.0000
   193 H96      -3.7101    0.8073   -3.3561   H         1 RES1   0.0000
   194 H97      -5.2163    0.0675   -2.8311   H         1 RES1   0.0000
   195 H98      -4.1324   -2.2203   -3.4603   H         1 RES1   0.0000
   196 H99      -2.9680   -1.2696   -4.3686   H         1 RES1   0.0000
   197 H100     -4.8724   -0.1731   -5.5779   H         1 RES1   0.0000
   198 H101     -6.0032   -1.1295   -4.6256   H         1 RES1   0.0000
   199 H102     -5.7787   -2.1703   -6.7607   H         1 RES1   0.0000
   200 H103     -5.0351   -3.2297   -5.5722   H         1 RES1   0.0000
   201 H104     -3.7481   -3.0690   -7.6759   H         1 RES1   0.0000
   202 H105     -2.7929   -2.5344   -6.2936   H         1 RES1   0.0000
   203 H106     -2.9483   -0.2372   -6.9279   H         1 RES1   0.0000
   204 H107     -4.3435   -0.5327   -7.9719   H         1 RES1   0.0000
   205 H108     -3.0288   -1.5977   -9.6444   H         1 RES1   0.0000
   206 H109     -1.6293   -1.7516   -8.5857   H         1 RES1   0.0000
   207 H110     -2.7662    0.9120   -9.5606   H         1 RES1   0.0000
   208 H111     -1.3540    0.0994  -10.2371   H         1 RES1   0.0000
   209 H112     -1.3096    0.6957   -8.5816   H         1 RES1   0.0000
   210 H113     -1.7874    1.1732   -2.9616   H         1 RES1   0.0000
   211 H114     -1.2560   -1.6212   -2.2753   H         1 RES1   0.0000
   212 H115      0.2939   -0.7607   -2.3144   H         1 RES1   0.0000
   213 H116     -0.7657   -0.7878   -3.7338   H         1 RES1   0.0000
   214 H117     -0.4786    2.8778   -2.8680   H         1 RES1   0.0000
   215 H118     -2.0826    6.5223   -0.0922   H         1 RES1   0.0000
   216 H119     -2.0704    5.0657    0.9213   H         1 RES1   0.0000
   217 H120     -4.3370    5.7768    0.4816   H         1 RES1   0.0000
   218 H121     -4.0189    4.1856   -0.2085   H         1 RES1   0.0000
   219 H122     -3.7430    5.3675   -2.4839   H         1 RES1   0.0000
   220 H123     -4.2224    6.8622   -1.6883   H         1 RES1   0.0000
   221 H124     -6.1942    5.9557   -2.7040   H         1 RES1   0.0000
   222 H125     -6.3670    5.5837   -0.9894   H         1 RES1   0.0000
   223 H126     -5.3450    3.2816   -1.5029   H         1 RES1   0.0000
   224 H127     -5.4148    3.7249   -3.2065   H         1 RES1   0.0000
   225 H128     -7.9017    4.0321   -2.9756   H         1 RES1   0.0000
   226 H129     -7.7791    3.5360   -1.2944   H         1 RES1   0.0000
   227 H130     -6.7155    1.3846   -2.0707   H         1 RES1   0.0000
   228 H131     -7.0515    1.8624   -3.7376   H         1 RES1   0.0000
   229 H132     -9.1269    1.3793   -1.5458   H         1 RES1   0.0000
   230 H133     -8.8400    0.3557   -2.9597   H         1 RES1   0.0000
   231 H134     -9.5063    1.9728   -3.1598   H         1 RES1   0.0000
   232 H135     -1.8422    5.4900   -2.9594   H         1 RES1   0.0000
   233 H136     -0.1575    5.0902   -2.6375   H         1 RES1   0.0000
   234 H137     -1.5801    7.5964   -1.6255   H         1 RES1   0.0000
   235 H138     -0.6840    7.4011   -3.1031   H         1 RES1   0.0000
   236 H139      0.7361    8.5281   -1.7256   H         1 RES1   0.0000
   237 H140      1.3740    6.8994   -1.8639   H         1 RES1   0.0000
   238 H141      1.7890    7.3745    0.3136   H         1 RES1   0.0000
   239 H142      0.2600    6.5418    0.5161   H         1 RES1   0.0000
   240 H143      0.4129    9.5776    0.2588   H         1 RES1   0.0000
   241 H144      0.7771    8.7911    1.7772   H         1 RES1   0.0000
   242 H145     -1.4852    7.6857    1.7015   H         1 RES1   0.0000
   243 H146     -1.8822    8.7094    0.3135   H         1 RES1   0.0000
   244 H147     -1.4605   10.7254    1.6947   H         1 RES1   0.0000
   245 H148     -1.0784    9.7002    3.0700   H         1 RES1   0.0000
   246 H149     -3.7608    9.7779    1.6084   H         1 RES1   0.0000
   247 H150     -3.4371   10.4616    3.2001   H         1 RES1   0.0000
   248 H151     -3.3869    8.7164    2.9657   H         1 RES1   0.0000
   249 H152      0.8333    3.0085    0.7040   H         1 RES1   0.0000
   250 H153      2.6531    4.5516    1.3242   H         1 RES1   0.0000
   251 H154      3.8332    5.8636   -0.3742   H         1 RES1   0.0000
   252 H155      3.4167    5.4250   -2.7783   H         1 RES1   0.0000
   253 H156      1.6564    3.8315   -3.4442   H         1 RES1   0.0000
   254 C87      -2.6352   -5.3925   -0.5054   C.3       1 RES1   0.0000
   255 C88      -1.3082   -5.7051   -1.1814   C.3       1 RES1   0.0000
   256 C89      -0.1478   -5.6723   -0.1929   C.3       1 RES1   0.0000
   257 C90       1.2141   -5.7705   -0.8826   C.3       1 RES1   0.0000
   258 C91       2.3677   -5.8672    0.1334   C.3       1 RES1   0.0000
   259 C92       3.2912   -4.6434    0.2188   C.3       1 RES1   0.0000
   260 C93       2.5847   -3.2770    0.2781   C.3       1 RES1   0.0000
   261 C94       2.9993   -2.3884    1.4567   C.3       1 RES1   0.0000
   262 N5        3.7373   -1.1816    1.0549   N.am      1 RES1   0.0000
   263 C95       4.6595   -0.8270    2.1454   C.3       1 RES1   0.0000
   264 C96       5.1288    0.6118    2.3444   C.3       1 RES1   0.0000
   265 C97       6.5345    0.8965    1.8140   C.3       1 RES1   0.0000
   266 C98       7.2318    2.0366    2.5593   C.3       1 RES1   0.0000
   267 C99       6.5481    3.4052    2.4932   C.3       1 RES1   0.0000
   268 C100      6.9327    4.2299    1.2645   C.3       1 RES1   0.0000
   269 C101      6.5286    5.6977    1.4157   C.3       1 RES1   0.0000
   270 C102      7.0411    6.5538    0.2610   C.3       1 RES1   0.0000
   271 C103      3.0741   -0.3772    0.2040   C.2       1 RES1   0.0000
   272 O7        1.8229   -0.4176    0.1301   O.2       1 RES1   0.0000
   273 C104      3.7986    0.4690   -0.8677   C.3       1 RES1   0.0000
   274 C105      4.0007    1.9119   -0.4043   C.3       1 RES1   0.0000
   275 O8        2.9021    0.5364   -1.9740   O.3       1 RES1   0.0000
   276 C106      3.2973   -0.0310   -3.2263   C.3       1 RES1   0.0000
   277 C107      2.7814   -1.4920   -3.2688   C.2       1 RES1   0.0000
   278 O9        2.0413   -1.8452   -2.3523   O.2       1 RES1   0.0000
   279 N6        3.1099   -2.3186   -4.2723   N.am      1 RES1   0.0000
   280 C108      2.6818   -3.7127   -4.1419   C.3       1 RES1   0.0000
   281 C109      3.7086   -4.6469   -3.4842   C.3       1 RES1   0.0000
   282 C110      4.8044   -5.1980   -4.3990   C.3       1 RES1   0.0000
   283 C111      5.8000   -6.0871   -3.6455   C.3       1 RES1   0.0000
   284 C112      6.5640   -5.3644   -2.5357   C.3       1 RES1   0.0000
   285 C113      7.7471   -6.1826   -2.0135   C.3       1 RES1   0.0000
   286 C114      8.3712   -5.5386   -0.7743   C.3       1 RES1   0.0000
   287 C115      9.6182   -6.2653   -0.2879   C.3       1 RES1   0.0000
   288 C116      3.8926   -1.9432   -5.4418   C.3       1 RES1   0.0000
   289 C117      3.4250   -2.5181   -6.7879   C.3       1 RES1   0.0000
   290 C118      2.1225   -1.9277   -7.3368   C.3       1 RES1   0.0000
   291 C119      0.7904   -2.5151   -6.8553   C.3       1 RES1   0.0000
   292 C120      0.3303   -3.7537   -7.6358   C.3       1 RES1   0.0000
   293 C121      0.9015   -5.0788   -7.1398   C.3       1 RES1   0.0000
   294 C122      0.4567   -6.2709   -7.9856   C.3       1 RES1   0.0000
   295 C123      1.0713   -7.5632   -7.4623   C.3       1 RES1   0.0000
   296 C124      2.6673    0.8158   -4.3176   C.ar      1 RES1   0.0000
   297 C125      1.4389    0.4487   -4.8466   C.ar      1 RES1   0.0000
   298 C126      0.8382    1.1839   -5.8519   C.ar      1 RES1   0.0000
   299 C127      1.4746    2.3052   -6.3581   C.ar      1 RES1   0.0000
   300 C128      2.6939    2.6940   -5.8257   C.ar      1 RES1   0.0000
   301 C129      3.2842    1.9601   -4.8087   C.ar      1 RES1   0.0000
   302 H157     -3.4598   -5.5185   -1.1989   H         1 RES1   0.0000
   303 H158     -2.6433   -4.3657   -0.1448   H         1 RES1   0.0000
   304 H159     -2.7988   -6.0531    0.3414   H         1 RES1   0.0000
   305 H160     -1.1193   -4.9880   -1.9821   H         1 RES1   0.0000
   306 H161     -1.3532   -6.6928   -1.6356   H         1 RES1   0.0000
   307 H162     -0.2553   -6.5061    0.5036   H         1 RES1   0.0000
   308 H163     -0.1971   -4.7510    0.3944   H         1 RES1   0.0000
   309 H164      1.3504   -4.9127   -1.5415   H         1 RES1   0.0000
   310 H165      1.2099   -6.6510   -1.5270   H         1 RES1   0.0000
   311 H166      2.9948   -6.7273   -0.1137   H         1 RES1   0.0000
   312 H167      1.9474   -6.0660    1.1217   H         1 RES1   0.0000
   313 H168      3.9625   -4.6718   -0.6365   H         1 RES1   0.0000
   314 H169      3.9200   -4.7900    1.0973   H         1 RES1   0.0000
   315 H170      1.5070   -3.4202    0.3085   H         1 RES1   0.0000
   316 H171      2.7810   -2.7445   -0.6467   H         1 RES1   0.0000
   317 H172      3.6648   -2.9600    2.1007   H         1 RES1   0.0000
   318 H173      2.1266   -2.0522    2.0201   H         1 RES1   0.0000
   319 H174      5.5158   -1.5024    2.1134   H         1 RES1   0.0000
   320 H175      4.0778   -1.0776    3.0409   H         1 RES1   0.0000
   321 H176      5.1696    0.7638    3.4251   H         1 RES1   0.0000
   322 H177      4.3829    1.3018    1.9554   H         1 RES1   0.0000
   323 H178      6.5184    1.0877    0.7433   H         1 RES1   0.0000
   324 H179      7.1465    0.0088    1.9695   H         1 RES1   0.0000
   325 H180      8.2397    2.1317    2.1550   H         1 RES1   0.0000
   326 H181      7.3331    1.7481    3.6078   H         1 RES1   0.0000
   327 H182      6.8580    3.9770    3.3698   H         1 RES1   0.0000
   328 H183      5.4618    3.2931    2.5372   H         1 RES1   0.0000
   329 H184      6.4750    3.8247    0.3578   H         1 RES1   0.0000
   330 H185      8.0147    4.1873    1.1321   H         1 RES1   0.0000
   331 H186      6.9372    6.0865    2.3521   H         1 RES1   0.0000
   332 H187      5.4377    5.7705    1.4761   H         1 RES1   0.0000
   333 H188      8.1285    6.5305    0.2325   H         1 RES1   0.0000
   334 H189      6.7283    7.5891    0.3832   H         1 RES1   0.0000
   335 H190      6.6626    6.1864   -0.6927   H         1 RES1   0.0000
   336 H191      4.7480   -0.0098   -1.1463   H         1 RES1   0.0000
   337 H192      3.2374    2.1338    0.3350   H         1 RES1   0.0000
   338 H193      3.8448    2.5497   -1.2662   H         1 RES1   0.0000
   339 H194      4.9780    2.1193    0.0072   H         1 RES1   0.0000
   340 H195      4.3942   -0.0129   -3.3190   H         1 RES1   0.0000
   341 H196      2.4085   -4.0857   -5.1231   H         1 RES1   0.0000
   342 H197      1.7826   -3.7035   -3.5180   H         1 RES1   0.0000
   343 H198      3.1530   -5.4993   -3.0847   H         1 RES1   0.0000
   344 H199      4.1570   -4.1177   -2.6427   H         1 RES1   0.0000
   345 H200      5.3521   -4.3917   -4.8868   H         1 RES1   0.0000
   346 H201      4.3393   -5.7972   -5.1844   H         1 RES1   0.0000
   347 H202      6.5221   -6.4739   -4.3660   H         1 RES1   0.0000
   348 H203      5.2674   -6.9382   -3.2170   H         1 RES1   0.0000
   349 H204      5.8952   -5.1605   -1.6966   H         1 RES1   0.0000
   350 H205      6.9307   -4.4041   -2.9080   H         1 RES1   0.0000
   351 H206      8.4986   -6.2751   -2.7998   H         1 RES1   0.0000
   352 H207      7.4083   -7.1907   -1.7644   H         1 RES1   0.0000
   353 H208      7.6242   -5.5256    0.0259   H         1 RES1   0.0000
   354 H209      8.6298   -4.5016   -1.0029   H         1 RES1   0.0000
   355 H210      9.3879   -7.2916   -0.0192   H         1 RES1   0.0000
   356 H211     10.0303   -5.7676    0.5856   H         1 RES1   0.0000
   357 H212     10.3854   -6.2792   -1.0558   H         1 RES1   0.0000
   358 H213      4.9358   -2.2490   -5.2913   H         1 RES1   0.0000
   359 H214      3.8705   -0.8566   -5.5338   H         1 RES1   0.0000
   360 H215      3.3880   -3.6039   -6.7688   H         1 RES1   0.0000
   361 H216      4.2220   -2.2425   -7.4808   H         1 RES1   0.0000
   362 H217      2.1449   -2.0255   -8.4228   H         1 RES1   0.0000
   363 H218      2.1404   -0.8587   -7.1173   H         1 RES1   0.0000
   364 H219      0.0417   -1.7361   -7.0117   H         1 RES1   0.0000
   365 H220      0.8141   -2.7279   -5.7861   H         1 RES1   0.0000
   366 H221      0.5866   -3.6221   -8.6883   H         1 RES1   0.0000
   367 H222     -0.7583   -3.8197   -7.5809   H         1 RES1   0.0000
   368 H223      0.5899   -5.2407   -6.1038   H         1 RES1   0.0000
   369 H224      1.9911   -5.0534   -7.1649   H         1 RES1   0.0000
   370 H225      0.7660   -6.1125   -9.0198   H         1 RES1   0.0000
   371 H226     -0.6315   -6.3500   -7.9792   H         1 RES1   0.0000
   372 H227      2.1562   -7.4861   -7.4476   H         1 RES1   0.0000
   373 H228      0.7938   -8.4060   -8.0877   H         1 RES1   0.0000
   374 H229      0.7317   -7.7670   -6.4496   H         1 RES1   0.0000
   375 H230      1.0091   -0.4672   -4.4923   H         1 RES1   0.0000
   376 H231     -0.1008    0.8511   -6.2707   H         1 RES1   0.0000
   377 H232      1.0407    2.8490   -7.1829   H         1 RES1   0.0000
   378 H233      3.1967    3.5703   -6.2121   H         1 RES1   0.0000
   379 H234      4.2461    2.2700   -4.4311   H         1 RES1   0.0000
@<TRIPOS>BOND
     1     1    20    1
     2     1    23    1
     3     1    26    1
     4     1   146    1
     5     1   149    1
     6     1   152    1
     7     1   272    1
     8     1   275    1
     9     1   278    1
    10     2     3    1
    11     2    50    1
    12     2    51    1
    13     2    52    1
    14     3     4    1
    15     3    53    1
    16     3    54    1
    17     4     5    1
    18     4    55    1
    19     4    56    1
    20     5     6    1
    21     5    57    1
    22     5    58    1
    23     6     7    1
    24     6    59    1
    25     6    60    1
    26     7     8    1
    27     7    61    1
    28     7    62    1
    29     8     9    1
    30     8    63    1
    31     8    64    1
    32     9    10    1
    33     9    65    1
    34     9    66    1
    35    10    11    1
    36    10    19    1
    37    11    12    1
    38    11    67    1
    39    11    68    1
    40    12    13    1
    41    12    69    1
    42    12    70    1
    43    13    14    1
    44    13    71    1
    45    13    72    1
    46    14    15    1
    47    14    73    1
    48    14    74    1
    49    15    16    1
    50    15    75    1
    51    15    76    1
    52    16    17    1
    53    16    77    1
    54    16    78    1
    55    17    18    1
    56    17    79    1
    57    17    80    1
    58    18    81    1
    59    18    82    1
    60    18    83    1
    61    19    20    2
    62    19    21    1
    63    21    22    1
    64    21    23    1
    65    21    84    1
    66    22    85    1
    67    22    86    1
    68    22    87    1
    69    23    24    1
    70    24    25    1
    71    24    44    1
    72    24    88    1
    73    25    26    2
    74    25    27    1
    75    27    28    1
    76    27    36    1
    77    28    29    1
    78    28    89    1
    79    28    90    1
    80    29    30    1
    81    29    91    1
    82    29    92    1
    83    30    31    1
    84    30    93    1
    85    30    94    1
    86    31    32    1
    87    31    95    1
    88    31    96    1
    89    32    33    1
    90    32    97    1
    91    32    98    1
    92    33    34    1
    93    33    99    1
    94    33   100    1
    95    34    35    1
    96    34   101    1
    97    34   102    1
    98    35   103    1
    99    35   104    1
   100    35   105    1
   101    36    37    1
   102    36   106    1
   103    36   107    1
   104    37    38    1
   105    37   108    1
   106    37   109    1
   107    38    39    1
   108    38   110    1
   109    38   111    1
   110    39    40    1
   111    39   112    1
   112    39   113    1
   113    40    41    1
   114    40   114    1
   115    40   115    1
   116    41    42    1
   117    41   116    1
   118    41   117    1
   119    42    43    1
   120    42   118    1
   121    42   119    1
   122    43   120    1
   123    43   121    1
   124    43   122    1
   125    44    45    1
   126    44    49    2
   127    45    46    2
   128    45   123    1
   129    46    47    1
   130    46   124    1
   131    47    48    2
   132    47   125    1
   133    48    49    1
   134    48   126    1
   135    49   127    1
   136   128   129    1
   137   128   176    1
   138   128   177    1
   139   128   178    1
   140   129   130    1
   141   129   179    1
   142   129   180    1
   143   130   131    1
   144   130   181    1
   145   130   182    1
   146   131   132    1
   147   131   183    1
   148   131   184    1
   149   132   133    1
   150   132   185    1
   151   132   186    1
   152   133   134    1
   153   133   187    1
   154   133   188    1
   155   134   135    1
   156   134   189    1
   157   134   190    1
   158   135   136    1
   159   135   191    1
   160   135   192    1
   161   136   137    1
   162   136   145    1
   163   137   138    1
   164   137   193    1
   165   137   194    1
   166   138   139    1
   167   138   195    1
   168   138   196    1
   169   139   140    1
   170   139   197    1
   171   139   198    1
   172   140   141    1
   173   140   199    1
   174   140   200    1
   175   141   142    1
   176   141   201    1
   177   141   202    1
   178   142   143    1
   179   142   203    1
   180   142   204    1
   181   143   144    1
   182   143   205    1
   183   143   206    1
   184   144   207    1
   185   144   208    1
   186   144   209    1
   187   145   146    2
   188   145   147    1
   189   147   148    1
   190   147   149    1
   191   147   210    1
   192   148   211    1
   193   148   212    1
   194   148   213    1
   195   149   150    1
   196   150   151    1
   197   150   170    1
   198   150   214    1
   199   151   152    2
   200   151   153    1
   201   153   154    1
   202   153   162    1
   203   154   155    1
   204   154   215    1
   205   154   216    1
   206   155   156    1
   207   155   217    1
   208   155   218    1
   209   156   157    1
   210   156   219    1
   211   156   220    1
   212   157   158    1
   213   157   221    1
   214   157   222    1
   215   158   159    1
   216   158   223    1
   217   158   224    1
   218   159   160    1
   219   159   225    1
   220   159   226    1
   221   160   161    1
   222   160   227    1
   223   160   228    1
   224   161   229    1
   225   161   230    1
   226   161   231    1
   227   162   163    1
   228   162   232    1
   229   162   233    1
   230   163   164    1
   231   163   234    1
   232   163   235    1
   233   164   165    1
   234   164   236    1
   235   164   237    1
   236   165   166    1
   237   165   238    1
   238   165   239    1
   239   166   167    1
   240   166   240    1
   241   166   241    1
   242   167   168    1
   243   167   242    1
   244   167   243    1
   245   168   169    1
   246   168   244    1
   247   168   245    1
   248   169   246    1
   249   169   247    1
   250   169   248    1
   251   170   171    1
   252   170   175    2
   253   171   172    2
   254   171   249    1
   255   172   173    1
   256   172   250    1
   257   173   174    2
   258   173   251    1
   259   174   175    1
   260   174   252    1
   261   175   253    1
   262   254   255    1
   263   254   302    1
   264   254   303    1
   265   254   304    1
   266   255   256    1
   267   255   305    1
   268   255   306    1
   269   256   257    1
   270   256   307    1
   271   256   308    1
   272   257   258    1
   273   257   309    1
   274   257   310    1
   275   258   259    1
   276   258   311    1
   277   258   312    1
   278   259   260    1
   279   259   313    1
   280   259   314    1
   281   260   261    1
   282   260   315    1
   283   260   316    1
   284   261   262    1
   285   261   317    1
   286   261   318    1
   287   262   263    1
   288   262   271    1
   289   263   264    1
   290   263   319    1
   291   263   320    1
   292   264   265    1
   293   264   321    1
   294   264   322    1
   295   265   266    1
   296   265   323    1
   297   265   324    1
   298   266   267    1
   299   266   325    1
   300   266   326    1
   301   267   268    1
   302   267   327    1
   303   267   328    1
   304   268   269    1
   305   268   329    1
   306   268   330    1
   307   269   270    1
   308   269   331    1
   309   269   332    1
   310   270   333    1
   311   270   334    1
   312   270   335    1
   313   271   272    2
   314   271   273    1
   315   273   274    1
   316   273   275    1
   317   273   336    1
   318   274   337    1
   319   274   338    1
   320   274   339    1
   321   275   276    1
   322   276   277    1
   323   276   296    1
   324   276   340    1
   325   277   278    2
   326   277   279    1
   327   279   280    1
   328   279   288    1
   329   280   281    1
   330   280   341    1
   331   280   342    1
   332   281   282    1
   333   281   343    1
   334   281   344    1
   335   282   283    1
   336   282   345    1
   337   282   346    1
   338   283   284    1
   339   283   347    1
   340   283   348    1
   341   284   285    1
   342   284   349    1
   343   284   350    1
   344   285   286    1
   345   285   351    1
   346   285   352    1
   347   286   287    1
   348   286   353    1
   349   286   354    1
   350   287   355    1
   351   287   356    1
   352   287   357    1
   353   288   289    1
   354   288   358    1
   355   288   359    1
   356   289   290    1
   357   289   360    1
   358   289   361    1
   359   290   291    1
   360   290   362    1
   361   290   363    1
   362   291   292    1
   363   291   364    1
   364   291   365    1
   365   292   293    1
   366   292   366    1
   367   292   367    1
   368   293   294    1
   369   293   368    1
   370   293   369    1
   371   294   295    1
   372   294   370    1
   373   294   371    1
   374   295   372    1
   375   295   373    1
   376   295   374    1
   377   296   297    1
   378   296   301    2
   379   297   298    2
   380   297   375    1
   381   298   299    1
   382   298   376    1
   383   299   300    2
   384   299   377    1
   385   300   301    1
   386   300   378    1
   387   301   379    1
@<TRIPOS>SUBSTRUCTURE
     1 RES1      379 GROUP             0 ****  ****    0  
