@<TRIPOS>MOLECULE
tri_tri_mer_capped_0_nunpairedes_0_charge_3 Charge: 3 Unpaired_Electrons: 6 XTB_Unpaired_Electrons: 0 XTB_Charge: 3
   284   291     1     0     0
SMALL
NoCharges
****
Generated from Architector

@<TRIPOS>ATOM
     1 Eu1      -0.1268   -0.0681    0.1013   Eu        1 RES1   0.0000
     2 C1       -5.4163    3.5241   -6.1697   C.3       1 RES1   0.0000
     3 C2       -5.1063    3.9351   -4.7320   C.3       1 RES1   0.0000
     4 C3       -6.0284    3.1935   -3.7681   C.3       1 RES1   0.0000
     5 C4       -3.6315    3.6428   -4.4384   C.3       1 RES1   0.0000
     6 C5       -3.0656    4.3479   -3.2113   C.3       1 RES1   0.0000
     7 C6       -1.5893    4.0047   -3.0001   C.3       1 RES1   0.0000
     8 C7       -0.8556    4.9514   -2.0595   C.3       1 RES1   0.0000
     9 C8       -1.5272    5.0114   -0.7037   C.3       1 RES1   0.0000
    10 P1       -1.2794    3.4884    0.3346   P.3       1 RES1   0.0000
    11 O1       -1.3345    2.1762   -0.3862   O.2       1 RES1   0.0000
    12 C9        0.4104    3.8148    1.0038   C.3       1 RES1   0.0000
    13 C10       0.9654    2.8532    2.0391   C.2       1 RES1   0.0000
    14 O2        0.6431    1.6507    1.9778   O.2       1 RES1   0.0000
    15 N1        1.8605    3.3239    2.9216   N.am      1 RES1   0.0000
    16 C11       2.1779    4.7291    3.1375   C.3       1 RES1   0.0000
    17 C12       1.9783    5.2088    4.5804   C.3       1 RES1   0.0000
    18 C13       2.4498    6.6572    4.6458   C.3       1 RES1   0.0000
    19 C14       0.5188    5.0948    5.0003   C.3       1 RES1   0.0000
    20 C15       2.6325    2.3788    3.7247   C.3       1 RES1   0.0000
    21 C16       4.1733    2.4622    3.6061   C.3       1 RES1   0.0000
    22 C17       4.6428    2.6476    2.1645   C.3       1 RES1   0.0000
    23 C18       4.8571    3.4646    4.5365   C.3       1 RES1   0.0000
    24 C19      -2.5140    3.9155    1.6063   C.ar      1 RES1   0.0000
    25 C20      -3.8178    4.1394    1.1586   C.ar      1 RES1   0.0000
    26 C21      -4.7173    4.8314    1.9466   C.ar      1 RES1   0.0000
    27 C22      -4.3259    5.3241    3.1843   C.ar      1 RES1   0.0000
    28 C23      -3.0513    5.0499    3.6532   C.ar      1 RES1   0.0000
    29 C24      -2.1444    4.3485    2.8700   C.ar      1 RES1   0.0000
    30 H1       -6.4655    3.6844   -6.3994   H         1 RES1   0.0000
    31 H2       -5.1941    2.4698   -6.3176   H         1 RES1   0.0000
    32 H3       -4.8240    4.1027   -6.8748   H         1 RES1   0.0000
    33 H4       -5.2837    5.0086   -4.6330   H         1 RES1   0.0000
    34 H5       -5.8651    2.1189   -3.8378   H         1 RES1   0.0000
    35 H6       -7.0677    3.3904   -4.0148   H         1 RES1   0.0000
    36 H7       -5.8687    3.5023   -2.7375   H         1 RES1   0.0000
    37 H8       -3.0457    3.9421   -5.3084   H         1 RES1   0.0000
    38 H9       -3.5214    2.5643   -4.3100   H         1 RES1   0.0000
    39 H10      -3.6469    4.0539   -2.3370   H         1 RES1   0.0000
    40 H11      -3.1806    5.4238   -3.3410   H         1 RES1   0.0000
    41 H12      -1.0732    4.0392   -3.9538   H         1 RES1   0.0000
    42 H13      -1.5067    2.9898   -2.6168   H         1 RES1   0.0000
    43 H14      -0.8315    5.9512   -2.4922   H         1 RES1   0.0000
    44 H15       0.1786    4.6243   -1.9351   H         1 RES1   0.0000
    45 H16      -2.5916    5.1909   -0.8454   H         1 RES1   0.0000
    46 H17      -1.1545    5.8574   -0.1230   H         1 RES1   0.0000
    47 H18       0.4172    4.8574    1.3045   H         1 RES1   0.0000
    48 H19       1.0618    3.6760    0.1310   H         1 RES1   0.0000
    49 H20       1.5620    5.3668    2.5107   H         1 RES1   0.0000
    50 H21       3.2147    4.8892    2.8399   H         1 RES1   0.0000
    51 H22       2.5845    4.6059    5.2535   H         1 RES1   0.0000
    52 H23       1.8695    7.2749    3.9633   H         1 RES1   0.0000
    53 H24       3.4988    6.7340    4.3699   H         1 RES1   0.0000
    54 H25       2.3294    7.0529    5.6488   H         1 RES1   0.0000
    55 H26      -0.1043    5.7261    4.3705   H         1 RES1   0.0000
    56 H27       0.3953    5.4254    6.0274   H         1 RES1   0.0000
    57 H28       0.1690    4.0647    4.9368   H         1 RES1   0.0000
    58 H29       2.3057    1.3939    3.3855   H         1 RES1   0.0000
    59 H30       2.3421    2.4796    4.7720   H         1 RES1   0.0000
    60 H31       4.5205    1.4825    3.9477   H         1 RES1   0.0000
    61 H32       4.3267    3.6015    1.7555   H         1 RES1   0.0000
    62 H33       4.2546    1.8599    1.5220   H         1 RES1   0.0000
    63 H34       5.7291    2.6256    2.1258   H         1 RES1   0.0000
    64 H35       4.6995    4.4980    4.2493   H         1 RES1   0.0000
    65 H36       5.9298    3.2867    4.5193   H         1 RES1   0.0000
    66 H37       4.5325    3.3306    5.5655   H         1 RES1   0.0000
    67 H38      -4.1100    3.7741    0.1815   H         1 RES1   0.0000
    68 H39      -5.7123    5.0289    1.5843   H         1 RES1   0.0000
    69 H40      -5.0051    5.9108    3.7867   H         1 RES1   0.0000
    70 H41      -2.7589    5.4084    4.6259   H         1 RES1   0.0000
    71 H42      -1.1438    4.1366    3.2188   H         1 RES1   0.0000
    72 C25      -5.2445   -1.5734    7.1367   C.3       1 RES1   0.0000
    73 C26      -3.7643   -1.7845    7.4480   C.3       1 RES1   0.0000
    74 C27      -3.5845   -1.6348    8.9597   C.3       1 RES1   0.0000
    75 C28      -3.2513   -3.1624    7.0013   C.3       1 RES1   0.0000
    76 C29      -2.8544   -3.3481    5.5300   C.3       1 RES1   0.0000
    77 C30      -4.0089   -3.4141    4.5340   C.3       1 RES1   0.0000
    78 C31      -3.6219   -3.9222    3.1430   C.3       1 RES1   0.0000
    79 C32      -2.9716   -2.9052    2.1992   C.3       1 RES1   0.0000
    80 P2       -1.2265   -2.3955    2.5359   P.3       1 RES1   0.0000
    81 O3       -0.4856   -2.0371    1.2894   O.2       1 RES1   0.0000
    82 C33      -1.2395   -0.7966    3.5252   C.3       1 RES1   0.0000
    83 C34      -2.2049    0.0390    2.7013   C.2       1 RES1   0.0000
    84 O4       -1.8369    0.3439    1.5511   O.2       1 RES1   0.0000
    85 N2       -3.4362    0.3603    3.1066   N.am      1 RES1   0.0000
    86 C35      -3.9573    0.1776    4.4480   C.3       1 RES1   0.0000
    87 C36      -3.7786    1.3717    5.4085   C.3       1 RES1   0.0000
    88 C37      -2.3445    1.8892    5.4529   C.3       1 RES1   0.0000
    89 C38      -4.7579    2.5060    5.1265   C.3       1 RES1   0.0000
    90 C39      -4.2859    1.0414    2.1293   C.3       1 RES1   0.0000
    91 C40      -4.9958    0.1341    1.1129   C.3       1 RES1   0.0000
    92 C41      -6.0404   -0.7609    1.7720   C.3       1 RES1   0.0000
    93 C42      -5.6903    1.0235    0.0811   C.3       1 RES1   0.0000
    94 C43      -0.3908   -3.8802    3.1852   C.ar      1 RES1   0.0000
    95 C44      -0.5497   -4.9279    2.2756   C.ar      1 RES1   0.0000
    96 C45       0.0568   -6.1478    2.4971   C.ar      1 RES1   0.0000
    97 C46       0.8370   -6.3383    3.6279   C.ar      1 RES1   0.0000
    98 C47       1.0063   -5.2900    4.5170   C.ar      1 RES1   0.0000
    99 C48       0.3959   -4.0566    4.3100   C.ar      1 RES1   0.0000
   100 H43      -5.5830   -0.6111    7.5142   H         1 RES1   0.0000
   101 H44      -5.8303   -2.3405    7.6342   H         1 RES1   0.0000
   102 H45      -5.4732   -1.6172    6.0782   H         1 RES1   0.0000
   103 H46      -3.1590   -1.0065    6.9669   H         1 RES1   0.0000
   104 H47      -4.1605   -2.3926    9.4840   H         1 RES1   0.0000
   105 H48      -3.9343   -0.6596    9.2921   H         1 RES1   0.0000
   106 H49      -2.5421   -1.7369    9.2500   H         1 RES1   0.0000
   107 H50      -3.9971   -3.9126    7.2616   H         1 RES1   0.0000
   108 H51      -2.3576   -3.3828    7.5896   H         1 RES1   0.0000
   109 H52      -2.3150   -4.2956    5.4639   H         1 RES1   0.0000
   110 H53      -2.1461   -2.5691    5.2491   H         1 RES1   0.0000
   111 H54      -4.7506   -4.1001    4.9416   H         1 RES1   0.0000
   112 H55      -4.4965   -2.4498    4.4210   H         1 RES1   0.0000
   113 H56      -4.5369   -4.2505    2.6458   H         1 RES1   0.0000
   114 H57      -2.9815   -4.7987    3.2463   H         1 RES1   0.0000
   115 H58      -3.5704   -1.9961    2.1445   H         1 RES1   0.0000
   116 H59      -2.9471   -3.3190    1.1838   H         1 RES1   0.0000
   117 H60      -0.2264   -0.3932    3.3678   H         1 RES1   0.0000
   118 H61      -1.4593   -0.8742    4.5824   H         1 RES1   0.0000
   119 H62      -3.4883   -0.6975    4.8944   H         1 RES1   0.0000
   120 H63      -5.0274   -0.0167    4.3537   H         1 RES1   0.0000
   121 H64      -4.0252    0.9830    6.4000   H         1 RES1   0.0000
   122 H65      -2.0152    2.2290    4.4727   H         1 RES1   0.0000
   123 H66      -1.6579    1.1250    5.8111   H         1 RES1   0.0000
   124 H67      -2.2937    2.7293    6.1411   H         1 RES1   0.0000
   125 H68      -4.5363    3.0093    4.1912   H         1 RES1   0.0000
   126 H69      -4.6936    3.2440    5.9213   H         1 RES1   0.0000
   127 H70      -5.7814    2.1389    5.1019   H         1 RES1   0.0000
   128 H71      -3.6396    1.7184    1.5714   H         1 RES1   0.0000
   129 H72      -5.0315    1.6158    2.6708   H         1 RES1   0.0000
   130 H73      -4.2423   -0.4737    0.5966   H         1 RES1   0.0000
   131 H74      -6.8157   -0.1586    2.2415   H         1 RES1   0.0000
   132 H75      -5.6105   -1.4136    2.5262   H         1 RES1   0.0000
   133 H76      -6.5175   -1.3895    1.0247   H         1 RES1   0.0000
   134 H77      -6.3891    1.7052    0.5613   H         1 RES1   0.0000
   135 H78      -6.2610    0.4179   -0.6165   H         1 RES1   0.0000
   136 H79      -4.9684    1.6070   -0.4838   H         1 RES1   0.0000
   137 H80      -1.1515   -4.7652    1.3884   H         1 RES1   0.0000
   138 H81      -0.0660   -6.9452    1.7845   H         1 RES1   0.0000
   139 H82       1.3066   -7.2933    3.8196   H         1 RES1   0.0000
   140 H83       1.6353   -5.4395    5.3785   H         1 RES1   0.0000
   141 H84       0.5326   -3.2469    5.0166   H         1 RES1   0.0000
   142 C49       7.8898   -4.1536   -0.2510   C.3       1 RES1   0.0000
   143 C50       7.3631   -3.8568   -1.6537   C.3       1 RES1   0.0000
   144 C51       8.5677   -3.7923   -2.5946   C.3       1 RES1   0.0000
   145 C52       6.3706   -4.9210   -2.1496   C.3       1 RES1   0.0000
   146 C53       4.8961   -4.7956   -1.7352   C.3       1 RES1   0.0000
   147 C54       4.5785   -5.1116   -0.2747   C.3       1 RES1   0.0000
   148 C55       3.0901   -5.3149    0.0345   C.3       1 RES1   0.0000
   149 C56       2.2489   -4.0572    0.2836   C.3       1 RES1   0.0000
   150 P3        1.9150   -2.9438   -1.1536   P.3       1 RES1   0.0000
   151 O5        0.6663   -2.1333   -1.0463   O.2       1 RES1   0.0000
   152 C57       3.2685   -1.6356   -1.1631   C.3       1 RES1   0.0000
   153 C58       3.2450   -1.1509    0.2770   C.2       1 RES1   0.0000
   154 O6        2.1925   -0.6291    0.7066   O.2       1 RES1   0.0000
   155 N3        4.2895   -1.3424    1.0894   N.am      1 RES1   0.0000
   156 C59       5.6169   -1.7723    0.6801   C.3       1 RES1   0.0000
   157 C60       6.6101   -0.6472    0.3103   C.3       1 RES1   0.0000
   158 C61       6.0352    0.3662   -0.6762   C.3       1 RES1   0.0000
   159 C62       7.1953    0.0498    1.5355   C.3       1 RES1   0.0000
   160 C63       4.1091   -0.9880    2.4948   C.3       1 RES1   0.0000
   161 C64       3.3231   -2.0093    3.3310   C.3       1 RES1   0.0000
   162 C65       4.0558   -3.3432    3.4420   C.3       1 RES1   0.0000
   163 C66       3.1313   -1.4331    4.7335   C.3       1 RES1   0.0000
   164 C67       1.6769   -4.0866   -2.5604   C.ar      1 RES1   0.0000
   165 C68       0.6715   -5.0035   -2.2410   C.ar      1 RES1   0.0000
   166 C69       0.2451   -5.9303   -3.1705   C.ar      1 RES1   0.0000
   167 C70       0.8071   -5.9492   -4.4384   C.ar      1 RES1   0.0000
   168 C71       1.7876   -5.0257   -4.7583   C.ar      1 RES1   0.0000
   169 C72       2.2345   -4.0927   -3.8271   C.ar      1 RES1   0.0000
   170 H85       8.5921   -3.3866    0.0676   H         1 RES1   0.0000
   171 H86       8.4255   -5.0982   -0.2624   H         1 RES1   0.0000
   172 H87       7.1073   -4.2278    0.4958   H         1 RES1   0.0000
   173 H88       6.8771   -2.8733   -1.6799   H         1 RES1   0.0000
   174 H89       9.0838   -4.7485   -2.6125   H         1 RES1   0.0000
   175 H90       9.2755   -3.0372   -2.2585   H         1 RES1   0.0000
   176 H91       8.2690   -3.5464   -3.6104   H         1 RES1   0.0000
   177 H92       6.7384   -5.9023   -1.8525   H         1 RES1   0.0000
   178 H93       6.3822   -4.8931   -3.2418   H         1 RES1   0.0000
   179 H94       4.3371   -5.5061   -2.3478   H         1 RES1   0.0000
   180 H95       4.5337   -3.8038   -2.0051   H         1 RES1   0.0000
   181 H96       4.9694   -4.3475    0.3917   H         1 RES1   0.0000
   182 H97       5.0919   -6.0412   -0.0304   H         1 RES1   0.0000
   183 H98       3.0192   -5.9031    0.9525   H         1 RES1   0.0000
   184 H99       2.6404   -5.9093   -0.7616   H         1 RES1   0.0000
   185 H100      2.6915   -3.4452    1.0682   H         1 RES1   0.0000
   186 H101      1.2611   -4.3542    0.6529   H         1 RES1   0.0000
   187 H102      2.8501   -0.8641   -1.8169   H         1 RES1   0.0000
   188 H103      4.2372   -1.9457   -1.5308   H         1 RES1   0.0000
   189 H104      5.5310   -2.4440   -0.1705   H         1 RES1   0.0000
   190 H105      6.0467   -2.3389    1.5085   H         1 RES1   0.0000
   191 H106      7.4416   -1.1548   -0.1877   H         1 RES1   0.0000
   192 H107      5.1678    0.8824   -0.2679   H         1 RES1   0.0000
   193 H108      5.7591   -0.1070   -1.6163   H         1 RES1   0.0000
   194 H109      6.7930    1.1134   -0.8969   H         1 RES1   0.0000
   195 H110      6.4467    0.6058    2.0895   H         1 RES1   0.0000
   196 H111      7.9633    0.7508    1.2201   H         1 RES1   0.0000
   197 H112      7.6658   -0.6708    2.2004   H         1 RES1   0.0000
   198 H113      3.5672   -0.0438    2.5107   H         1 RES1   0.0000
   199 H114      5.0914   -0.8546    2.9392   H         1 RES1   0.0000
   200 H115      2.3368   -2.1571    2.8717   H         1 RES1   0.0000
   201 H116      4.9977   -3.2193    3.9723   H         1 RES1   0.0000
   202 H117      4.2649   -3.7839    2.4720   H         1 RES1   0.0000
   203 H118      3.4510   -4.0520    4.0012   H         1 RES1   0.0000
   204 H119      4.0923   -1.2314    5.2013   H         1 RES1   0.0000
   205 H120      2.6095   -2.1427    5.3684   H         1 RES1   0.0000
   206 H121      2.5585   -0.5100    4.7127   H         1 RES1   0.0000
   207 H122      0.2245   -4.9755   -1.2535   H         1 RES1   0.0000
   208 H123     -0.5306   -6.6302   -2.9123   H         1 RES1   0.0000
   209 H124      0.4903   -6.6768   -5.1722   H         1 RES1   0.0000
   210 H125      2.2030   -5.0310   -5.7522   H         1 RES1   0.0000
   211 H126      3.0158   -3.3876   -4.0847   H         1 RES1   0.0000
   212 C73      -4.3332   -0.4252   -7.7671   C.3       1 RES1   0.0000
   213 C74      -5.3566   -0.4581   -6.6370   C.3       1 RES1   0.0000
   214 C75      -6.7213   -0.0789   -7.2125   C.3       1 RES1   0.0000
   215 C76      -5.4548   -1.8356   -5.9713   C.3       1 RES1   0.0000
   216 C77      -4.3930   -2.1768   -4.9227   C.3       1 RES1   0.0000
   217 C78      -3.0182   -2.5789   -5.4497   C.3       1 RES1   0.0000
   218 C79      -2.1815   -3.3673   -4.4361   C.3       1 RES1   0.0000
   219 C80      -1.4174   -2.5452   -3.3938   C.3       1 RES1   0.0000
   220 P4       -2.3929   -1.4292   -2.2838   P.3       1 RES1   0.0000
   221 O7       -1.8105   -1.1466   -0.9373   O.2       1 RES1   0.0000
   222 C81      -2.3249    0.2273   -3.1908   C.3       1 RES1   0.0000
   223 C82      -0.8417    0.5371   -3.3548   C.2       1 RES1   0.0000
   224 O8       -0.0856    0.4222   -2.3628   O.2       1 RES1   0.0000
   225 N4       -0.3140    0.9133   -4.5303   N.am      1 RES1   0.0000
   226 C83      -1.1273    1.2394   -5.7076   C.3       1 RES1   0.0000
   227 C84      -0.5916    2.1641   -6.8314   C.3       1 RES1   0.0000
   228 C85      -0.1205    3.5581   -6.4111   C.3       1 RES1   0.0000
   229 C86       0.4271    1.5327   -7.7843   C.3       1 RES1   0.0000
   230 C87       1.1404    1.0091   -4.5778   C.3       1 RES1   0.0000
   231 C88       1.8512   -0.3550   -4.5910   C.3       1 RES1   0.0000
   232 C89       1.4463   -1.1657   -5.8183   C.3       1 RES1   0.0000
   233 C90       3.3639   -0.1360   -4.6056   C.3       1 RES1   0.0000
   234 C91      -3.9100   -2.3725   -1.8580   C.ar      1 RES1   0.0000
   235 C92      -3.5181   -3.6036   -1.3303   C.ar      1 RES1   0.0000
   236 C93      -4.4570   -4.4883   -0.8363   C.ar      1 RES1   0.0000
   237 C94      -5.8025   -4.1552   -0.8516   C.ar      1 RES1   0.0000
   238 C95      -6.1855   -2.9259   -1.3605   C.ar      1 RES1   0.0000
   239 C96      -5.2507   -2.0257   -1.8626   C.ar      1 RES1   0.0000
   240 H127     -4.3378    0.5446   -8.2591   H         1 RES1   0.0000
   241 H128     -4.5879   -1.1743   -8.5114   H         1 RES1   0.0000
   242 H129     -3.3240   -0.6254   -7.4213   H         1 RES1   0.0000
   243 H130     -5.0823    0.2810   -5.8720   H         1 RES1   0.0000
   244 H131     -7.0308   -0.8142   -7.9511   H         1 RES1   0.0000
   245 H132     -6.6826    0.8914   -7.7018   H         1 RES1   0.0000
   246 H133     -7.4816   -0.0372   -6.4367   H         1 RES1   0.0000
   247 H134     -5.4643   -2.6074   -6.7402   H         1 RES1   0.0000
   248 H135     -6.4181   -1.8829   -5.4586   H         1 RES1   0.0000
   249 H136     -4.7796   -3.0231   -4.3518   H         1 RES1   0.0000
   250 H137     -4.3046   -1.3350   -4.2351   H         1 RES1   0.0000
   251 H138     -2.4486   -1.7094   -5.7778   H         1 RES1   0.0000
   252 H139     -3.1720   -3.2140   -6.3226   H         1 RES1   0.0000
   253 H140     -1.4225   -3.9316   -4.9829   H         1 RES1   0.0000
   254 H141     -2.8222   -4.0976   -3.9389   H         1 RES1   0.0000
   255 H142     -0.6756   -1.9176   -3.8924   H         1 RES1   0.0000
   256 H143     -0.8672   -3.2238   -2.7379   H         1 RES1   0.0000
   257 H144     -2.7528    0.9427   -2.4770   H         1 RES1   0.0000
   258 H145     -2.8792    0.2264   -4.1241   H         1 RES1   0.0000
   259 H146     -2.0231    1.7273   -5.3231   H         1 RES1   0.0000
   260 H147     -1.4293    0.3056   -6.1985   H         1 RES1   0.0000
   261 H148     -1.4959    2.3165   -7.4341   H         1 RES1   0.0000
   262 H149      0.7198    3.5502   -5.7199   H         1 RES1   0.0000
   263 H150     -0.9306    4.1309   -5.9691   H         1 RES1   0.0000
   264 H151      0.1940    4.0925   -7.3052   H         1 RES1   0.0000
   265 H152      1.4376    1.5016   -7.3846   H         1 RES1   0.0000
   266 H153      0.4718    2.1244   -8.6959   H         1 RES1   0.0000
   267 H154      0.1272    0.5280   -8.0673   H         1 RES1   0.0000
   268 H155      1.4616    1.5903   -3.7067   H         1 RES1   0.0000
   269 H156      1.4136    1.5533   -5.4713   H         1 RES1   0.0000
   270 H157      1.5690   -0.9125   -3.6883   H         1 RES1   0.0000
   271 H158      1.7757   -0.6700   -6.7260   H         1 RES1   0.0000
   272 H159      0.3695   -1.3009   -5.8732   H         1 RES1   0.0000
   273 H160      1.9054   -2.1493   -5.7943   H         1 RES1   0.0000
   274 H161      3.6604    0.3948   -5.5071   H         1 RES1   0.0000
   275 H162      3.8890   -1.0881   -4.6084   H         1 RES1   0.0000
   276 H163      3.7062    0.4433   -3.7495   H         1 RES1   0.0000
   277 H164     -2.4639   -3.8526   -1.3031   H         1 RES1   0.0000
   278 H165     -4.1400   -5.4339   -0.4304   H         1 RES1   0.0000
   279 H166     -6.5477   -4.8467   -0.4836   H         1 RES1   0.0000
   280 H167     -7.2317   -2.6681   -1.3631   H         1 RES1   0.0000
   281 H168     -5.5741   -1.0756   -2.2690   H         1 RES1   0.0000
   282 O9        1.7793    1.6877   -0.9045   O.3       1 RES1   0.0000
   283 H169      1.2164    1.8192   -1.6861   H         1 RES1   0.0000
   284 H170      2.6060    1.3103   -1.2327   H         1 RES1   0.0000
@<TRIPOS>BOND
     1     1    11    1
     2     1    14    1
     3     1    81    1
     4     1    84    1
     5     1   151    1
     6     1   154    1
     7     1   221    1
     8     1   224    1
     9     1   282    1
    10     2     3    1
    11     2    30    1
    12     2    31    1
    13     2    32    1
    14     3     4    1
    15     3     5    1
    16     3    33    1
    17     4    34    1
    18     4    35    1
    19     4    36    1
    20     5     6    1
    21     5    37    1
    22     5    38    1
    23     6     7    1
    24     6    39    1
    25     6    40    1
    26     7     8    1
    27     7    41    1
    28     7    42    1
    29     8     9    1
    30     8    43    1
    31     8    44    1
    32     9    10    1
    33     9    45    1
    34     9    46    1
    35    10    11    2
    36    10    12    1
    37    10    24    1
    38    12    13    1
    39    12    47    1
    40    12    48    1
    41    13    14    2
    42    13    15    1
    43    15    16    1
    44    15    20    1
    45    16    17    1
    46    16    49    1
    47    16    50    1
    48    17    18    1
    49    17    19    1
    50    17    51    1
    51    18    52    1
    52    18    53    1
    53    18    54    1
    54    19    55    1
    55    19    56    1
    56    19    57    1
    57    20    21    1
    58    20    58    1
    59    20    59    1
    60    21    22    1
    61    21    23    1
    62    21    60    1
    63    22    61    1
    64    22    62    1
    65    22    63    1
    66    23    64    1
    67    23    65    1
    68    23    66    1
    69    24    25    1
    70    24    29    2
    71    25    26    2
    72    25    67    1
    73    26    27    1
    74    26    68    1
    75    27    28    2
    76    27    69    1
    77    28    29    1
    78    28    70    1
    79    29    71    1
    80    72    73    1
    81    72   100    1
    82    72   101    1
    83    72   102    1
    84    73    74    1
    85    73    75    1
    86    73   103    1
    87    74   104    1
    88    74   105    1
    89    74   106    1
    90    75    76    1
    91    75   107    1
    92    75   108    1
    93    76    77    1
    94    76   109    1
    95    76   110    1
    96    77    78    1
    97    77   111    1
    98    77   112    1
    99    78    79    1
   100    78   113    1
   101    78   114    1
   102    79    80    1
   103    79   115    1
   104    79   116    1
   105    80    81    2
   106    80    82    1
   107    80    94    1
   108    82    83    1
   109    82   117    1
   110    82   118    1
   111    83    84    2
   112    83    85    1
   113    85    86    1
   114    85    90    1
   115    86    87    1
   116    86   119    1
   117    86   120    1
   118    87    88    1
   119    87    89    1
   120    87   121    1
   121    88   122    1
   122    88   123    1
   123    88   124    1
   124    89   125    1
   125    89   126    1
   126    89   127    1
   127    90    91    1
   128    90   128    1
   129    90   129    1
   130    91    92    1
   131    91    93    1
   132    91   130    1
   133    92   131    1
   134    92   132    1
   135    92   133    1
   136    93   134    1
   137    93   135    1
   138    93   136    1
   139    94    95    1
   140    94    99    2
   141    95    96    2
   142    95   137    1
   143    96    97    1
   144    96   138    1
   145    97    98    2
   146    97   139    1
   147    98    99    1
   148    98   140    1
   149    99   141    1
   150   142   143    1
   151   142   170    1
   152   142   171    1
   153   142   172    1
   154   143   144    1
   155   143   145    1
   156   143   173    1
   157   144   174    1
   158   144   175    1
   159   144   176    1
   160   145   146    1
   161   145   177    1
   162   145   178    1
   163   146   147    1
   164   146   179    1
   165   146   180    1
   166   147   148    1
   167   147   181    1
   168   147   182    1
   169   148   149    1
   170   148   183    1
   171   148   184    1
   172   149   150    1
   173   149   185    1
   174   149   186    1
   175   150   151    2
   176   150   152    1
   177   150   164    1
   178   152   153    1
   179   152   187    1
   180   152   188    1
   181   153   154    2
   182   153   155    1
   183   155   156    1
   184   155   160    1
   185   156   157    1
   186   156   189    1
   187   156   190    1
   188   157   158    1
   189   157   159    1
   190   157   191    1
   191   158   192    1
   192   158   193    1
   193   158   194    1
   194   159   195    1
   195   159   196    1
   196   159   197    1
   197   160   161    1
   198   160   198    1
   199   160   199    1
   200   161   162    1
   201   161   163    1
   202   161   200    1
   203   162   201    1
   204   162   202    1
   205   162   203    1
   206   163   204    1
   207   163   205    1
   208   163   206    1
   209   164   165    1
   210   164   169    2
   211   165   166    2
   212   165   207    1
   213   166   167    1
   214   166   208    1
   215   167   168    2
   216   167   209    1
   217   168   169    1
   218   168   210    1
   219   169   211    1
   220   212   213    1
   221   212   240    1
   222   212   241    1
   223   212   242    1
   224   213   214    1
   225   213   215    1
   226   213   243    1
   227   214   244    1
   228   214   245    1
   229   214   246    1
   230   215   216    1
   231   215   247    1
   232   215   248    1
   233   216   217    1
   234   216   249    1
   235   216   250    1
   236   217   218    1
   237   217   251    1
   238   217   252    1
   239   218   219    1
   240   218   253    1
   241   218   254    1
   242   219   220    1
   243   219   255    1
   244   219   256    1
   245   220   221    2
   246   220   222    1
   247   220   234    1
   248   222   223    1
   249   222   257    1
   250   222   258    1
   251   223   224    2
   252   223   225    1
   253   225   226    1
   254   225   230    1
   255   226   227    1
   256   226   259    1
   257   226   260    1
   258   227   228    1
   259   227   229    1
   260   227   261    1
   261   228   262    1
   262   228   263    1
   263   228   264    1
   264   229   265    1
   265   229   266    1
   266   229   267    1
   267   230   231    1
   268   230   268    1
   269   230   269    1
   270   231   232    1
   271   231   233    1
   272   231   270    1
   273   232   271    1
   274   232   272    1
   275   232   273    1
   276   233   274    1
   277   233   275    1
   278   233   276    1
   279   234   235    1
   280   234   239    2
   281   235   236    2
   282   235   277    1
   283   236   237    1
   284   236   278    1
   285   237   238    2
   286   237   279    1
   287   238   239    1
   288   238   280    1
   289   239   281    1
   290   282   283    1
   291   282   284    1
@<TRIPOS>SUBSTRUCTURE
     1 RES1      284 GROUP             0 ****  ****    0  
