@<TRIPOS>MOLECULE
am_c3_9H2O_c0_0_nunpairedes_0_charge_3 Charge: 3 Unpaired_Electrons: 6 XTB_Unpaired_Electrons: 0 XTB_Charge: 3
   289   297     1     0     0
SMALL
NoCharges
****
Generated from Architector

@<TRIPOS>ATOM
     1 Eu1      -0.0289   -0.3225    0.1291   Eu        1 RES1   0.0000
     2 C1        0.0750   -3.2817   -5.9386   C.3       1 RES1   0.0000
     3 C2       -0.8748   -2.1158   -6.1898   C.3       1 RES1   0.0000
     4 C3       -1.2304   -1.3660   -4.9031   C.3       1 RES1   0.0000
     5 C4       -1.9232   -2.2895   -3.8941   C.3       1 RES1   0.0000
     6 N1       -2.8731   -1.6019   -3.0231   N.am      1 RES1   0.0000
     7 C5       -4.2655   -1.5555   -3.4586   C.3       1 RES1   0.0000
     8 C6       -4.8744   -0.1747   -3.7301   C.3       1 RES1   0.0000
     9 C7       -4.1650    0.6394   -4.8131   C.3       1 RES1   0.0000
    10 C8       -4.9624    1.8888   -5.1782   C.3       1 RES1   0.0000
    11 C9       -2.4288   -1.2081   -1.8378   C.2       1 RES1   0.0000
    12 O1       -1.2282   -1.3087   -1.5115   O.2       1 RES1   0.0000
    13 C10      -3.4201   -0.6448   -0.8296   C.3       1 RES1   0.0000
    14 O2       -2.7619   -0.4988    0.4231   O.3       1 RES1   0.0000
    15 C11      -3.5392    0.2770    1.3469   C.3       1 RES1   0.0000
    16 C12      -2.8834    1.6471    1.4886   C.2       1 RES1   0.0000
    17 O3       -1.6431    1.6474    1.4460   O.2       1 RES1   0.0000
    18 N2       -3.6724    2.6930    1.6576   N.am      1 RES1   0.0000
    19 C13      -3.2204    4.0271    2.0371   C.3       1 RES1   0.0000
    20 C14      -3.3698    5.1388    1.0260   C.ar      1 RES1   0.0000
    21 C15      -4.6172    5.5344    0.5648   C.ar      1 RES1   0.0000
    22 C16      -4.7186    6.5954   -0.3179   C.ar      1 RES1   0.0000
    23 C17      -3.5893    7.2870   -0.7204   C.ar      1 RES1   0.0000
    24 C18      -2.3382    6.9424   -0.2257   C.ar      1 RES1   0.0000
    25 C19      -1.1149    7.7459   -0.6082   C.3       1 RES1   0.0000
    26 N3       -0.0021    6.8954   -0.9966   N.am      1 RES1   0.0000
    27 C20      -0.1033    6.0531   -2.0329   C.2       1 RES1   0.0000
    28 O4       -1.1256    5.8703   -2.6627   O.2       1 RES1   0.0000
    29 C21       1.1798    5.3039   -2.3787   C.3       1 RES1   0.0000
    30 O5        2.0763    5.2641   -1.2877   O.3       1 RES1   0.0000
    31 C22       3.3356    4.7555   -1.6937   C.3       1 RES1   0.0000
    32 C23       4.2247    4.3748   -0.5038   C.2       1 RES1   0.0000
    33 O6        4.2881    3.1881   -0.1983   O.2       1 RES1   0.0000
    34 N4        4.9346    5.3330    0.0978   N.am      1 RES1   0.0000
    35 C24       4.6891    6.7542   -0.0883   C.3       1 RES1   0.0000
    36 C25       4.5532    7.5016    1.2497   C.3       1 RES1   0.0000
    37 C26       3.2506    8.2910    1.3630   C.3       1 RES1   0.0000
    38 C27       3.2002    9.0084    2.7084   C.3       1 RES1   0.0000
    39 C28       6.0531    4.9295    0.9414   C.3       1 RES1   0.0000
    40 C29       7.4274    5.2665    0.3546   C.3       1 RES1   0.0000
    41 C30       7.8385    4.4081   -0.8472   C.3       1 RES1   0.0000
    42 C31       7.3249    4.9319   -2.1855   C.3       1 RES1   0.0000
    43 C32      -2.2405    5.8596    0.6444   C.ar      1 RES1   0.0000
    44 H1        0.3416   -3.7590   -6.8779   H         1 RES1   0.0000
    45 H2       -0.3894   -4.0311   -5.3010   H         1 RES1   0.0000
    46 H3        0.9870   -2.9318   -5.4572   H         1 RES1   0.0000
    47 H4       -1.7894   -2.4912   -6.6565   H         1 RES1   0.0000
    48 H5       -0.4145   -1.4151   -6.8894   H         1 RES1   0.0000
    49 H6       -1.9013   -0.5482   -5.1596   H         1 RES1   0.0000
    50 H7       -0.3292   -0.9371   -4.4581   H         1 RES1   0.0000
    51 H8       -1.1895   -2.7711   -3.2431   H         1 RES1   0.0000
    52 H9       -2.4751   -3.0599   -4.4335   H         1 RES1   0.0000
    53 H10      -4.8877   -2.0746   -2.7233   H         1 RES1   0.0000
    54 H11      -4.3163   -2.1241   -4.3875   H         1 RES1   0.0000
    55 H12      -4.9310    0.4223   -2.8202   H         1 RES1   0.0000
    56 H13      -5.9002   -0.3599   -4.0558   H         1 RES1   0.0000
    57 H14      -4.0333    0.0260   -5.7087   H         1 RES1   0.0000
    58 H15      -3.1825    0.9552   -4.4541   H         1 RES1   0.0000
    59 H16      -5.9430    1.6144   -5.5605   H         1 RES1   0.0000
    60 H17      -4.4398    2.4578   -5.9439   H         1 RES1   0.0000
    61 H18      -5.0902    2.5330   -4.3099   H         1 RES1   0.0000
    62 H19      -4.2821   -1.3203   -0.7202   H         1 RES1   0.0000
    63 H20      -3.7853    0.3274   -1.1837   H         1 RES1   0.0000
    64 H21      -3.4789   -0.2173    2.3224   H         1 RES1   0.0000
    65 H22      -4.5855    0.3223    1.0513   H         1 RES1   0.0000
    66 H23      -4.6896    2.5471    1.7110   H         1 RES1   0.0000
    67 H24      -2.1695    3.9546    2.3243   H         1 RES1   0.0000
    68 H25      -3.8365    4.3015    2.8974   H         1 RES1   0.0000
    69 H26      -5.5044    5.0335    0.9178   H         1 RES1   0.0000
    70 H27      -5.6853    6.9058   -0.6788   H         1 RES1   0.0000
    71 H28      -3.6834    8.1159   -1.4050   H         1 RES1   0.0000
    72 H29      -0.7862    8.3713    0.2265   H         1 RES1   0.0000
    73 H30      -1.3801    8.3981   -1.4458   H         1 RES1   0.0000
    74 H31       0.8856    6.9885   -0.5281   H         1 RES1   0.0000
    75 H32       1.6348    5.8181   -3.2406   H         1 RES1   0.0000
    76 H33       0.9126    4.2855   -2.7034   H         1 RES1   0.0000
    77 H34       3.8423    5.4849   -2.3421   H         1 RES1   0.0000
    78 H35       3.1889    3.8223   -2.2585   H         1 RES1   0.0000
    79 H36       3.7564    6.8675   -0.6403   H         1 RES1   0.0000
    80 H37       5.4974    7.1839   -0.6862   H         1 RES1   0.0000
    81 H38       5.3960    8.1775    1.3894   H         1 RES1   0.0000
    82 H39       4.5708    6.7887    2.0761   H         1 RES1   0.0000
    83 H40       2.4081    7.5941    1.2820   H         1 RES1   0.0000
    84 H41       3.1721    9.0245    0.5566   H         1 RES1   0.0000
    85 H42       3.9922    9.7519    2.7664   H         1 RES1   0.0000
    86 H43       2.2449    9.5051    2.8607   H         1 RES1   0.0000
    87 H44       3.3501    8.3000    3.5223   H         1 RES1   0.0000
    88 H45       5.9707    3.8503    1.0770   H         1 RES1   0.0000
    89 H46       5.9715    5.4060    1.9185   H         1 RES1   0.0000
    90 H47       8.1488    5.1072    1.1571   H         1 RES1   0.0000
    91 H48       7.4774    6.3220    0.0840   H         1 RES1   0.0000
    92 H49       7.5003    3.3795   -0.6936   H         1 RES1   0.0000
    93 H50       8.9286    4.3838   -0.9086   H         1 RES1   0.0000
    94 H51       6.2441    5.0527   -2.1823   H         1 RES1   0.0000
    95 H52       7.5885    4.2349   -2.9788   H         1 RES1   0.0000
    96 H53       7.7808    5.8939   -2.4127   H         1 RES1   0.0000
    97 H54      -1.2825    5.6113    1.0902   H         1 RES1   0.0000
    98 C33      -2.0876   -3.5725    4.6170   C.3       1 RES1   0.0000
    99 C34      -2.4960   -2.1216    4.8427   C.3       1 RES1   0.0000
   100 C35      -1.5584   -1.1311    4.1417   C.3       1 RES1   0.0000
   101 C36      -0.1925   -1.1898    4.8118   C.3       1 RES1   0.0000
   102 N5        0.7445   -0.1069    4.4910   N.am      1 RES1   0.0000
   103 C37       1.8874   -0.2261    5.4296   C.3       1 RES1   0.0000
   104 C38       2.8724    0.8979    5.7407   C.3       1 RES1   0.0000
   105 C39       3.3257    0.7254    7.2047   C.3       1 RES1   0.0000
   106 C40       4.4874    1.6350    7.5943   C.3       1 RES1   0.0000
   107 C41       0.7067    0.3075    3.2054   C.2       1 RES1   0.0000
   108 O7        0.3068   -0.4676    2.3106   O.2       1 RES1   0.0000
   109 C42       0.9002    1.7406    2.7865   C.3       1 RES1   0.0000
   110 O8        1.0225    1.7682    1.3453   O.3       1 RES1   0.0000
   111 C43       0.5391    2.9457    0.6682   C.3       1 RES1   0.0000
   112 C44      -0.4821    2.5653   -0.4287   C.2       1 RES1   0.0000
   113 O9       -0.3643    1.4438   -0.9662   O.2       1 RES1   0.0000
   114 N6       -1.4079    3.4037   -0.8733   N.am      1 RES1   0.0000
   115 C45      -2.2751    3.0132   -1.9930   C.3       1 RES1   0.0000
   116 C46      -3.6861    3.5558   -1.9764   C.ar      1 RES1   0.0000
   117 C47      -3.9611    4.6671   -2.7630   C.ar      1 RES1   0.0000
   118 C48      -5.2628    5.1147   -2.9115   C.ar      1 RES1   0.0000
   119 C49      -6.2987    4.4715   -2.2623   C.ar      1 RES1   0.0000
   120 C50      -6.0456    3.3829   -1.4328   C.ar      1 RES1   0.0000
   121 C51      -7.2234    2.8607   -0.6363   C.3       1 RES1   0.0000
   122 N7       -7.1692    1.5024   -0.1333   N.am      1 RES1   0.0000
   123 C52      -6.8624    1.2536    1.1448   C.2       1 RES1   0.0000
   124 O10      -6.3510    2.1041    1.8631   O.2       1 RES1   0.0000
   125 C53      -7.1284   -0.1654    1.6475   C.3       1 RES1   0.0000
   126 O11      -6.2596   -1.0636    0.9695   O.3       1 RES1   0.0000
   127 C54      -5.7191   -2.1141    1.7578   C.3       1 RES1   0.0000
   128 C55      -6.4459   -3.4710    1.8184   C.2       1 RES1   0.0000
   129 O12      -6.6839   -3.9246    2.9193   O.2       1 RES1   0.0000
   130 N8       -6.6467   -4.1574    0.6758   N.am      1 RES1   0.0000
   131 C56      -6.2893   -3.6685   -0.6343   C.3       1 RES1   0.0000
   132 C57      -7.4679   -3.3704   -1.5727   C.3       1 RES1   0.0000
   133 C58      -8.1157   -2.0056   -1.3477   C.3       1 RES1   0.0000
   134 C59      -9.1550   -1.7122   -2.4254   C.3       1 RES1   0.0000
   135 C60      -6.8808   -5.5920    0.8129   C.3       1 RES1   0.0000
   136 C61      -8.2994   -6.1061    0.5771   C.3       1 RES1   0.0000
   137 C62      -9.3159   -5.6714    1.6310   C.3       1 RES1   0.0000
   138 C63      -9.7393   -4.2102    1.5197   C.3       1 RES1   0.0000
   139 C64      -4.7394    2.9263   -1.3115   C.ar      1 RES1   0.0000
   140 H55      -2.8290   -4.2220    5.0675   H         1 RES1   0.0000
   141 H56      -1.1351   -3.7883    5.0900   H         1 RES1   0.0000
   142 H57      -2.0014   -3.8044    3.5583   H         1 RES1   0.0000
   143 H58      -2.5010   -1.9181    5.9169   H         1 RES1   0.0000
   144 H59      -3.5205   -1.9782    4.4909   H         1 RES1   0.0000
   145 H60      -1.9350   -0.1082    4.2407   H         1 RES1   0.0000
   146 H61      -1.4997   -1.3841    3.0786   H         1 RES1   0.0000
   147 H62       0.2716   -2.1642    4.6530   H         1 RES1   0.0000
   148 H63      -0.3735   -1.1061    5.8832   H         1 RES1   0.0000
   149 H64       2.4725   -1.1000    5.1032   H         1 RES1   0.0000
   150 H65       1.4163   -0.4806    6.3795   H         1 RES1   0.0000
   151 H66       2.4158    1.8719    5.5998   H         1 RES1   0.0000
   152 H67       3.7376    0.8383    5.0885   H         1 RES1   0.0000
   153 H68       3.6038   -0.3191    7.3795   H         1 RES1   0.0000
   154 H69       2.4744    0.9476    7.8512   H         1 RES1   0.0000
   155 H70       5.4071    1.3300    7.1015   H         1 RES1   0.0000
   156 H71       4.6561    1.5934    8.6707   H         1 RES1   0.0000
   157 H72       4.2715    2.6626    7.3107   H         1 RES1   0.0000
   158 H73       1.7496    2.2147    3.2836   H         1 RES1   0.0000
   159 H74      -0.0118    2.2689    3.0995   H         1 RES1   0.0000
   160 H75       1.3940    3.3814    0.1289   H         1 RES1   0.0000
   161 H76       0.1350    3.6694    1.3777   H         1 RES1   0.0000
   162 H77      -1.5305    4.3430   -0.5016   H         1 RES1   0.0000
   163 H78      -2.2741    1.9187   -2.0008   H         1 RES1   0.0000
   164 H79      -1.8109    3.3513   -2.9263   H         1 RES1   0.0000
   165 H80      -3.1489    5.1719   -3.2595   H         1 RES1   0.0000
   166 H81      -5.4651    5.9594   -3.5505   H         1 RES1   0.0000
   167 H82      -7.3141    4.8192   -2.3833   H         1 RES1   0.0000
   168 H83      -8.1300    2.9825   -1.2330   H         1 RES1   0.0000
   169 H84      -7.3161    3.5109    0.2416   H         1 RES1   0.0000
   170 H85      -7.6040    0.7811   -0.6867   H         1 RES1   0.0000
   171 H86      -8.1760   -0.4326    1.4714   H         1 RES1   0.0000
   172 H87      -6.9378   -0.1808    2.7255   H         1 RES1   0.0000
   173 H88      -5.6170   -1.8004    2.8031   H         1 RES1   0.0000
   174 H89      -4.7099   -2.3202    1.3732   H         1 RES1   0.0000
   175 H90      -5.6467   -4.4236   -1.1071   H         1 RES1   0.0000
   176 H91      -5.7211   -2.7476   -0.5095   H         1 RES1   0.0000
   177 H92      -8.2227   -4.1432   -1.4575   H         1 RES1   0.0000
   178 H93      -7.1026   -3.4183   -2.6021   H         1 RES1   0.0000
   179 H94      -7.3389   -1.2332   -1.3617   H         1 RES1   0.0000
   180 H95      -8.5908   -1.9899   -0.3664   H         1 RES1   0.0000
   181 H96      -8.7022   -1.7600   -3.4152   H         1 RES1   0.0000
   182 H97      -9.6104   -0.7317   -2.2947   H         1 RES1   0.0000
   183 H98      -9.9546   -2.4467   -2.3875   H         1 RES1   0.0000
   184 H99      -6.5905   -5.8537    1.8339   H         1 RES1   0.0000
   185 H100     -6.2074   -6.0895    0.1084   H         1 RES1   0.0000
   186 H101     -8.2385   -7.1968    0.5931   H         1 RES1   0.0000
   187 H102     -8.6558   -5.8263   -0.4145   H         1 RES1   0.0000
   188 H103     -8.9041   -5.8558    2.6251   H         1 RES1   0.0000
   189 H104    -10.2054   -6.2915    1.5093   H         1 RES1   0.0000
   190 H105     -8.9498   -3.5451    1.8589   H         1 RES1   0.0000
   191 H106    -10.6151   -4.0363    2.1403   H         1 RES1   0.0000
   192 H107    -10.0024   -3.9623    0.4916   H         1 RES1   0.0000
   193 H108     -4.5432    2.0709   -0.6812   H         1 RES1   0.0000
   194 C65       2.5997   -0.5595   -6.8527   C.3       1 RES1   0.0000
   195 C66       3.6427   -1.6543   -6.6832   C.3       1 RES1   0.0000
   196 C67       4.6003   -1.4103   -5.5164   C.3       1 RES1   0.0000
   197 C68       3.9668   -1.6174   -4.1364   C.3       1 RES1   0.0000
   198 N9        3.2323   -0.5012   -3.5218   N.am      1 RES1   0.0000
   199 C69       3.6024    0.8659   -3.8636   C.3       1 RES1   0.0000
   200 C70       5.0115    1.2439   -3.3795   C.3       1 RES1   0.0000
   201 C71       5.8422    1.9908   -4.4263   C.3       1 RES1   0.0000
   202 C72       5.1676    3.2561   -4.9372   C.3       1 RES1   0.0000
   203 C73       2.4162   -0.7353   -2.4990   C.2       1 RES1   0.0000
   204 O13       1.8511    0.1171   -1.7934   O.2       1 RES1   0.0000
   205 C74       2.1795   -2.2049   -2.1281   C.3       1 RES1   0.0000
   206 O14       1.5489   -2.1670   -0.8605   O.3       1 RES1   0.0000
   207 C75       1.8734   -3.2849   -0.0552   C.3       1 RES1   0.0000
   208 C76       1.0651   -3.0003    1.1993   C.2       1 RES1   0.0000
   209 O15      -0.0945   -2.5820    1.0538   O.2       1 RES1   0.0000
   210 N10       1.6439   -3.1318    2.3805   N.am      1 RES1   0.0000
   211 C77       3.0141   -3.4811    2.7005   C.3       1 RES1   0.0000
   212 C78       3.9638   -2.3036    2.9214   C.ar      1 RES1   0.0000
   213 C79       5.1443   -2.6141    3.5964   C.ar      1 RES1   0.0000
   214 C80       6.0334   -1.6188    3.9496   C.ar      1 RES1   0.0000
   215 C81       5.7731   -0.3136    3.5815   C.ar      1 RES1   0.0000
   216 C82       4.6788    0.0106    2.7835   C.ar      1 RES1   0.0000
   217 C83       4.7112    1.4070    2.1816   C.3       1 RES1   0.0000
   218 N11       3.8481    2.4326    2.7654   N.am      1 RES1   0.0000
   219 C84       4.3161    3.2420    3.7554   C.2       1 RES1   0.0000
   220 O16       5.4012    3.0952    4.2641   O.2       1 RES1   0.0000
   221 C85       3.3631    4.3570    4.2498   C.3       1 RES1   0.0000
   222 O17       2.0966    3.8087    4.5738   O.3       1 RES1   0.0000
   223 C86       1.2040    4.6011    5.3509   C.3       1 RES1   0.0000
   224 C87      -0.2031    4.1930    4.9206   C.2       1 RES1   0.0000
   225 O18      -0.4797    4.3131    3.7265   O.2       1 RES1   0.0000
   226 N12      -1.0890    3.7105    5.8072   N.am      1 RES1   0.0000
   227 C88      -0.8046    3.2077    7.1528   C.3       1 RES1   0.0000
   228 C89      -1.7348    2.0363    7.5089   C.3       1 RES1   0.0000
   229 C90      -1.3793    1.2639    8.7771   C.3       1 RES1   0.0000
   230 C91      -2.4876    0.2567    9.0830   C.3       1 RES1   0.0000
   231 C92      -2.4741    3.6263    5.3612   C.3       1 RES1   0.0000
   232 C93      -3.4204    4.5642    6.1189   C.3       1 RES1   0.0000
   233 C94      -3.3678    5.9949    5.5846   C.3       1 RES1   0.0000
   234 C95      -4.1094    6.9729    6.4843   C.3       1 RES1   0.0000
   235 C96       3.7511   -0.9961    2.4851   C.ar      1 RES1   0.0000
   236 H109      1.9694   -0.7854   -7.7064   H         1 RES1   0.0000
   237 H110      3.0891    0.3932   -7.0428   H         1 RES1   0.0000
   238 H111      1.9664   -0.4753   -5.9719   H         1 RES1   0.0000
   239 H112      4.2331   -1.7219   -7.5968   H         1 RES1   0.0000
   240 H113      3.1562   -2.6222   -6.5445   H         1 RES1   0.0000
   241 H114      5.0573   -0.4291   -5.6041   H         1 RES1   0.0000
   242 H115      5.4040   -2.1483   -5.5764   H         1 RES1   0.0000
   243 H116      4.7598   -1.9180   -3.4381   H         1 RES1   0.0000
   244 H117      3.2789   -2.4576   -4.2445   H         1 RES1   0.0000
   245 H118      2.8480    1.5076   -3.4093   H         1 RES1   0.0000
   246 H119      3.5435    0.9720   -4.9434   H         1 RES1   0.0000
   247 H120      5.5506    0.3386   -3.1014   H         1 RES1   0.0000
   248 H121      4.9233    1.8563   -2.4833   H         1 RES1   0.0000
   249 H122      6.0608    1.3360   -5.2726   H         1 RES1   0.0000
   250 H123      6.7942    2.2563   -3.9635   H         1 RES1   0.0000
   251 H124      4.2834    3.0199   -5.5244   H         1 RES1   0.0000
   252 H125      5.8484    3.8102   -5.5762   H         1 RES1   0.0000
   253 H126      4.8873    3.8943   -4.1032   H         1 RES1   0.0000
   254 H127      3.1412   -2.7280   -2.0621   H         1 RES1   0.0000
   255 H128      1.5305   -2.7061   -2.8631   H         1 RES1   0.0000
   256 H129      2.9561   -3.3315    0.1209   H         1 RES1   0.0000
   257 H130      1.5454   -4.2264   -0.5193   H         1 RES1   0.0000
   258 H131      1.0665   -2.8430    3.1649   H         1 RES1   0.0000
   259 H132      3.4223   -4.1638    1.9475   H         1 RES1   0.0000
   260 H133      2.9897   -4.0473    3.6351   H         1 RES1   0.0000
   261 H134      5.3624   -3.6410    3.8463   H         1 RES1   0.0000
   262 H135      6.9346   -1.8552    4.4921   H         1 RES1   0.0000
   263 H136      6.4580    0.4648    3.8754   H         1 RES1   0.0000
   264 H137      4.4942    1.3633    1.1128   H         1 RES1   0.0000
   265 H138      5.7412    1.7633    2.3074   H         1 RES1   0.0000
   266 H139      3.1565    2.8022    2.1348   H         1 RES1   0.0000
   267 H140      3.2565    5.1288    3.4748   H         1 RES1   0.0000
   268 H141      3.8342    4.8124    5.1269   H         1 RES1   0.0000
   269 H142      1.3981    4.4701    6.4183   H         1 RES1   0.0000
   270 H143      1.3017    5.6729    5.1186   H         1 RES1   0.0000
   271 H144     -0.9245    4.0088    7.8893   H         1 RES1   0.0000
   272 H145      0.2341    2.8731    7.1796   H         1 RES1   0.0000
   273 H146     -1.7288    1.3353    6.6708   H         1 RES1   0.0000
   274 H147     -2.7503    2.4105    7.6395   H         1 RES1   0.0000
   275 H148     -1.2707    1.9498    9.6188   H         1 RES1   0.0000
   276 H149     -0.4307    0.7427    8.6423   H         1 RES1   0.0000
   277 H150     -3.4144    0.7795    9.3075   H         1 RES1   0.0000
   278 H151     -2.2182   -0.3498    9.9416   H         1 RES1   0.0000
   279 H152     -2.6791   -0.4114    8.2416   H         1 RES1   0.0000
   280 H153     -2.8156    2.5928    5.4289   H         1 RES1   0.0000
   281 H154     -2.4654    3.9179    4.3180   H         1 RES1   0.0000
   282 H155     -3.1859    4.5785    7.1815   H         1 RES1   0.0000
   283 H156     -4.4356    4.1793    6.0134   H         1 RES1   0.0000
   284 H157     -3.8154    6.0276    4.5904   H         1 RES1   0.0000
   285 H158     -2.3253    6.2999    5.4835   H         1 RES1   0.0000
   286 H159     -5.1270    6.6361    6.6541   H         1 RES1   0.0000
   287 H160     -4.1481    7.9575    6.0281   H         1 RES1   0.0000
   288 H161     -3.6173    7.0619    7.4470   H         1 RES1   0.0000
   289 H162      2.8740   -0.7656    1.8775   H         1 RES1   0.0000
@<TRIPOS>BOND
     1     1    12    1
     2     1    14    1
     3     1    17    1
     4     1   108    1
     5     1   110    1
     6     1   113    1
     7     1   204    1
     8     1   206    1
     9     1   209    1
    10     2     3    1
    11     2    44    1
    12     2    45    1
    13     2    46    1
    14     3     4    1
    15     3    47    1
    16     3    48    1
    17     4     5    1
    18     4    49    1
    19     4    50    1
    20     5     6    1
    21     5    51    1
    22     5    52    1
    23     6     7    1
    24     6    11    1
    25     7     8    1
    26     7    53    1
    27     7    54    1
    28     8     9    1
    29     8    55    1
    30     8    56    1
    31     9    10    1
    32     9    57    1
    33     9    58    1
    34    10    59    1
    35    10    60    1
    36    10    61    1
    37    11    12    2
    38    11    13    1
    39    13    14    1
    40    13    62    1
    41    13    63    1
    42    14    15    1
    43    15    16    1
    44    15    64    1
    45    15    65    1
    46    16    17    2
    47    16    18    1
    48    18    19    1
    49    18    66    1
    50    19    20    1
    51    19    67    1
    52    19    68    1
    53    20    21    1
    54    20    43    2
    55    21    22    2
    56    21    69    1
    57    22    23    1
    58    22    70    1
    59    23    24    2
    60    23    71    1
    61    24    25    1
    62    24    43    1
    63    25    26    1
    64    25    72    1
    65    25    73    1
    66    26    27    1
    67    26    74    1
    68    27    28    2
    69    27    29    1
    70    29    30    1
    71    29    75    1
    72    29    76    1
    73    30    31    1
    74    31    32    1
    75    31    77    1
    76    31    78    1
    77    32    33    2
    78    32    34    1
    79    34    35    1
    80    34    39    1
    81    35    36    1
    82    35    79    1
    83    35    80    1
    84    36    37    1
    85    36    81    1
    86    36    82    1
    87    37    38    1
    88    37    83    1
    89    37    84    1
    90    38    85    1
    91    38    86    1
    92    38    87    1
    93    39    40    1
    94    39    88    1
    95    39    89    1
    96    40    41    1
    97    40    90    1
    98    40    91    1
    99    41    42    1
   100    41    92    1
   101    41    93    1
   102    42    94    1
   103    42    95    1
   104    42    96    1
   105    43    97    1
   106    98    99    1
   107    98   140    1
   108    98   141    1
   109    98   142    1
   110    99   100    1
   111    99   143    1
   112    99   144    1
   113   100   101    1
   114   100   145    1
   115   100   146    1
   116   101   102    1
   117   101   147    1
   118   101   148    1
   119   102   103    1
   120   102   107    1
   121   103   104    1
   122   103   149    1
   123   103   150    1
   124   104   105    1
   125   104   151    1
   126   104   152    1
   127   105   106    1
   128   105   153    1
   129   105   154    1
   130   106   155    1
   131   106   156    1
   132   106   157    1
   133   107   108    2
   134   107   109    1
   135   109   110    1
   136   109   158    1
   137   109   159    1
   138   110   111    1
   139   111   112    1
   140   111   160    1
   141   111   161    1
   142   112   113    2
   143   112   114    1
   144   114   115    1
   145   114   162    1
   146   115   116    1
   147   115   163    1
   148   115   164    1
   149   116   117    1
   150   116   139    2
   151   117   118    2
   152   117   165    1
   153   118   119    1
   154   118   166    1
   155   119   120    2
   156   119   167    1
   157   120   121    1
   158   120   139    1
   159   121   122    1
   160   121   168    1
   161   121   169    1
   162   122   123    1
   163   122   170    1
   164   123   124    2
   165   123   125    1
   166   125   126    1
   167   125   171    1
   168   125   172    1
   169   126   127    1
   170   127   128    1
   171   127   173    1
   172   127   174    1
   173   128   129    2
   174   128   130    1
   175   130   131    1
   176   130   135    1
   177   131   132    1
   178   131   175    1
   179   131   176    1
   180   132   133    1
   181   132   177    1
   182   132   178    1
   183   133   134    1
   184   133   179    1
   185   133   180    1
   186   134   181    1
   187   134   182    1
   188   134   183    1
   189   135   136    1
   190   135   184    1
   191   135   185    1
   192   136   137    1
   193   136   186    1
   194   136   187    1
   195   137   138    1
   196   137   188    1
   197   137   189    1
   198   138   190    1
   199   138   191    1
   200   138   192    1
   201   139   193    1
   202   194   195    1
   203   194   236    1
   204   194   237    1
   205   194   238    1
   206   195   196    1
   207   195   239    1
   208   195   240    1
   209   196   197    1
   210   196   241    1
   211   196   242    1
   212   197   198    1
   213   197   243    1
   214   197   244    1
   215   198   199    1
   216   198   203    1
   217   199   200    1
   218   199   245    1
   219   199   246    1
   220   200   201    1
   221   200   247    1
   222   200   248    1
   223   201   202    1
   224   201   249    1
   225   201   250    1
   226   202   251    1
   227   202   252    1
   228   202   253    1
   229   203   204    2
   230   203   205    1
   231   205   206    1
   232   205   254    1
   233   205   255    1
   234   206   207    1
   235   207   208    1
   236   207   256    1
   237   207   257    1
   238   208   209    2
   239   208   210    1
   240   210   211    1
   241   210   258    1
   242   211   212    1
   243   211   259    1
   244   211   260    1
   245   212   213    1
   246   212   235    2
   247   213   214    2
   248   213   261    1
   249   214   215    1
   250   214   262    1
   251   215   216    2
   252   215   263    1
   253   216   217    1
   254   216   235    1
   255   217   218    1
   256   217   264    1
   257   217   265    1
   258   218   219    1
   259   218   266    1
   260   219   220    2
   261   219   221    1
   262   221   222    1
   263   221   267    1
   264   221   268    1
   265   222   223    1
   266   223   224    1
   267   223   269    1
   268   223   270    1
   269   224   225    2
   270   224   226    1
   271   226   227    1
   272   226   231    1
   273   227   228    1
   274   227   271    1
   275   227   272    1
   276   228   229    1
   277   228   273    1
   278   228   274    1
   279   229   230    1
   280   229   275    1
   281   229   276    1
   282   230   277    1
   283   230   278    1
   284   230   279    1
   285   231   232    1
   286   231   280    1
   287   231   281    1
   288   232   233    1
   289   232   282    1
   290   232   283    1
   291   233   234    1
   292   233   284    1
   293   233   285    1
   294   234   286    1
   295   234   287    1
   296   234   288    1
   297   235   289    1
@<TRIPOS>SUBSTRUCTURE
     1 RES1      289 GROUP             0 ****  ****    0  
