@<TRIPOS>MOLECULE
cn9_YICLED_0_nunpairedes_0_charge_3 Charge: 3 Unpaired_Electrons: 6 XTB_Unpaired_Electrons: 0 XTB_Charge: 3
    72    84     1     0     0
SMALL
NoCharges
****
Generated from Architector

@<TRIPOS>ATOM
     1 Eu1       0.1088   -0.1484    0.6939   Eu        1 RES1   0.0000
     2 C1        1.6964    3.6873   -4.9022   C.3       1 RES1   0.0000
     3 C2        1.5848    2.5157   -3.9494   C.3       1 RES1   0.0000
     4 C3        2.3461    1.2831   -4.4570   C.3       1 RES1   0.0000
     5 S1       -0.2018    1.9808   -3.7171   S.3       1 RES1   0.0000
     6 C4       -0.3272    2.6183   -1.9578   C.3       1 RES1   0.0000
     7 C5       -0.5959    4.1234   -1.9709   C.3       1 RES1   0.0000
     8 C6       -1.4187    1.8390   -1.2193   C.3       1 RES1   0.0000
     9 C7        1.0700    2.2680   -1.5692   C.ar      1 RES1   0.0000
    10 N1        1.4701    1.5447   -0.5189   N.ar      1 RES1   0.0000
    11 C8        2.8364    1.3833   -0.4517   C.ar      1 RES1   0.0000
    12 C9        3.3484    0.0499   -0.0982   C.ar      1 RES1   0.0000
    13 C10       4.6979   -0.2943   -0.0263   C.ar      1 RES1   0.0000
    14 C11       5.0528   -1.6208   -0.2391   C.ar      1 RES1   0.0000
    15 C12       4.0768   -2.5453   -0.6049   C.ar      1 RES1   0.0000
    16 C13       2.7434   -2.1461   -0.5580   C.ar      1 RES1   0.0000
    17 C14       1.5915   -3.0469   -0.7682   C.ar      1 RES1   0.0000
    18 C15       1.5769   -4.2421   -1.4863   C.ar      1 RES1   0.0000
    19 C16       0.4400   -5.0379   -1.4259   C.ar      1 RES1   0.0000
    20 C17      -0.6382   -4.6692   -0.6184   C.ar      1 RES1   0.0000
    21 C18      -0.5696   -3.4312   -0.0042   C.ar      1 RES1   0.0000
    22 C19      -1.3578   -2.7729    1.0760   C.ar      1 RES1   0.0000
    23 N2       -1.7702   -1.5295    0.8293   N.ar      1 RES1   0.0000
    24 N3       -2.1552   -0.7545    1.8625   N.ar      1 RES1   0.0000
    25 C20      -1.9444   -1.1638    3.0990   C.ar      1 RES1   0.0000
    26 C21      -1.0347   -2.2622    3.2449   C.ar      1 RES1   0.0000
    27 N4       -0.9213   -3.1376    2.2863   N.ar      1 RES1   0.0000
    28 C22       0.0868   -2.0039    4.2171   C.3       1 RES1   0.0000
    29 C23       1.4093   -2.0368    3.4322   C.3       1 RES1   0.0000
    30 C24       0.1732   -2.9000    5.4529   C.3       1 RES1   0.0000
    31 S2       -0.2587   -0.1991    4.5996   S.3       1 RES1   0.0000
    32 C25      -2.1330   -0.3476    4.3305   C.3       1 RES1   0.0000
    33 C26      -2.8126   -1.0892    5.4754   C.3       1 RES1   0.0000
    34 C27      -2.7492    1.0229    4.1098   C.3       1 RES1   0.0000
    35 N5        0.5044   -2.6245   -0.1076   N.ar      1 RES1   0.0000
    36 N6        2.3888   -0.8905   -0.2296   N.ar      1 RES1   0.0000
    37 N7        3.6718    2.1940   -1.0756   N.ar      1 RES1   0.0000
    38 N8        3.2773    2.8211   -2.1358   N.ar      1 RES1   0.0000
    39 C28       2.0373    2.6618   -2.5352   C.ar      1 RES1   0.0000
    40 H1        1.4969    3.3387   -5.9134   H         1 RES1   0.0000
    41 H2        2.6989    4.1096   -4.8655   H         1 RES1   0.0000
    42 H3        0.9773    4.4658   -4.6621   H         1 RES1   0.0000
    43 H4        1.9473    0.9825   -5.4246   H         1 RES1   0.0000
    44 H5        2.2431    0.4428   -3.7673   H         1 RES1   0.0000
    45 H6        3.4039    1.5085   -4.5664   H         1 RES1   0.0000
    46 H7       -0.8048    4.4943   -0.9730   H         1 RES1   0.0000
    47 H8       -1.4472    4.3533   -2.6065   H         1 RES1   0.0000
    48 H9        0.2620    4.6741   -2.3501   H         1 RES1   0.0000
    49 H10      -2.3423    1.9107   -1.8025   H         1 RES1   0.0000
    50 H11      -1.6219    2.3003   -0.2453   H         1 RES1   0.0000
    51 H12      -1.1701    0.7400   -1.1532   H         1 RES1   0.0000
    52 H13       5.4484    0.4606    0.1567   H         1 RES1   0.0000
    53 H14       6.0854   -1.9261   -0.1732   H         1 RES1   0.0000
    54 H15       4.3465   -3.5474   -0.8969   H         1 RES1   0.0000
    55 H16       2.4235   -4.5314   -2.0883   H         1 RES1   0.0000
    56 H17       0.4112   -5.9765   -1.9668   H         1 RES1   0.0000
    57 H18      -1.4904   -5.3190   -0.4872   H         1 RES1   0.0000
    58 H19       1.5647   -3.0379    3.0224   H         1 RES1   0.0000
    59 H20       2.2194   -1.7988    4.1219   H         1 RES1   0.0000
    60 H21       1.4251   -1.2740    2.5922   H         1 RES1   0.0000
    61 H22      -0.7027   -3.5304    5.5642   H         1 RES1   0.0000
    62 H23       0.2815   -2.2956    6.3507   H         1 RES1   0.0000
    63 H24       1.0395   -3.5526    5.3737   H         1 RES1   0.0000
    64 H25      -2.4410   -2.1014    5.6164   H         1 RES1   0.0000
    65 H26      -3.8831   -1.1455    5.2743   H         1 RES1   0.0000
    66 H27      -2.6832   -0.5326    6.4042   H         1 RES1   0.0000
    67 H28      -3.4655    0.9771    3.2929   H         1 RES1   0.0000
    68 H29      -1.9835    1.7665    3.9059   H         1 RES1   0.0000
    69 H30      -3.2797    1.3390    5.0028   H         1 RES1   0.0000
    70 O1       -0.2907    2.0171    1.9769   O.3       1 RES1   0.0000
    71 H31       0.3365    2.7572    2.0798   H         1 RES1   0.0000
    72 H32      -1.1436    2.3925    2.2654   H         1 RES1   0.0000
@<TRIPOS>BOND
     1     1     5    1
     2     1    10    1
     3     1    23    1
     4     1    24    1
     5     1    27    1
     6     1    31    1
     7     1    35    1
     8     1    36    1
     9     1    70    1
    10     2     3    1
    11     2    40    1
    12     2    41    1
    13     2    42    1
    14     3     4    1
    15     3     5    1
    16     3    39    1
    17     4    43    1
    18     4    44    1
    19     4    45    1
    20     5     6    1
    21     6     7    1
    22     6     8    1
    23     6     9    1
    24     7    46    1
    25     7    47    1
    26     7    48    1
    27     8    49    1
    28     8    50    1
    29     8    51    1
    30     9    10    1
    31     9    39    2
    32    10    11    2
    33    11    12    1
    34    11    37    1
    35    12    13    1
    36    12    36    2
    37    13    14    2
    38    13    52    1
    39    14    15    1
    40    14    53    1
    41    15    16    2
    42    15    54    1
    43    16    17    1
    44    16    36    1
    45    17    18    1
    46    17    35    2
    47    18    19    2
    48    18    55    1
    49    19    20    1
    50    19    56    1
    51    20    21    2
    52    20    57    1
    53    21    22    1
    54    21    35    1
    55    22    23    1
    56    22    27    2
    57    23    24    2
    58    24    25    1
    59    25    26    2
    60    25    32    1
    61    26    27    1
    62    26    28    1
    63    28    29    1
    64    28    30    1
    65    28    31    1
    66    29    58    1
    67    29    59    1
    68    29    60    1
    69    30    61    1
    70    30    62    1
    71    30    63    1
    72    31    32    1
    73    32    33    1
    74    32    34    1
    75    33    64    1
    76    33    65    1
    77    33    66    1
    78    34    67    1
    79    34    68    1
    80    34    69    1
    81    37    38    2
    82    38    39    1
    83    70    71    1
    84    70    72    1
@<TRIPOS>SUBSTRUCTURE
     1 RES1       72 GROUP             0 ****  ****    0  
