@<TRIPOS>MOLECULE
am_c3_9H2O_c0_0_nunpairedes_0_charge_3 Charge: 3 Unpaired_Electrons: 6 XTB_Unpaired_Electrons: 0 XTB_Charge: 3
   140   159     1     0     0
SMALL
NoCharges
****
Generated from Architector

@<TRIPOS>ATOM
     1 Eu1       0.0503   -0.1016    0.0408   Eu        1 RES1   0.0000
     2 O1        0.7014   -2.3610    0.7911   O.2       1 RES1   0.0000
     3 P1        1.8353   -2.5045    1.7612   P.3       1 RES1   0.0000
     4 C1        3.2284   -3.3468    0.9772   C.ar      1 RES1   0.0000
     5 C2        4.1931   -2.5956    0.3227   C.ar      1 RES1   0.0000
     6 C3        5.2155   -3.2363   -0.3508   C.ar      1 RES1   0.0000
     7 C4        5.2800   -4.6201   -0.3644   C.ar      1 RES1   0.0000
     8 C5        4.2914   -5.3673    0.2571   C.ar      1 RES1   0.0000
     9 C6        3.2547   -4.7355    0.9202   C.ar      1 RES1   0.0000
    10 C7        1.5262   -3.3182    3.3636   C.ar      1 RES1   0.0000
    11 C8        0.3837   -3.0360    4.0980   C.ar      1 RES1   0.0000
    12 C9        0.1852   -3.6124    5.3375   C.ar      1 RES1   0.0000
    13 C10       1.1285   -4.4815    5.8625   C.ar      1 RES1   0.0000
    14 C11       2.2796   -4.7529    5.1399   C.ar      1 RES1   0.0000
    15 C12       2.4877   -4.1667    3.9042   C.ar      1 RES1   0.0000
    16 C13       2.4992   -0.8438    2.2086   C.ar      1 RES1   0.0000
    17 C14       3.5572   -0.7470    3.1255   C.ar      1 RES1   0.0000
    18 C15       4.0918    0.4842    3.4044   C.ar      1 RES1   0.0000
    19 C16       3.5681    1.6211    2.7619   C.ar      1 RES1   0.0000
    20 C17       4.0639    2.9291    3.0260   C.ar      1 RES1   0.0000
    21 C18       3.5226    4.0109    2.4227   C.ar      1 RES1   0.0000
    22 C19       2.4549    3.8634    1.4937   C.ar      1 RES1   0.0000
    23 C20       1.8452    4.9737    0.8844   C.ar      1 RES1   0.0000
    24 C21       0.7729    4.7762    0.0519   C.ar      1 RES1   0.0000
    25 C22       0.3421    3.4673   -0.1968   C.ar      1 RES1   0.0000
    26 P2       -1.0796    3.0524   -1.2759   P.3       1 RES1   0.0000
    27 O2       -1.1220    1.5560   -1.3549   O.2       1 RES1   0.0000
    28 C23      -2.6235    3.7269   -0.5909   C.ar      1 RES1   0.0000
    29 C24      -2.7286    4.2782    0.6783   C.ar      1 RES1   0.0000
    30 C25      -3.9670    4.6802    1.1498   C.ar      1 RES1   0.0000
    31 C26      -5.0967    4.5485    0.3583   C.ar      1 RES1   0.0000
    32 C27      -4.9864    4.0055   -0.9130   C.ar      1 RES1   0.0000
    33 C28      -3.7547    3.5935   -1.3900   C.ar      1 RES1   0.0000
    34 C29      -0.7518    3.8404   -2.8750   C.ar      1 RES1   0.0000
    35 C30      -0.8088    5.2177   -3.0656   C.ar      1 RES1   0.0000
    36 C31      -0.4687    5.7502   -4.2965   C.ar      1 RES1   0.0000
    37 C32      -0.0948    4.9210   -5.3433   C.ar      1 RES1   0.0000
    38 C33      -0.0766    3.5480   -5.1592   C.ar      1 RES1   0.0000
    39 C34      -0.3956    3.0077   -3.9270   C.ar      1 RES1   0.0000
    40 N1        0.9234    2.3964    0.3242   N.ar      1 RES1   0.0000
    41 C35       1.9458    2.5780    1.1830   C.ar      1 RES1   0.0000
    42 C36       2.5047    1.4275    1.8482   C.ar      1 RES1   0.0000
    43 N2        1.9807    0.2082    1.5938   N.ar      1 RES1   0.0000
    44 H1        4.1315   -1.5155    0.3448   H         1 RES1   0.0000
    45 H2        5.9581   -2.6527   -0.8675   H         1 RES1   0.0000
    46 H3        6.0962   -5.1186   -0.8664   H         1 RES1   0.0000
    47 H4        4.3316   -6.4431    0.2086   H         1 RES1   0.0000
    48 H5        2.4689   -5.3066    1.3973   H         1 RES1   0.0000
    49 H6       -0.3462   -2.3621    3.6881   H         1 RES1   0.0000
    50 H7       -0.7044   -3.3773    5.8982   H         1 RES1   0.0000
    51 H8        0.9737   -4.9422    6.8298   H         1 RES1   0.0000
    52 H9        3.0179   -5.4234    5.5491   H         1 RES1   0.0000
    53 H10       3.3926   -4.3745    3.3567   H         1 RES1   0.0000
    54 H11       3.9381   -1.6428    3.5959   H         1 RES1   0.0000
    55 H12       4.9093    0.5921    4.1025   H         1 RES1   0.0000
    56 H13       4.8717    3.0353    3.7314   H         1 RES1   0.0000
    57 H14       3.8792    5.0056    2.6410   H         1 RES1   0.0000
    58 H15       2.2067    5.9687    1.1016   H         1 RES1   0.0000
    59 H16       0.2608    5.6145   -0.3977   H         1 RES1   0.0000
    60 H17      -1.8472    4.3993    1.2916   H         1 RES1   0.0000
    61 H18      -4.0445    5.0996    2.1393   H         1 RES1   0.0000
    62 H19      -6.0598    4.8725    0.7289   H         1 RES1   0.0000
    63 H20      -5.8698    3.9106   -1.5226   H         1 RES1   0.0000
    64 H21      -3.6570    3.1802   -2.3852   H         1 RES1   0.0000
    65 H22      -1.1332    5.8730   -2.2703   H         1 RES1   0.0000
    66 H23      -0.4978    6.8167   -4.4433   H         1 RES1   0.0000
    67 H24       0.1684    5.3428   -6.3042   H         1 RES1   0.0000
    68 H25       0.1841    2.9120   -5.9892   H         1 RES1   0.0000
    69 H26      -0.3875    1.9401   -3.7509   H         1 RES1   0.0000
    70 O3        1.9139   -0.4589   -1.2583   O.2       1 RES1   0.0000
    71 P3        1.9308   -0.8111   -2.7186   P.3       1 RES1   0.0000
    72 C37       2.4641   -2.5016   -3.0526   C.ar      1 RES1   0.0000
    73 C38       3.2073   -2.8267   -4.1794   C.ar      1 RES1   0.0000
    74 C39       3.5297   -4.1507   -4.4165   C.ar      1 RES1   0.0000
    75 C40       3.1023   -5.1381   -3.5424   C.ar      1 RES1   0.0000
    76 C41       2.3385   -4.8067   -2.4334   C.ar      1 RES1   0.0000
    77 C42       2.0058   -3.4883   -2.1878   C.ar      1 RES1   0.0000
    78 C43       2.9586    0.3490   -3.6511   C.ar      1 RES1   0.0000
    79 C44       2.5379    1.1223   -4.7212   C.ar      1 RES1   0.0000
    80 C45       3.4322    1.9901   -5.3259   C.ar      1 RES1   0.0000
    81 C46       4.7416    2.0744   -4.8815   C.ar      1 RES1   0.0000
    82 C47       5.1589    1.2958   -3.8118   C.ar      1 RES1   0.0000
    83 C48       4.2710    0.4361   -3.1933   C.ar      1 RES1   0.0000
    84 C49       0.1822   -0.8771   -3.2890   C.ar      1 RES1   0.0000
    85 C50      -0.2538   -1.0091   -4.6173   C.ar      1 RES1   0.0000
    86 C51      -1.6055   -1.0554   -4.8619   C.ar      1 RES1   0.0000
    87 C52      -2.5117   -0.9785   -3.7879   C.ar      1 RES1   0.0000
    88 C53      -3.9216   -0.9549   -3.9852   C.ar      1 RES1   0.0000
    89 C54      -4.7712   -0.9134   -2.9306   C.ar      1 RES1   0.0000
    90 C55      -4.2755   -0.8882   -1.5976   C.ar      1 RES1   0.0000
    91 C56      -5.1283   -0.9036   -0.4786   C.ar      1 RES1   0.0000
    92 C57      -4.5941   -0.9060    0.7883   C.ar      1 RES1   0.0000
    93 C58      -3.2039   -0.8168    0.9240   C.ar      1 RES1   0.0000
    94 P4       -2.1920   -1.1313    2.4339   P.3       1 RES1   0.0000
    95 O4       -0.7930   -0.7274    2.0804   O.2       1 RES1   0.0000
    96 C59      -2.5772   -0.3019    4.0022   C.ar      1 RES1   0.0000
    97 C60      -3.8311   -0.0323    4.5325   C.ar      1 RES1   0.0000
    98 C61      -3.9252    0.5606    5.7816   C.ar      1 RES1   0.0000
    99 C62      -2.7885    0.8583    6.5170   C.ar      1 RES1   0.0000
   100 C63      -1.5385    0.5886    5.9839   C.ar      1 RES1   0.0000
   101 C64      -1.4312    0.0232    4.7297   C.ar      1 RES1   0.0000
   102 C65      -2.4113   -2.9359    2.5050   C.ar      1 RES1   0.0000
   103 C66      -2.8971   -3.6160    3.6143   C.ar      1 RES1   0.0000
   104 C67      -2.9156   -5.0011    3.6012   C.ar      1 RES1   0.0000
   105 C68      -2.4592   -5.6963    2.4931   C.ar      1 RES1   0.0000
   106 C69      -2.0041   -5.0101    1.3777   C.ar      1 RES1   0.0000
   107 C70      -1.9862   -3.6297    1.3751   C.ar      1 RES1   0.0000
   108 N3       -2.3779   -0.8008   -0.1154   N.ar      1 RES1   0.0000
   109 C71      -2.8821   -0.8633   -1.3619   C.ar      1 RES1   0.0000
   110 C72      -1.9755   -0.9212   -2.4830   C.ar      1 RES1   0.0000
   111 N4       -0.6463   -0.8907   -2.2550   N.ar      1 RES1   0.0000
   112 H27       3.5339   -2.0507   -4.8581   H         1 RES1   0.0000
   113 H28       4.1173   -4.4071   -5.2822   H         1 RES1   0.0000
   114 H29       3.3604   -6.1703   -3.7270   H         1 RES1   0.0000
   115 H30       2.0046   -5.5820   -1.7645   H         1 RES1   0.0000
   116 H31       1.3993   -3.2016   -1.3357   H         1 RES1   0.0000
   117 H32       1.5225    1.0479   -5.0782   H         1 RES1   0.0000
   118 H33       3.1005    2.6057   -6.1451   H         1 RES1   0.0000
   119 H34       5.4373    2.7465   -5.3647   H         1 RES1   0.0000
   120 H35       6.1778    1.3731   -3.4696   H         1 RES1   0.0000
   121 H36       4.5748   -0.1813   -2.3580   H         1 RES1   0.0000
   122 H37       0.4605   -1.0696   -5.4279   H         1 RES1   0.0000
   123 H38      -1.9902   -1.1395   -5.8681   H         1 RES1   0.0000
   124 H39      -4.2946   -0.9777   -4.9956   H         1 RES1   0.0000
   125 H40      -5.8387   -0.9067   -3.0730   H         1 RES1   0.0000
   126 H41      -6.1980   -0.9400   -0.6264   H         1 RES1   0.0000
   127 H42      -5.2276   -0.9753    1.6608   H         1 RES1   0.0000
   128 H43      -4.7265   -0.2785    3.9840   H         1 RES1   0.0000
   129 H44      -4.8968    0.7841    6.1876   H         1 RES1   0.0000
   130 H45      -2.8730    1.2997    7.5001   H         1 RES1   0.0000
   131 H46      -0.6523    0.8179    6.5510   H         1 RES1   0.0000
   132 H47      -0.4573   -0.1802    4.3070   H         1 RES1   0.0000
   133 H48      -3.2477   -3.0721    4.4812   H         1 RES1   0.0000
   134 H49      -3.2809   -5.5357    4.4630   H         1 RES1   0.0000
   135 H50      -2.4637   -6.7752    2.4899   H         1 RES1   0.0000
   136 H51      -1.6653   -5.5511    0.5100   H         1 RES1   0.0000
   137 H52      -1.6284   -3.0783    0.5102   H         1 RES1   0.0000
   138 O5       -1.3684    1.7788    1.5853   O.3       1 RES1   0.0000
   139 H53      -2.3318    1.7502    1.6102   H         1 RES1   0.0000
   140 H54      -1.0735    1.6923    2.5025   H         1 RES1   0.0000
@<TRIPOS>BOND
     1     1     2    1
     2     1    27    1
     3     1    40    1
     4     1    43    1
     5     1    70    1
     6     1    95    1
     7     1   108    1
     8     1   111    1
     9     1   138    1
    10     2     3    2
    11     3     4    1
    12     3    10    1
    13     3    16    1
    14     4     5    1
    15     4     9    2
    16     5     6    2
    17     5    44    1
    18     6     7    1
    19     6    45    1
    20     7     8    2
    21     7    46    1
    22     8     9    1
    23     8    47    1
    24     9    48    1
    25    10    11    1
    26    10    15    2
    27    11    12    2
    28    11    49    1
    29    12    13    1
    30    12    50    1
    31    13    14    2
    32    13    51    1
    33    14    15    1
    34    14    52    1
    35    15    53    1
    36    16    17    1
    37    16    43    2
    38    17    18    2
    39    17    54    1
    40    18    19    1
    41    18    55    1
    42    19    20    1
    43    19    42    2
    44    20    21    2
    45    20    56    1
    46    21    22    1
    47    21    57    1
    48    22    23    1
    49    22    41    2
    50    23    24    2
    51    23    58    1
    52    24    25    1
    53    24    59    1
    54    25    26    1
    55    25    40    2
    56    26    27    2
    57    26    28    1
    58    26    34    1
    59    28    29    1
    60    28    33    2
    61    29    30    2
    62    29    60    1
    63    30    31    1
    64    30    61    1
    65    31    32    2
    66    31    62    1
    67    32    33    1
    68    32    63    1
    69    33    64    1
    70    34    35    1
    71    34    39    2
    72    35    36    2
    73    35    65    1
    74    36    37    1
    75    36    66    1
    76    37    38    2
    77    37    67    1
    78    38    39    1
    79    38    68    1
    80    39    69    1
    81    40    41    1
    82    41    42    1
    83    42    43    1
    84    70    71    2
    85    71    72    1
    86    71    78    1
    87    71    84    1
    88    72    73    1
    89    72    77    2
    90    73    74    2
    91    73   112    1
    92    74    75    1
    93    74   113    1
    94    75    76    2
    95    75   114    1
    96    76    77    1
    97    76   115    1
    98    77   116    1
    99    78    79    1
   100    78    83    2
   101    79    80    2
   102    79   117    1
   103    80    81    1
   104    80   118    1
   105    81    82    2
   106    81   119    1
   107    82    83    1
   108    82   120    1
   109    83   121    1
   110    84    85    1
   111    84   111    2
   112    85    86    2
   113    85   122    1
   114    86    87    1
   115    86   123    1
   116    87    88    1
   117    87   110    2
   118    88    89    2
   119    88   124    1
   120    89    90    1
   121    89   125    1
   122    90    91    1
   123    90   109    2
   124    91    92    2
   125    91   126    1
   126    92    93    1
   127    92   127    1
   128    93    94    1
   129    93   108    2
   130    94    95    2
   131    94    96    1
   132    94   102    1
   133    96    97    1
   134    96   101    2
   135    97    98    2
   136    97   128    1
   137    98    99    1
   138    98   129    1
   139    99   100    2
   140    99   130    1
   141   100   101    1
   142   100   131    1
   143   101   132    1
   144   102   103    1
   145   102   107    2
   146   103   104    2
   147   103   133    1
   148   104   105    1
   149   104   134    1
   150   105   106    2
   151   105   135    1
   152   106   107    1
   153   106   136    1
   154   107   137    1
   155   108   109    1
   156   109   110    1
   157   110   111    1
   158   138   139    1
   159   138   140    1
@<TRIPOS>SUBSTRUCTURE
     1 RES1      140 GROUP             0 ****  ****    0  
