@<TRIPOS>MOLECULE
am_c3_9H2O_c0_0_nunpairedes_0_charge_3 Charge: 3 Unpaired_Electrons: 6 XTB_Unpaired_Electrons: 0 XTB_Charge: 3
   108   119     1     0     0
SMALL
NoCharges
****
Generated from Architector

@<TRIPOS>ATOM
     1 Eu1       0.0988    0.1135   -0.1930   Eu        1 RES1   0.0000
     2 S1       -0.9410    1.6458   -2.2845   S.3       1 RES1   0.0000
     3 P1        0.1530    3.2327   -1.8087   P.3       1 RES1   0.0000
     4 S2        1.5707    2.6986   -0.2129   S.3       1 RES1   0.0000
     5 C1        1.3534    3.5987   -3.1259   C.ar      1 RES1   0.0000
     6 C2        2.7000    3.2641   -3.1179   C.ar      1 RES1   0.0000
     7 C3        3.4509    3.4713   -4.2633   C.ar      1 RES1   0.0000
     8 C4        2.8550    3.9792   -5.4109   C.ar      1 RES1   0.0000
     9 C5        1.5045    4.2970   -5.4349   C.ar      1 RES1   0.0000
    10 C6        0.7691    4.1107   -4.2842   C.ar      1 RES1   0.0000
    11 Cl1      -0.9038    4.4650   -4.1362   Cl        1 RES1   0.0000
    12 C7       -0.5777    4.7284   -1.0615   C.ar      1 RES1   0.0000
    13 C8        0.3398    5.7287   -0.7416   C.ar      1 RES1   0.0000
    14 C9       -0.0927    6.9121   -0.1796   C.ar      1 RES1   0.0000
    15 C10      -1.4496    7.1196    0.0253   C.ar      1 RES1   0.0000
    16 C11      -2.3720    6.1369   -0.2973   C.ar      1 RES1   0.0000
    17 C12      -1.9352    4.9287   -0.8201   C.ar      1 RES1   0.0000
    18 Cl2      -3.0759    3.6800   -1.1475   Cl        1 RES1   0.0000
    19 H1        0.9580    3.3929    0.7515   H         1 RES1   0.0000
    20 H2        3.1610    2.8517   -2.2309   H         1 RES1   0.0000
    21 H3        4.5052    3.2389   -4.2685   H         1 RES1   0.0000
    22 H4        3.4400    4.1356   -6.3011   H         1 RES1   0.0000
    23 H5        1.0213    4.6770   -6.3224   H         1 RES1   0.0000
    24 H6        1.3880    5.5555   -0.9421   H         1 RES1   0.0000
    25 H7        0.6224    7.6727    0.0918   H         1 RES1   0.0000
    26 H8       -1.7951    8.0510    0.4418   H         1 RES1   0.0000
    27 H9       -3.4270    6.2980   -0.1449   H         1 RES1   0.0000
    28 S3        1.7565   -0.0105    2.2862   S.3       1 RES1   0.0000
    29 P2        0.7020   -1.3116    3.3550   P.3       1 RES1   0.0000
    30 S4       -1.0048   -1.6619    2.1116   S.3       1 RES1   0.0000
    31 C13      -0.0076   -0.6017    4.8768   C.ar      1 RES1   0.0000
    32 C14      -1.3430   -0.2579    5.0420   C.ar      1 RES1   0.0000
    33 C15      -1.7360    0.3831    6.2026   C.ar      1 RES1   0.0000
    34 C16      -0.8133    0.6915    7.1908   C.ar      1 RES1   0.0000
    35 C17       0.5135    0.3149    7.0497   C.ar      1 RES1   0.0000
    36 C18       0.9036   -0.3391    5.8963   C.ar      1 RES1   0.0000
    37 Cl3       2.5073   -0.8681    5.5994   Cl        1 RES1   0.0000
    38 C19       1.4565   -2.9596    3.5701   C.ar      1 RES1   0.0000
    39 C20       2.7694   -3.1967    3.1728   C.ar      1 RES1   0.0000
    40 C21       3.3280   -4.4566    3.3110   C.ar      1 RES1   0.0000
    41 C22       2.5840   -5.4914    3.8610   C.ar      1 RES1   0.0000
    42 C23       1.2935   -5.2530    4.3013   C.ar      1 RES1   0.0000
    43 C24       0.7355   -3.9940    4.1619   C.ar      1 RES1   0.0000
    44 Cl4      -0.8665   -3.7163    4.7491   Cl        1 RES1   0.0000
    45 H10      -1.3373   -2.8333    2.6353   H         1 RES1   0.0000
    46 H11      -2.0660   -0.5106    4.2822   H         1 RES1   0.0000
    47 H12      -2.7719    0.6443    6.3355   H         1 RES1   0.0000
    48 H13      -1.1298    1.2149    8.0788   H         1 RES1   0.0000
    49 H14       1.2356    0.5303    7.8200   H         1 RES1   0.0000
    50 H15       3.3513   -2.3707    2.7878   H         1 RES1   0.0000
    51 H16       4.3512   -4.6339    3.0177   H         1 RES1   0.0000
    52 H17       3.0182   -6.4713    3.9917   H         1 RES1   0.0000
    53 H18       0.7186   -6.0304    4.7758   H         1 RES1   0.0000
    54 S5        1.9468   -0.0609   -2.3335   S.3       1 RES1   0.0000
    55 P3        2.7485   -1.8103   -1.8681   P.3       1 RES1   0.0000
    56 S6        1.6518   -2.5269   -0.1930   S.3       1 RES1   0.0000
    57 C25       4.4538   -1.5525   -1.3003   C.ar      1 RES1   0.0000
    58 C26       4.8562   -1.5515    0.0271   C.ar      1 RES1   0.0000
    59 C27       6.1531   -1.1811    0.3364   C.ar      1 RES1   0.0000
    60 C28       7.0338   -0.7921   -0.6612   C.ar      1 RES1   0.0000
    61 C29       6.6335   -0.7839   -1.9881   C.ar      1 RES1   0.0000
    62 C30       5.3466   -1.1750   -2.2989   C.ar      1 RES1   0.0000
    63 Cl5       4.7434   -1.2181   -3.9050   Cl        1 RES1   0.0000
    64 C31       2.4724   -3.1257   -3.0905   C.ar      1 RES1   0.0000
    65 C32       1.7392   -2.8890   -4.2479   C.ar      1 RES1   0.0000
    66 C33       1.5005   -3.9280   -5.1322   C.ar      1 RES1   0.0000
    67 C34       1.9867   -5.1984   -4.8628   C.ar      1 RES1   0.0000
    68 C35       2.7199   -5.4396   -3.7125   C.ar      1 RES1   0.0000
    69 C36       2.9636   -4.4023   -2.8341   C.ar      1 RES1   0.0000
    70 Cl6       3.9022   -4.6908   -1.4113   Cl        1 RES1   0.0000
    71 H19       2.4067   -3.6034    0.0301   H         1 RES1   0.0000
    72 H20       4.1638   -1.8407    0.8016   H         1 RES1   0.0000
    73 H21       6.4823   -1.1918    1.3618   H         1 RES1   0.0000
    74 H22       8.0422   -0.5021   -0.4140   H         1 RES1   0.0000
    75 H23       7.2962   -0.4770   -2.7799   H         1 RES1   0.0000
    76 H24       1.3797   -1.8882   -4.4475   H         1 RES1   0.0000
    77 H25       0.9443   -3.7483   -6.0391   H         1 RES1   0.0000
    78 H26       1.8166   -6.0050   -5.5576   H         1 RES1   0.0000
    79 H27       3.1130   -6.4174   -3.4931   H         1 RES1   0.0000
    80 S7       -1.2336   -1.7863   -1.7803   S.3       1 RES1   0.0000
    81 P4       -3.1437   -1.3272   -1.4877   P.3       1 RES1   0.0000
    82 S8       -3.1045    0.1125    0.0746   S.3       1 RES1   0.0000
    83 C37      -4.0143   -2.7841   -0.8396   C.ar      1 RES1   0.0000
    84 C38      -4.4177   -2.9468    0.4777   C.ar      1 RES1   0.0000
    85 C39      -4.9346   -4.1658    0.8784   C.ar      1 RES1   0.0000
    86 C40      -5.0292   -5.2241   -0.0110   C.ar      1 RES1   0.0000
    87 C41      -4.6496   -5.0587   -1.3330   C.ar      1 RES1   0.0000
    88 C42      -4.1576   -3.8344   -1.7419   C.ar      1 RES1   0.0000
    89 Cl7      -3.6841   -3.5148   -3.3581   Cl        1 RES1   0.0000
    90 C43      -3.9774   -0.4724   -2.8587   C.ar      1 RES1   0.0000
    91 C44      -3.3294   -0.2110   -4.0617   C.ar      1 RES1   0.0000
    92 C45      -3.9927    0.4763   -5.0643   C.ar      1 RES1   0.0000
    93 C46      -5.2964    0.9073   -4.8749   C.ar      1 RES1   0.0000
    94 C47      -5.9503    0.6368   -3.6853   C.ar      1 RES1   0.0000
    95 C48      -5.2960   -0.0618   -2.6887   C.ar      1 RES1   0.0000
    96 Cl8      -6.1444   -0.4325   -1.2310   Cl        1 RES1   0.0000
    97 H28      -4.4231    0.2192    0.2184   H         1 RES1   0.0000
    98 H29      -4.3367   -2.1272    1.1743   H         1 RES1   0.0000
    99 H30      -5.2690   -4.2891    1.8939   H         1 RES1   0.0000
   100 H31      -5.4145   -6.1762    0.3183   H         1 RES1   0.0000
   101 H32      -4.7327   -5.8650   -2.0417   H         1 RES1   0.0000
   102 H33      -2.3155   -0.5592   -4.2031   H         1 RES1   0.0000
   103 H34      -3.4980    0.6765   -6.0007   H         1 RES1   0.0000
   104 H35      -5.8215    1.4308   -5.6584   H         1 RES1   0.0000
   105 H36      -6.9642    0.9541   -3.5191   H         1 RES1   0.0000
   106 O1       -0.9134    1.7637    1.5679   O.3       1 RES1   0.0000
   107 H37      -0.8459    1.4008    2.4647   H         1 RES1   0.0000
   108 H38      -1.5280    2.5120    1.6351   H         1 RES1   0.0000
@<TRIPOS>BOND
     1     1     2    1
     2     1     4    1
     3     1    28    1
     4     1    30    1
     5     1    54    1
     6     1    56    1
     7     1    80    1
     8     1    82    1
     9     1   106    1
    10     2     3    2
    11     3     4    1
    12     3     5    1
    13     3    12    1
    14     4    19    1
    15     5     6    1
    16     5    10    2
    17     6     7    2
    18     6    20    1
    19     7     8    1
    20     7    21    1
    21     8     9    2
    22     8    22    1
    23     9    10    1
    24     9    23    1
    25    10    11    1
    26    12    13    1
    27    12    17    2
    28    13    14    2
    29    13    24    1
    30    14    15    1
    31    14    25    1
    32    15    16    2
    33    15    26    1
    34    16    17    1
    35    16    27    1
    36    17    18    1
    37    28    29    2
    38    29    30    1
    39    29    31    1
    40    29    38    1
    41    30    45    1
    42    31    32    1
    43    31    36    2
    44    32    33    2
    45    32    46    1
    46    33    34    1
    47    33    47    1
    48    34    35    2
    49    34    48    1
    50    35    36    1
    51    35    49    1
    52    36    37    1
    53    38    39    1
    54    38    43    2
    55    39    40    2
    56    39    50    1
    57    40    41    1
    58    40    51    1
    59    41    42    2
    60    41    52    1
    61    42    43    1
    62    42    53    1
    63    43    44    1
    64    54    55    2
    65    55    56    1
    66    55    57    1
    67    55    64    1
    68    56    71    1
    69    57    58    1
    70    57    62    2
    71    58    59    2
    72    58    72    1
    73    59    60    1
    74    59    73    1
    75    60    61    2
    76    60    74    1
    77    61    62    1
    78    61    75    1
    79    62    63    1
    80    64    65    1
    81    64    69    2
    82    65    66    2
    83    65    76    1
    84    66    67    1
    85    66    77    1
    86    67    68    2
    87    67    78    1
    88    68    69    1
    89    68    79    1
    90    69    70    1
    91    80    81    2
    92    81    82    1
    93    81    83    1
    94    81    90    1
    95    82    97    1
    96    83    84    1
    97    83    88    2
    98    84    85    2
    99    84    98    1
   100    85    86    1
   101    85    99    1
   102    86    87    2
   103    86   100    1
   104    87    88    1
   105    87   101    1
   106    88    89    1
   107    90    91    1
   108    90    95    2
   109    91    92    2
   110    91   102    1
   111    92    93    1
   112    92   103    1
   113    93    94    2
   114    93   104    1
   115    94    95    1
   116    94   105    1
   117    95    96    1
   118   106   107    1
   119   106   108    1
@<TRIPOS>SUBSTRUCTURE
     1 RES1      108 GROUP             0 ****  ****    0  
