@<TRIPOS>MOLECULE
tricapped_trigonal_prismatic_0_nunpairedes_0_charge_2 Charge: 2 Unpaired_Electrons: 6 XTB_Unpaired_Electrons: 0 XTB_Charge: 2
    79    87     1     0     0
SMALL
NoCharges
****
Generated from Architector

@<TRIPOS>ATOM
     1 Eu1      -0.4379    0.2659   -0.7240   Eu        1 RES1   0.0000
     2 C1       -8.5475    4.5631   -3.5531   C.3       1 RES1   0.0000
     3 C2       -8.0669    5.7358   -2.7084   C.3       1 RES1   0.0000
     4 C3       -6.7825    5.4084   -1.9498   C.3       1 RES1   0.0000
     5 C4       -6.2574    6.5794   -1.1173   C.3       1 RES1   0.0000
     6 C5       -5.9453    7.8530   -1.9094   C.3       1 RES1   0.0000
     7 C6       -4.9851    7.6773   -3.0885   C.3       1 RES1   0.0000
     8 C7       -3.5331    7.4924   -2.6433   C.3       1 RES1   0.0000
     9 C8       -2.5959    7.0866   -3.7873   C.3       1 RES1   0.0000
    10 C9       -2.7795    5.6191   -4.2233   C.3       1 RES1   0.0000
    11 C10      -1.5410    4.7486   -3.9590   C.3       1 RES1   0.0000
    12 C11      -1.7971    3.2346   -4.0184   C.3       1 RES1   0.0000
    13 C12      -2.8773    2.7152   -3.0703   C.3       1 RES1   0.0000
    14 O1       -2.5177    2.8127   -1.6743   O.3       1 RES1   0.0000
    15 C13      -3.0063    4.0440   -1.0480   C.3       1 RES1   0.0000
    16 C14      -2.3532    3.8619    0.2856   C.ar      1 RES1   0.0000
    17 C15      -2.8891    2.8350    1.0575   C.ar      1 RES1   0.0000
    18 C16      -2.0112    1.8315    1.4317   C.ar      1 RES1   0.0000
    19 N1       -2.5714    0.5384    1.5800   N.ar      1 RES1   0.0000
    20 C17      -3.7828    0.2492    2.1383   C.ar      1 RES1   0.0000
    21 C18      -4.4097   -0.6636    1.3387   C.ar      1 RES1   0.0000
    22 C19      -3.5442   -0.8794    0.2418   C.ar      1 RES1   0.0000
    23 C20      -3.7551   -1.6446   -1.0068   C.3       1 RES1   0.0000
    24 N2       -2.4449   -0.1552    0.3929   N.ar      1 RES1   0.0000
    25 N3       -0.7048    1.8680    1.1294   N.ar      1 RES1   0.0000
    26 C21      -0.1823    3.0166    0.6593   C.ar      1 RES1   0.0000
    27 N4        1.0737    2.8801    0.0187   N.ar      1 RES1   0.0000
    28 C22       2.1276    3.7172   -0.1157   C.ar      1 RES1   0.0000
    29 C23       2.7971    3.3579   -1.2580   C.ar      1 RES1   0.0000
    30 C24       2.0714    2.2880   -1.8198   C.ar      1 RES1   0.0000
    31 C25       2.3026    1.5175   -3.0668   C.3       1 RES1   0.0000
    32 N5        1.0161    2.0259   -1.0526   N.ar      1 RES1   0.0000
    33 C26      -0.9726    4.0932    0.2997   C.ar      1 RES1   0.0000
    34 H1       -8.7536    3.6950   -2.9304   H         1 RES1   0.0000
    35 H2       -7.7958    4.2888   -4.2919   H         1 RES1   0.0000
    36 H3       -9.4604    4.8272   -4.0805   H         1 RES1   0.0000
    37 H4       -8.8430    6.0151   -1.9946   H         1 RES1   0.0000
    38 H5       -7.8973    6.5889   -3.3646   H         1 RES1   0.0000
    39 H6       -6.0217    5.0804   -2.6636   H         1 RES1   0.0000
    40 H7       -6.9797    4.5643   -1.2810   H         1 RES1   0.0000
    41 H8       -5.3635    6.2569   -0.5741   H         1 RES1   0.0000
    42 H9       -7.0085    6.8330   -0.3682   H         1 RES1   0.0000
    43 H10      -5.5222    8.5881   -1.2214   H         1 RES1   0.0000
    44 H11      -6.8805    8.2681   -2.2835   H         1 RES1   0.0000
    45 H12      -5.0393    8.5682   -3.7161   H         1 RES1   0.0000
    46 H13      -5.3016    6.8379   -3.7080   H         1 RES1   0.0000
    47 H14      -3.4942    6.7482   -1.8434   H         1 RES1   0.0000
    48 H15      -3.1817    8.4333   -2.2176   H         1 RES1   0.0000
    49 H16      -1.5596    7.2557   -3.4814   H         1 RES1   0.0000
    50 H17      -2.7883    7.7479   -4.6319   H         1 RES1   0.0000
    51 H18      -3.0100    5.5744   -5.2875   H         1 RES1   0.0000
    52 H19      -3.6437    5.2143   -3.6940   H         1 RES1   0.0000
    53 H20      -1.0940    4.9912   -2.9909   H         1 RES1   0.0000
    54 H21      -0.7738    4.9920   -4.6965   H         1 RES1   0.0000
    55 H22      -0.8607    2.7033   -3.7937   H         1 RES1   0.0000
    56 H23      -2.0943    2.9501   -5.0299   H         1 RES1   0.0000
    57 H24      -3.0188    1.6430   -3.2582   H         1 RES1   0.0000
    58 H25      -3.8213    3.2426   -3.2299   H         1 RES1   0.0000
    59 H26      -4.1020    4.0449   -0.9962   H         1 RES1   0.0000
    60 H27      -2.6276    4.9209   -1.5766   H         1 RES1   0.0000
    61 H28      -3.9561    2.6696    1.0908   H         1 RES1   0.0000
    62 H29      -4.0830    0.7064    3.0619   H         1 RES1   0.0000
    63 H30      -5.3738   -1.0997    1.4920   H         1 RES1   0.0000
    64 H31      -4.5580   -1.1609   -1.5649   H         1 RES1   0.0000
    65 H32      -4.0816   -2.6641   -0.8085   H         1 RES1   0.0000
    66 H33      -2.8458   -1.6407   -1.6286   H         1 RES1   0.0000
    67 H34       2.3165    4.4725    0.6266   H         1 RES1   0.0000
    68 H35       3.6735    3.8238   -1.6569   H         1 RES1   0.0000
    69 H36       2.2520    2.1825   -3.9289   H         1 RES1   0.0000
    70 H37       1.5356    0.7412   -3.2018   H         1 RES1   0.0000
    71 H38       3.2947    1.0647   -3.0599   H         1 RES1   0.0000
    72 H39      -0.5550    4.9500   -0.2000   H         1 RES1   0.0000
    73 N6        0.0721   -1.9758   -1.6445   N.3       1 RES1   0.0000
    74 O2        0.2219   -3.0521   -2.0885   O.2       1 RES1   0.0000
    75 O3       -0.2154   -0.9835   -2.3704   O.co2     1 RES1   0.0000
    76 O4        0.1705   -1.7153   -0.4268   O.co2     1 RES1   0.0000
    77 O5        1.5629    0.0627    1.0397   O.3       1 RES1   0.0000
    78 H40       1.5999    0.3640    1.9606   H         1 RES1   0.0000
    79 H41       2.1196   -0.7331    1.0283   H         1 RES1   0.0000
@<TRIPOS>BOND
     1     1    14    1
     2     1    19    1
     3     1    24    1
     4     1    25    1
     5     1    27    1
     6     1    32    1
     7     1    75    1
     8     1    76    1
     9     1    77    1
    10     2     3    1
    11     2    34    1
    12     2    35    1
    13     2    36    1
    14     3     4    1
    15     3    37    1
    16     3    38    1
    17     4     5    1
    18     4    39    1
    19     4    40    1
    20     5     6    1
    21     5    41    1
    22     5    42    1
    23     6     7    1
    24     6    43    1
    25     6    44    1
    26     7     8    1
    27     7    45    1
    28     7    46    1
    29     8     9    1
    30     8    47    1
    31     8    48    1
    32     9    10    1
    33     9    49    1
    34     9    50    1
    35    10    11    1
    36    10    51    1
    37    10    52    1
    38    11    12    1
    39    11    53    1
    40    11    54    1
    41    12    13    1
    42    12    55    1
    43    12    56    1
    44    13    14    1
    45    13    57    1
    46    13    58    1
    47    14    15    1
    48    15    16    1
    49    15    59    1
    50    15    60    1
    51    16    17    1
    52    16    33    2
    53    17    18    2
    54    17    61    1
    55    18    19    1
    56    18    25    1
    57    19    20    1
    58    19    24    1
    59    20    21    2
    60    20    62    1
    61    21    22    1
    62    21    63    1
    63    22    23    1
    64    22    24    2
    65    23    64    1
    66    23    65    1
    67    23    66    1
    68    25    26    2
    69    26    27    1
    70    26    33    1
    71    27    28    1
    72    27    32    1
    73    28    29    2
    74    28    67    1
    75    29    30    1
    76    29    68    1
    77    30    31    1
    78    30    32    2
    79    31    69    1
    80    31    70    1
    81    31    71    1
    82    33    72    1
    83    73    74    2
    84    73    75    1
    85    73    76    1
    86    77    78    1
    87    77    79    1
@<TRIPOS>SUBSTRUCTURE
     1 RES1       79 GROUP             0 ****  ****    0  
