@<TRIPOS>MOLECULE
tri_tri_mer_capped_0_nunpairedes_0_charge_3 Charge: 3 Unpaired_Electrons: 6 XTB_Unpaired_Electrons: 0 XTB_Charge: 3
   109   120     1     0     0
SMALL
NoCharges
****
Generated from Architector

@<TRIPOS>ATOM
     1 Eu1       0.1175   -0.1457   -0.3753   Eu        1 RES1   0.0000
     2 C1        9.2953    3.3792   -0.5135   C.3       1 RES1   0.0000
     3 C2        8.6915    3.0777   -1.8881   C.3       1 RES1   0.0000
     4 C3        8.4229    4.4012   -2.6301   C.3       1 RES1   0.0000
     5 C4        9.6717    2.2145   -2.7063   C.3       1 RES1   0.0000
     6 C5        7.3844    2.3313   -1.7676   C.ar      1 RES1   0.0000
     7 C6        6.7717    2.0640   -0.5414   C.ar      1 RES1   0.0000
     8 C7        5.5925    1.3533   -0.4540   C.ar      1 RES1   0.0000
     9 C8        4.9987    0.8432   -1.6035   C.ar      1 RES1   0.0000
    10 N1        3.8405    0.0460   -1.6301   N.am      1 RES1   0.0000
    11 C9        2.9142   -0.2691   -0.7478   C.2       1 RES1   0.0000
    12 O1        1.9226   -0.9900   -1.0965   O.2       1 RES1   0.0000
    13 C10       2.8934    0.1935    0.6746   C.ar      1 RES1   0.0000
    14 C11       3.7430   -0.3110    1.6663   C.ar      1 RES1   0.0000
    15 N2        3.6171    0.0654    2.9215   N.ar      1 RES1   0.0000
    16 C12       2.6973    0.9659    3.2238   C.ar      1 RES1   0.0000
    17 C13       1.7857    1.4111    2.2668   C.ar      1 RES1   0.0000
    18 N3        1.8488    0.9885    0.9970   N.ar      1 RES1   0.0000
    19 C14       5.5933    1.1137   -2.8377   C.ar      1 RES1   0.0000
    20 C15       6.7425    1.8608   -2.9160   C.ar      1 RES1   0.0000
    21 H1       10.2541    3.8806   -0.6166   H         1 RES1   0.0000
    22 H2        9.4711    2.4607    0.0449   H         1 RES1   0.0000
    23 H3        8.6438    4.0399    0.0572   H         1 RES1   0.0000
    24 H4        9.3352    4.9875   -2.7094   H         1 RES1   0.0000
    25 H5        7.6869    4.9931   -2.0884   H         1 RES1   0.0000
    26 H6        8.0592    4.2193   -3.6384   H         1 RES1   0.0000
    27 H7       10.6380    2.7060   -2.7740   H         1 RES1   0.0000
    28 H8        9.3187    2.0558   -3.7221   H         1 RES1   0.0000
    29 H9        9.8212    1.2475   -2.2297   H         1 RES1   0.0000
    30 H10       7.2129    2.3968    0.3815   H         1 RES1   0.0000
    31 H11       5.1565    1.1860    0.5162   H         1 RES1   0.0000
    32 H12       3.6955   -0.4073   -2.5349   H         1 RES1   0.0000
    33 H13       4.4962   -1.0539    1.4361   H         1 RES1   0.0000
    34 H14       2.6699    1.3031    4.2518   H         1 RES1   0.0000
    35 H15       0.9786    2.0906    2.5173   H         1 RES1   0.0000
    36 H16       5.1488    0.7352   -3.7432   H         1 RES1   0.0000
    37 H17       7.1592    2.0616   -3.8879   H         1 RES1   0.0000
    38 C16      -6.2818    0.6735    7.2458   C.3       1 RES1   0.0000
    39 C17      -5.4835   -0.6263    7.3368   C.3       1 RES1   0.0000
    40 C18      -4.7843   -0.6760    8.7072   C.3       1 RES1   0.0000
    41 C19      -6.4354   -1.8312    7.2395   C.3       1 RES1   0.0000
    42 C20      -4.4296   -0.7462    6.2783   C.ar      1 RES1   0.0000
    43 C21      -3.5211   -1.8133    6.2963   C.ar      1 RES1   0.0000
    44 C22      -2.4966   -1.8868    5.3846   C.ar      1 RES1   0.0000
    45 C23      -2.3560   -0.9177    4.3842   C.ar      1 RES1   0.0000
    46 N4       -1.3019   -1.1072    3.4814   N.am      1 RES1   0.0000
    47 C24      -0.9535   -0.5000    2.3598   C.2       1 RES1   0.0000
    48 O2       -0.1328   -1.0705    1.5547   O.2       1 RES1   0.0000
    49 C25      -1.4846    0.8297    1.9518   C.ar      1 RES1   0.0000
    50 C26      -1.5246    1.9830    2.7612   C.ar      1 RES1   0.0000
    51 N5       -2.0302    3.1118    2.3195   N.ar      1 RES1   0.0000
    52 C27      -2.5445    3.1396    1.0994   C.ar      1 RES1   0.0000
    53 C28      -2.4141    2.0518    0.2467   C.ar      1 RES1   0.0000
    54 N6       -1.8481    0.9027    0.6455   N.ar      1 RES1   0.0000
    55 C29      -3.3025    0.1049    4.3107   C.ar      1 RES1   0.0000
    56 C30      -4.3022    0.1938    5.2517   C.ar      1 RES1   0.0000
    57 H18      -6.9722    0.7168    8.0822   H         1 RES1   0.0000
    58 H19      -6.8713    0.7270    6.3329   H         1 RES1   0.0000
    59 H20      -5.6305    1.5426    7.3139   H         1 RES1   0.0000
    60 H21      -5.5352   -0.5942    9.4853   H         1 RES1   0.0000
    61 H22      -4.0837    0.1491    8.8092   H         1 RES1   0.0000
    62 H23      -4.2543   -1.6118    8.8524   H         1 RES1   0.0000
    63 H24      -7.2359   -1.7042    7.9619   H         1 RES1   0.0000
    64 H25      -5.9200   -2.7584    7.4754   H         1 RES1   0.0000
    65 H26      -6.8757   -1.9083    6.2473   H         1 RES1   0.0000
    66 H27      -3.6011   -2.5962    7.0340   H         1 RES1   0.0000
    67 H28      -1.7975   -2.7066    5.4332   H         1 RES1   0.0000
    68 H29      -0.7888   -1.9758    3.6528   H         1 RES1   0.0000
    69 H30      -1.1305    1.9995    3.7715   H         1 RES1   0.0000
    70 H31      -3.0396    4.0519    0.8005   H         1 RES1   0.0000
    71 H32      -2.7780    2.0941   -0.7688   H         1 RES1   0.0000
    72 H33      -3.2857    0.8294    3.5147   H         1 RES1   0.0000
    73 H34      -5.0021    1.0094    5.1745   H         1 RES1   0.0000
    74 C31      -1.3002    2.1866   -9.5290   C.3       1 RES1   0.0000
    75 C32      -0.0375    2.9325   -9.0697   C.3       1 RES1   0.0000
    76 C33      -0.1060    4.3704   -9.5824   C.3       1 RES1   0.0000
    77 C34       1.2093    2.2463   -9.6526   C.3       1 RES1   0.0000
    78 C35       0.0466    2.8706   -7.5650   C.ar      1 RES1   0.0000
    79 C36       0.1603    4.0074   -6.7606   C.ar      1 RES1   0.0000
    80 C37       0.1994    3.8994   -5.3875   C.ar      1 RES1   0.0000
    81 C38       0.1022    2.6507   -4.7791   C.ar      1 RES1   0.0000
    82 N7        0.1258    2.6180   -3.3782   N.am      1 RES1   0.0000
    83 C39      -0.1929    1.6712   -2.5348   C.2       1 RES1   0.0000
    84 O3        0.0711    1.7759   -1.2857   O.2       1 RES1   0.0000
    85 C40      -0.8977    0.3700   -2.8275   C.ar      1 RES1   0.0000
    86 C41      -2.2861    0.1699   -2.6161   C.ar      1 RES1   0.0000
    87 N8       -2.6582   -0.9460   -2.0312   N.ar      1 RES1   0.0000
    88 C42      -1.8443   -1.9798   -1.8818   C.ar      1 RES1   0.0000
    89 C43      -0.5829   -1.9191   -2.5098   C.ar      1 RES1   0.0000
    90 N9       -0.1137   -0.7097   -2.8135   N.ar      1 RES1   0.0000
    91 C44       0.0497    1.4992   -5.5600   C.ar      1 RES1   0.0000
    92 C45       0.0299    1.6244   -6.9299   C.ar      1 RES1   0.0000
    93 H35      -1.3951    2.2818  -10.6054   H         1 RES1   0.0000
    94 H36      -2.1875    2.6160   -9.0702   H         1 RES1   0.0000
    95 H37      -1.2610    1.1282   -9.2906   H         1 RES1   0.0000
    96 H38      -0.1852    4.3645  -10.6648   H         1 RES1   0.0000
    97 H39       0.7931    4.9246   -9.3258   H         1 RES1   0.0000
    98 H40      -0.9813    4.8828   -9.1885   H         1 RES1   0.0000
    99 H41       1.1876    2.3152  -10.7349   H         1 RES1   0.0000
   100 H42       1.2491    1.1945   -9.3838   H         1 RES1   0.0000
   101 H43       2.1141    2.7377   -9.3032   H         1 RES1   0.0000
   102 H44       0.2188    4.9892   -7.1975   H         1 RES1   0.0000
   103 H45       0.2873    4.7800   -4.7703   H         1 RES1   0.0000
   104 H46       0.4976    3.4690   -2.9508   H         1 RES1   0.0000
   105 H47      -3.0643    0.8428   -2.9495   H         1 RES1   0.0000
   106 H48      -2.2311   -2.8533   -1.3613   H         1 RES1   0.0000
   107 H49       0.0414   -2.7605   -2.8018   H         1 RES1   0.0000
   108 H50       0.0624    0.5250   -5.1005   H         1 RES1   0.0000
   109 H51       0.0094    0.7312   -7.5281   H         1 RES1   0.0000
@<TRIPOS>BOND
     1     1    12    1
     2     1    15    1
     3     1    18    1
     4     1    48    1
     5     1    51    1
     6     1    54    1
     7     1    84    1
     8     1    87    1
     9     1    90    1
    10     2     3    1
    11     2    21    1
    12     2    22    1
    13     2    23    1
    14     3     4    1
    15     3     5    1
    16     3     6    1
    17     4    24    1
    18     4    25    1
    19     4    26    1
    20     5    27    1
    21     5    28    1
    22     5    29    1
    23     6     7    1
    24     6    20    2
    25     7     8    2
    26     7    30    1
    27     8     9    1
    28     8    31    1
    29     9    10    1
    30     9    19    2
    31    10    11    1
    32    10    32    1
    33    11    12    2
    34    11    13    1
    35    13    14    1
    36    13    18    2
    37    14    15    2
    38    14    33    1
    39    15    16    1
    40    16    17    2
    41    16    34    1
    42    17    18    1
    43    17    35    1
    44    19    20    1
    45    19    36    1
    46    20    37    1
    47    38    39    1
    48    38    57    1
    49    38    58    1
    50    38    59    1
    51    39    40    1
    52    39    41    1
    53    39    42    1
    54    40    60    1
    55    40    61    1
    56    40    62    1
    57    41    63    1
    58    41    64    1
    59    41    65    1
    60    42    43    1
    61    42    56    2
    62    43    44    2
    63    43    66    1
    64    44    45    1
    65    44    67    1
    66    45    46    1
    67    45    55    2
    68    46    47    1
    69    46    68    1
    70    47    48    2
    71    47    49    1
    72    49    50    1
    73    49    54    2
    74    50    51    2
    75    50    69    1
    76    51    52    1
    77    52    53    2
    78    52    70    1
    79    53    54    1
    80    53    71    1
    81    55    56    1
    82    55    72    1
    83    56    73    1
    84    74    75    1
    85    74    93    1
    86    74    94    1
    87    74    95    1
    88    75    76    1
    89    75    77    1
    90    75    78    1
    91    76    96    1
    92    76    97    1
    93    76    98    1
    94    77    99    1
    95    77   100    1
    96    77   101    1
    97    78    79    1
    98    78    92    2
    99    79    80    2
   100    79   102    1
   101    80    81    1
   102    80   103    1
   103    81    82    1
   104    81    91    2
   105    82    83    1
   106    82   104    1
   107    83    84    2
   108    83    85    1
   109    85    86    1
   110    85    90    2
   111    86    87    2
   112    86   105    1
   113    87    88    1
   114    88    89    2
   115    88   106    1
   116    89    90    1
   117    89   107    1
   118    91    92    1
   119    91   108    1
   120    92   109    1
@<TRIPOS>SUBSTRUCTURE
     1 RES1      109 GROUP             0 ****  ****    0  
