@<TRIPOS>MOLECULE
am_c3_9H2O_c0_0_nunpairedes_0_charge_2 Charge: 2 Unpaired_Electrons: 6 XTB_Unpaired_Electrons: 0 XTB_Charge: 2
    66    75     1     0     0
SMALL
NoCharges
****
Generated from Architector

@<TRIPOS>ATOM
     1 Eu1      -0.7159    1.2304    1.0228   Eu        1 RES1   0.0000
     2 C1       -4.7289    2.9657    5.5977   C.3       1 RES1   0.0000
     3 C2       -3.5008    3.0841    4.7048   C.3       1 RES1   0.0000
     4 C3       -2.7214    1.7712    4.5694   C.3       1 RES1   0.0000
     5 C4       -3.1731    0.8730    3.4596   C.ar      1 RES1   0.0000
     6 N1       -4.2849    1.0750    2.7910   N.ar      1 RES1   0.0000
     7 N2       -4.5679    0.5352    1.6563   N.ar      1 RES1   0.0000
     8 C5       -3.5517   -0.0330    1.0172   C.ar      1 RES1   0.0000
     9 C6       -3.3346   -0.0335   -0.4613   C.ar      1 RES1   0.0000
    10 C7       -3.8608   -0.8093   -1.4853   C.ar      1 RES1   0.0000
    11 C8       -3.3002   -0.6588   -2.7561   C.ar      1 RES1   0.0000
    12 C9       -2.3251    0.3010   -3.0029   C.ar      1 RES1   0.0000
    13 C10      -1.8733    1.0571   -1.9239   C.ar      1 RES1   0.0000
    14 C11      -0.9006    2.1634   -1.9536   C.ar      1 RES1   0.0000
    15 N3       -0.3168    2.5733   -3.0604   N.ar      1 RES1   0.0000
    16 N4        0.6428    3.4196   -2.9442   N.ar      1 RES1   0.0000
    17 C12       0.8834    4.1144   -1.8553   C.ar      1 RES1   0.0000
    18 C13       2.0936    4.9684   -1.7828   C.3       1 RES1   0.0000
    19 C14       2.1609    6.0662   -2.8635   C.3       1 RES1   0.0000
    20 C15       0.9049    6.9211   -2.8916   C.3       1 RES1   0.0000
    21 C16      -0.0820    3.9966   -0.7989   C.ar      1 RES1   0.0000
    22 C17      -0.5702    5.0769    0.1133   C.3       1 RES1   0.0000
    23 C18       0.2396    5.3901    1.3771   C.3       1 RES1   0.0000
    24 C19       0.4033    4.1637    2.2757   C.3       1 RES1   0.0000
    25 N5       -0.8028    2.8715   -0.7900   N.ar      1 RES1   0.0000
    26 N6       -2.3655    0.8615   -0.6873   N.ar      1 RES1   0.0000
    27 N7       -2.4586   -0.4417    1.6814   N.ar      1 RES1   0.0000
    28 C20      -2.3688   -0.2215    2.9998   C.ar      1 RES1   0.0000
    29 C21      -1.5431   -1.1868    3.7833   C.3       1 RES1   0.0000
    30 C22      -0.1325   -1.3324    3.1811   C.3       1 RES1   0.0000
    31 C23       0.7410   -0.1202    3.5318   C.3       1 RES1   0.0000
    32 H1       -5.1157    3.9624    5.7883   H         1 RES1   0.0000
    33 H2       -4.4779    2.4998    6.5477   H         1 RES1   0.0000
    34 H3       -5.5070    2.3815    5.1210   H         1 RES1   0.0000
    35 H4       -2.8302    3.8258    5.1450   H         1 RES1   0.0000
    36 H5       -3.8037    3.4297    3.7131   H         1 RES1   0.0000
    37 H6       -2.7722    1.2448    5.5286   H         1 RES1   0.0000
    38 H7       -1.6578    1.9922    4.3620   H         1 RES1   0.0000
    39 H8       -4.6281   -1.5465   -1.2958   H         1 RES1   0.0000
    40 H9       -3.6367   -1.2987   -3.5598   H         1 RES1   0.0000
    41 H10      -1.9194    0.4509   -3.9889   H         1 RES1   0.0000
    42 H11       2.9644    4.3219   -1.9252   H         1 RES1   0.0000
    43 H12       2.1632    5.4421   -0.8037   H         1 RES1   0.0000
    44 H13       2.3235    5.6184   -3.8428   H         1 RES1   0.0000
    45 H14       3.0292    6.6792   -2.6174   H         1 RES1   0.0000
    46 H15       0.0461    6.3286   -3.1955   H         1 RES1   0.0000
    47 H16       1.0286    7.7157   -3.6181   H         1 RES1   0.0000
    48 H17       0.7042    7.3751   -1.9231   H         1 RES1   0.0000
    49 H18      -1.5920    4.8107    0.4251   H         1 RES1   0.0000
    50 H19      -0.6237    5.9794   -0.4996   H         1 RES1   0.0000
    51 H20      -0.2984    6.1793    1.9070   H         1 RES1   0.0000
    52 H21       1.2247    5.7845    1.1220   H         1 RES1   0.0000
    53 H22      -0.5627    3.5861    2.3271   H         1 RES1   0.0000
    54 H23       0.6429    4.4887    3.2845   H         1 RES1   0.0000
    55 H24       1.2367    3.5488    1.9195   H         1 RES1   0.0000
    56 H25      -2.0503   -2.1548    3.7094   H         1 RES1   0.0000
    57 H26      -1.4906   -0.9187    4.8382   H         1 RES1   0.0000
    58 H27      -0.2161   -1.4859    2.0891   H         1 RES1   0.0000
    59 H28       0.3236   -2.2341    3.5953   H         1 RES1   0.0000
    60 H29       0.3002    0.8580    3.1755   H         1 RES1   0.0000
    61 H30       1.7453   -0.2234    3.1154   H         1 RES1   0.0000
    62 H31       0.8410   -0.0640    4.6167   H         1 RES1   0.0000
    63 N8        1.2133    0.8672   -0.2770   N.3       1 RES1   0.0000
    64 O1        1.8754    1.1303   -1.2153   O.2       1 RES1   0.0000
    65 O2        0.3583   -0.0338   -0.2680   O.co2     1 RES1   0.0000
    66 O3        1.3006    1.5177    0.7911   O.co2     1 RES1   0.0000
@<TRIPOS>BOND
     1     1     6    1
     2     1     7    1
     3     1    15    1
     4     1    16    1
     5     1    25    1
     6     1    26    1
     7     1    27    1
     8     1    65    1
     9     1    66    1
    10     2     3    1
    11     2    32    1
    12     2    33    1
    13     2    34    1
    14     3     4    1
    15     3    35    1
    16     3    36    1
    17     4     5    1
    18     4    37    1
    19     4    38    1
    20     5     6    1
    21     5    28    2
    22     6     7    2
    23     7     8    1
    24     8     9    1
    25     8    27    2
    26     9    10    1
    27     9    26    2
    28    10    11    2
    29    10    39    1
    30    11    12    1
    31    11    40    1
    32    12    13    2
    33    12    41    1
    34    13    14    1
    35    13    26    1
    36    14    15    1
    37    14    25    2
    38    15    16    2
    39    16    17    1
    40    17    18    1
    41    17    21    2
    42    18    19    1
    43    18    42    1
    44    18    43    1
    45    19    20    1
    46    19    44    1
    47    19    45    1
    48    20    46    1
    49    20    47    1
    50    20    48    1
    51    21    22    1
    52    21    25    1
    53    22    23    1
    54    22    49    1
    55    22    50    1
    56    23    24    1
    57    23    51    1
    58    23    52    1
    59    24    53    1
    60    24    54    1
    61    24    55    1
    62    27    28    1
    63    28    29    1
    64    29    30    1
    65    29    56    1
    66    29    57    1
    67    30    31    1
    68    30    58    1
    69    30    59    1
    70    31    60    1
    71    31    61    1
    72    31    62    1
    73    63    64    2
    74    63    65    1
    75    63    66    1
@<TRIPOS>SUBSTRUCTURE
     1 RES1       66 GROUP             0 ****  ****    0  
