@<TRIPOS>MOLECULE
capped_square_antiprismatic_0_nunpairedes_0_charge_2 Charge: 2 Unpaired_Electrons: 6 XTB_Unpaired_Electrons: 0 XTB_Charge: 2
   146   152     1     0     0
SMALL
NoCharges
****
Generated from Architector

@<TRIPOS>ATOM
     1 Eu1      -0.2336    0.0742    0.0943   Eu        1 RES1   0.0000
     2 C1       -0.6342   -6.0713    2.7228   C.3       1 RES1   0.0000
     3 C2       -1.6892   -5.5440    3.6898   C.3       1 RES1   0.0000
     4 C3       -3.0957   -5.5415    3.0915   C.3       1 RES1   0.0000
     5 C4       -3.2654   -4.5220    1.9676   C.3       1 RES1   0.0000
     6 C5       -4.7089   -4.4656    1.4722   C.3       1 RES1   0.0000
     7 C6       -4.8899   -3.5261    0.2815   C.3       1 RES1   0.0000
     8 C7       -4.7483   -2.0572    0.6784   C.3       1 RES1   0.0000
     9 C8       -4.6485   -1.1303   -0.5306   C.3       1 RES1   0.0000
    10 N1       -3.5990   -1.4963   -1.4941   N.am      1 RES1   0.0000
    11 C9       -3.9199   -1.2577   -2.9033   C.3       1 RES1   0.0000
    12 C10      -3.8775   -2.4760   -3.8393   C.3       1 RES1   0.0000
    13 C11      -3.3955   -2.0237   -5.2215   C.3       1 RES1   0.0000
    14 C12      -3.0988   -3.1646   -6.1920   C.3       1 RES1   0.0000
    15 C13      -2.4766   -2.6558   -7.4958   C.3       1 RES1   0.0000
    16 C14      -1.1592   -1.8847   -7.3727   C.3       1 RES1   0.0000
    17 C15       0.0283   -2.7124   -6.8705   C.3       1 RES1   0.0000
    18 C16       0.1760   -2.7260   -5.3511   C.3       1 RES1   0.0000
    19 C17      -2.3713   -1.7918   -1.0941   C.2       1 RES1   0.0000
    20 O1       -1.9396   -1.6574    0.0774   O.2       1 RES1   0.0000
    21 C18      -1.3210   -2.3369   -2.0959   C.3       1 RES1   0.0000
    22 O2       -0.0950   -1.9187   -1.5115   O.3       1 RES1   0.0000
    23 C19       1.1063   -2.6473   -1.7379   C.3       1 RES1   0.0000
    24 C20       1.7439   -2.3689   -0.3826   C.2       1 RES1   0.0000
    25 O3        1.8264   -1.1873   -0.0241   O.2       1 RES1   0.0000
    26 N2        2.0061   -3.3803    0.4321   N.am      1 RES1   0.0000
    27 C21       2.2203   -3.1215    1.8456   C.3       1 RES1   0.0000
    28 C22       0.9136   -2.6573    2.5281   C.3       1 RES1   0.0000
    29 O4        0.6915   -1.2490    2.4603   O.3       1 RES1   0.0000
    30 C23       1.1463   -0.5018    3.5911   C.3       1 RES1   0.0000
    31 C24       2.6098   -0.0130    3.5372   C.3       1 RES1   0.0000
    32 N3        3.0441    0.4882    2.2373   N.am      1 RES1   0.0000
    33 C25       2.2510    1.0816    1.3490   C.2       1 RES1   0.0000
    34 O5        1.0436    1.2512    1.5427   O.2       1 RES1   0.0000
    35 C26       2.8829    1.5187    0.0134   C.3       1 RES1   0.0000
    36 O6        1.9289    1.3521   -1.0313   O.3       1 RES1   0.0000
    37 C27       1.5874    2.5195   -1.7845   C.3       1 RES1   0.0000
    38 C28       0.2863    3.1018   -1.2032   C.2       1 RES1   0.0000
    39 O7       -0.2992    2.3674   -0.3794   O.2       1 RES1   0.0000
    40 N4       -0.1863    4.2926   -1.5162   N.am      1 RES1   0.0000
    41 C29      -1.4119    4.7099   -0.8249   C.3       1 RES1   0.0000
    42 C30      -1.2267    4.8226    0.6913   C.3       1 RES1   0.0000
    43 C31      -0.2524    5.9239    1.1121   C.3       1 RES1   0.0000
    44 C32      -0.7332    7.3324    0.7611   C.3       1 RES1   0.0000
    45 C33      -2.0211    7.7241    1.4840   C.3       1 RES1   0.0000
    46 C34      -2.4406    9.1592    1.1722   C.3       1 RES1   0.0000
    47 C35      -2.9172    9.3372   -0.2683   C.3       1 RES1   0.0000
    48 C36      -3.4132   10.7551   -0.5158   C.3       1 RES1   0.0000
    49 C37       0.2554    5.1054   -2.6328   C.3       1 RES1   0.0000
    50 C38      -0.6769    4.9428   -3.8426   C.3       1 RES1   0.0000
    51 C39      -0.6251    3.5614   -4.4965   C.3       1 RES1   0.0000
    52 C40       0.6601    3.3118   -5.2851   C.3       1 RES1   0.0000
    53 C41       0.6518    1.9468   -5.9712   C.3       1 RES1   0.0000
    54 C42       1.9355    1.6736   -6.7527   C.3       1 RES1   0.0000
    55 C43       3.1597    1.4707   -5.8616   C.3       1 RES1   0.0000
    56 C44       4.4022    1.1621   -6.6878   C.3       1 RES1   0.0000
    57 H1        0.3319   -6.1534    3.2162   H         1 RES1   0.0000
    58 H2       -0.5299   -5.4181    1.8576   H         1 RES1   0.0000
    59 H3       -0.9187   -7.0584    2.3693   H         1 RES1   0.0000
    60 H4       -1.4297   -4.5294    4.0047   H         1 RES1   0.0000
    61 H5       -1.6895   -6.1733    4.5804   H         1 RES1   0.0000
    62 H6       -3.8110   -5.3117    3.8821   H         1 RES1   0.0000
    63 H7       -3.3279   -6.5395    2.7170   H         1 RES1   0.0000
    64 H8       -2.6168   -4.7833    1.1277   H         1 RES1   0.0000
    65 H9       -2.9555   -3.5395    2.3315   H         1 RES1   0.0000
    66 H10      -5.3634   -4.1432    2.2829   H         1 RES1   0.0000
    67 H11      -5.0126   -5.4695    1.1738   H         1 RES1   0.0000
    68 H12      -5.8765   -3.6848   -0.1569   H         1 RES1   0.0000
    69 H13      -4.1493   -3.7711   -0.4840   H         1 RES1   0.0000
    70 H14      -3.8764   -1.9132    1.3145   H         1 RES1   0.0000
    71 H15      -5.6282   -1.7516    1.2468   H         1 RES1   0.0000
    72 H16      -4.4627   -0.1051   -0.1948   H         1 RES1   0.0000
    73 H17      -5.5948   -1.1535   -1.0736   H         1 RES1   0.0000
    74 H18      -3.2278   -0.4949   -3.2769   H         1 RES1   0.0000
    75 H19      -4.9134   -0.8116   -2.9453   H         1 RES1   0.0000
    76 H20      -4.8605   -2.9414   -3.9118   H         1 RES1   0.0000
    77 H21      -3.1985   -3.2327   -3.4486   H         1 RES1   0.0000
    78 H22      -2.4815   -1.4420   -5.0885   H         1 RES1   0.0000
    79 H23      -4.1362   -1.3588   -5.6675   H         1 RES1   0.0000
    80 H24      -4.0249   -3.6862   -6.4379   H         1 RES1   0.0000
    81 H25      -2.4353   -3.8929   -5.7228   H         1 RES1   0.0000
    82 H26      -3.1996   -2.0044   -7.9892   H         1 RES1   0.0000
    83 H27      -2.3073   -3.5115   -8.1508   H         1 RES1   0.0000
    84 H28      -1.2826   -1.0040   -6.7393   H         1 RES1   0.0000
    85 H29      -0.9183   -1.5185   -8.3720   H         1 RES1   0.0000
    86 H30       0.9447   -2.2936   -7.2909   H         1 RES1   0.0000
    87 H31      -0.0639   -3.7352   -7.2387   H         1 RES1   0.0000
    88 H32       0.1992   -1.7041   -4.9734   H         1 RES1   0.0000
    89 H33       1.1053   -3.2185   -5.0707   H         1 RES1   0.0000
    90 H34      -0.6444   -3.2591   -4.8793   H         1 RES1   0.0000
    91 H35      -1.3987   -1.9120   -3.0992   H         1 RES1   0.0000
    92 H36      -1.3813   -3.4332   -2.1207   H         1 RES1   0.0000
    93 H37       1.6750   -2.1934   -2.5586   H         1 RES1   0.0000
    94 H38       0.9345   -3.7087   -1.9251   H         1 RES1   0.0000
    95 H39       1.9013   -4.3394    0.1296   H         1 RES1   0.0000
    96 H40       2.9760   -2.3374    1.9254   H         1 RES1   0.0000
    97 H41       2.5857   -4.0318    2.3169   H         1 RES1   0.0000
    98 H42       0.9283   -2.9858    3.5716   H         1 RES1   0.0000
    99 H43       0.0487   -3.1157    2.0316   H         1 RES1   0.0000
   100 H44       1.0571   -1.1004    4.5058   H         1 RES1   0.0000
   101 H45       0.4696    0.3550    3.6563   H         1 RES1   0.0000
   102 H46       3.2952   -0.8219    3.8011   H         1 RES1   0.0000
   103 H47       2.6936    0.7774    4.2934   H         1 RES1   0.0000
   104 H48       4.0345    0.4136    2.0522   H         1 RES1   0.0000
   105 H49       3.7492    0.8916   -0.2295   H         1 RES1   0.0000
   106 H50       3.1999    2.5628    0.1003   H         1 RES1   0.0000
   107 H51       1.4221    2.1669   -2.8094   H         1 RES1   0.0000
   108 H52       2.4101    3.2392   -1.7701   H         1 RES1   0.0000
   109 H53      -2.1913    3.9731   -1.0364   H         1 RES1   0.0000
   110 H54      -1.7135    5.6693   -1.2424   H         1 RES1   0.0000
   111 H55      -0.8885    3.8663    1.0995   H         1 RES1   0.0000
   112 H56      -2.2108    5.0210    1.1143   H         1 RES1   0.0000
   113 H57       0.7274    5.7497    0.6536   H         1 RES1   0.0000
   114 H58      -0.1226    5.8602    2.1946   H         1 RES1   0.0000
   115 H59      -0.8778    7.4196   -0.3169   H         1 RES1   0.0000
   116 H60       0.0466    8.0432    1.0408   H         1 RES1   0.0000
   117 H61      -1.8672    7.6195    2.5597   H         1 RES1   0.0000
   118 H62      -2.8379    7.0579    1.2003   H         1 RES1   0.0000
   119 H63      -1.6048    9.8343    1.3650   H         1 RES1   0.0000
   120 H64      -3.2530    9.4437    1.8427   H         1 RES1   0.0000
   121 H65      -3.7242    8.6269   -0.4688   H         1 RES1   0.0000
   122 H66      -2.1002    9.1224   -0.9612   H         1 RES1   0.0000
   123 H67      -4.2447   10.9854    0.1446   H         1 RES1   0.0000
   124 H68      -3.7461   10.8740   -1.5432   H         1 RES1   0.0000
   125 H69      -2.6182   11.4721   -0.3281   H         1 RES1   0.0000
   126 H70       1.2763    4.8438   -2.9063   H         1 RES1   0.0000
   127 H71       0.2472    6.1504   -2.3158   H         1 RES1   0.0000
   128 H72      -0.4096    5.7007   -4.5796   H         1 RES1   0.0000
   129 H73      -1.7011    5.1410   -3.5246   H         1 RES1   0.0000
   130 H74      -1.4692    3.4891   -5.1839   H         1 RES1   0.0000
   131 H75      -0.7703    2.7884   -3.7358   H         1 RES1   0.0000
   132 H76       1.5272    3.3845   -4.6257   H         1 RES1   0.0000
   133 H77       0.7643    4.0883   -6.0452   H         1 RES1   0.0000
   134 H78      -0.1932    1.9113   -6.6603   H         1 RES1   0.0000
   135 H79       0.5026    1.1604   -5.2244   H         1 RES1   0.0000
   136 H80       2.1224    2.5028   -7.4361   H         1 RES1   0.0000
   137 H81       1.7959    0.7777   -7.3588   H         1 RES1   0.0000
   138 H82       2.9661    0.6470   -5.1662   H         1 RES1   0.0000
   139 H83       3.3468    2.3721   -5.2734   H         1 RES1   0.0000
   140 H84       4.2599    0.2554   -7.2695   H         1 RES1   0.0000
   141 H85       5.2712    1.0291   -6.0483   H         1 RES1   0.0000
   142 H86       4.6093    1.9776   -7.3751   H         1 RES1   0.0000
   143 N5       -1.9488    1.0384   -1.3499   N.3       1 RES1   0.0000
   144 O8       -2.6180    1.7445   -2.0330   O.2       1 RES1   0.0000
   145 O9       -0.9882    0.4247   -1.8526   O.co2     1 RES1   0.0000
   146 O10      -2.2012    0.8570   -0.1600   O.co2     1 RES1   0.0000
@<TRIPOS>BOND
     1     1    20    1
     2     1    22    1
     3     1    25    1
     4     1    29    1
     5     1    34    1
     6     1    36    1
     7     1    39    1
     8     1   145    1
     9     1   146    1
    10     2     3    1
    11     2    57    1
    12     2    58    1
    13     2    59    1
    14     3     4    1
    15     3    60    1
    16     3    61    1
    17     4     5    1
    18     4    62    1
    19     4    63    1
    20     5     6    1
    21     5    64    1
    22     5    65    1
    23     6     7    1
    24     6    66    1
    25     6    67    1
    26     7     8    1
    27     7    68    1
    28     7    69    1
    29     8     9    1
    30     8    70    1
    31     8    71    1
    32     9    10    1
    33     9    72    1
    34     9    73    1
    35    10    11    1
    36    10    19    1
    37    11    12    1
    38    11    74    1
    39    11    75    1
    40    12    13    1
    41    12    76    1
    42    12    77    1
    43    13    14    1
    44    13    78    1
    45    13    79    1
    46    14    15    1
    47    14    80    1
    48    14    81    1
    49    15    16    1
    50    15    82    1
    51    15    83    1
    52    16    17    1
    53    16    84    1
    54    16    85    1
    55    17    18    1
    56    17    86    1
    57    17    87    1
    58    18    88    1
    59    18    89    1
    60    18    90    1
    61    19    20    2
    62    19    21    1
    63    21    22    1
    64    21    91    1
    65    21    92    1
    66    22    23    1
    67    23    24    1
    68    23    93    1
    69    23    94    1
    70    24    25    2
    71    24    26    1
    72    26    27    1
    73    26    95    1
    74    27    28    1
    75    27    96    1
    76    27    97    1
    77    28    29    1
    78    28    98    1
    79    28    99    1
    80    29    30    1
    81    30    31    1
    82    30   100    1
    83    30   101    1
    84    31    32    1
    85    31   102    1
    86    31   103    1
    87    32    33    1
    88    32   104    1
    89    33    34    2
    90    33    35    1
    91    35    36    1
    92    35   105    1
    93    35   106    1
    94    36    37    1
    95    37    38    1
    96    37   107    1
    97    37   108    1
    98    38    39    2
    99    38    40    1
   100    40    41    1
   101    40    49    1
   102    41    42    1
   103    41   109    1
   104    41   110    1
   105    42    43    1
   106    42   111    1
   107    42   112    1
   108    43    44    1
   109    43   113    1
   110    43   114    1
   111    44    45    1
   112    44   115    1
   113    44   116    1
   114    45    46    1
   115    45   117    1
   116    45   118    1
   117    46    47    1
   118    46   119    1
   119    46   120    1
   120    47    48    1
   121    47   121    1
   122    47   122    1
   123    48   123    1
   124    48   124    1
   125    48   125    1
   126    49    50    1
   127    49   126    1
   128    49   127    1
   129    50    51    1
   130    50   128    1
   131    50   129    1
   132    51    52    1
   133    51   130    1
   134    51   131    1
   135    52    53    1
   136    52   132    1
   137    52   133    1
   138    53    54    1
   139    53   134    1
   140    53   135    1
   141    54    55    1
   142    54   136    1
   143    54   137    1
   144    55    56    1
   145    55   138    1
   146    55   139    1
   147    56   140    1
   148    56   141    1
   149    56   142    1
   150   143   144    2
   151   143   145    1
   152   143   146    1
@<TRIPOS>SUBSTRUCTURE
     1 RES1      146 GROUP             0 ****  ****    0  
