@<TRIPOS>MOLECULE
capped_square_antiprismatic_0_nunpairedes_0_charge_3 Charge: 3 Unpaired_Electrons: 6 XTB_Unpaired_Electrons: 0 XTB_Charge: 3
   340   345     1     0     0
SMALL
NoCharges
****
Generated from Architector

@<TRIPOS>ATOM
     1 Eu1      -0.1305   -0.2654    0.1460   Eu        1 RES1   0.0000
     2 C1       -1.2488   -6.1892    4.4686   C.3       1 RES1   0.0000
     3 C2        0.0661   -5.6092    3.9593   C.3       1 RES1   0.0000
     4 C3        0.9943   -5.1463    5.0851   C.3       1 RES1   0.0000
     5 C4        0.4209   -4.1096    6.0505   C.3       1 RES1   0.0000
     6 C5        0.1762   -2.7350    5.4281   C.3       1 RES1   0.0000
     7 C6       -1.1847   -2.5996    4.7501   C.3       1 RES1   0.0000
     8 N1       -1.3959   -1.1836    4.4520   N.am      1 RES1   0.0000
     9 C7       -1.9571   -0.3571    5.5226   C.3       1 RES1   0.0000
    10 C8       -3.3236    0.2943    5.1914   C.3       1 RES1   0.0000
    11 C9       -4.4380    0.1178    6.2660   C.3       1 RES1   0.0000
    12 C10      -3.8732   -0.1405    7.6646   C.3       1 RES1   0.0000
    13 C11      -5.4723   -0.9662    5.8814   C.3       1 RES1   0.0000
    14 C12      -6.5671   -0.4308    4.9387   C.3       1 RES1   0.0000
    15 C13      -7.1287   -1.3834    3.8694   C.3       1 RES1   0.0000
    16 C14      -7.6205   -2.7712    4.3090   C.3       1 RES1   0.0000
    17 C15      -7.6281   -3.7182    3.1031   C.3       1 RES1   0.0000
    18 C16      -9.0194   -2.7083    4.9118   C.3       1 RES1   0.0000
    19 C17      -0.9195   -0.7006    3.3131   C.2       1 RES1   0.0000
    20 O1       -0.7075   -1.3754    2.2788   O.2       1 RES1   0.0000
    21 C18      -0.5463    0.7884    3.2558   C.3       1 RES1   0.0000
    22 O2        0.3484    0.9448    2.1569   O.3       1 RES1   0.0000
    23 C19       1.6820    1.3574    2.4059   C.3       1 RES1   0.0000
    24 C20       2.5891    0.1631    2.0543   C.2       1 RES1   0.0000
    25 O3        2.0730   -0.7642    1.4020   O.2       1 RES1   0.0000
    26 N2        3.8305    0.1985    2.5189   N.am      1 RES1   0.0000
    27 C21       4.4726    1.4862    2.7530   C.3       1 RES1   0.0000
    28 C22       4.7209    1.8600    4.2120   C.3       1 RES1   0.0000
    29 C23       5.7936    2.9539    4.2590   C.3       1 RES1   0.0000
    30 C24       5.3501    4.3309    3.7623   C.3       1 RES1   0.0000
    31 C25       4.4584    5.0539    4.7678   C.3       1 RES1   0.0000
    32 C26       4.2140    6.5055    4.3779   C.3       1 RES1   0.0000
    33 C27       4.5954   -1.0232    2.8145   C.3       1 RES1   0.0000
    34 C28       6.0785   -0.9873    2.4410   C.3       1 RES1   0.0000
    35 C29       6.3441   -0.8059    0.9454   C.3       1 RES1   0.0000
    36 C30       5.5417   -1.8409    0.1687   C.3       1 RES1   0.0000
    37 C31       7.8509   -0.8701    0.6285   C.3       1 RES1   0.0000
    38 C32       8.3194    0.2265   -0.3347   C.3       1 RES1   0.0000
    39 C33       7.8215    0.0563   -1.7806   C.3       1 RES1   0.0000
    40 C34       7.1454    1.2963   -2.3754   C.3       1 RES1   0.0000
    41 C35       6.9172    1.0941   -3.8724   C.3       1 RES1   0.0000
    42 C36       5.8233    1.6141   -1.6763   C.3       1 RES1   0.0000
    43 H1       -1.8187   -6.6277    3.6518   H         1 RES1   0.0000
    44 H2       -1.8704   -5.4305    4.9385   H         1 RES1   0.0000
    45 H3       -1.0522   -6.9708    5.1975   H         1 RES1   0.0000
    46 H4       -0.1308   -4.7854    3.2656   H         1 RES1   0.0000
    47 H5        0.5927   -6.3832    3.3955   H         1 RES1   0.0000
    48 H6        1.9057   -4.7364    4.6416   H         1 RES1   0.0000
    49 H7        1.2779   -6.0195    5.6742   H         1 RES1   0.0000
    50 H8        1.1422   -3.9768    6.8574   H         1 RES1   0.0000
    51 H9       -0.5010   -4.4782    6.5006   H         1 RES1   0.0000
    52 H10       0.9434   -2.5099    4.6824   H         1 RES1   0.0000
    53 H11       0.2220   -1.9763    6.2138   H         1 RES1   0.0000
    54 H12      -1.9785   -2.9511    5.4045   H         1 RES1   0.0000
    55 H13      -1.2196   -3.1592    3.8191   H         1 RES1   0.0000
    56 H14      -1.2513    0.4218    5.8250   H         1 RES1   0.0000
    57 H15      -2.0896   -1.0228    6.3697   H         1 RES1   0.0000
    58 H16      -3.7012   -0.1077    4.2572   H         1 RES1   0.0000
    59 H17      -3.1678    1.3601    5.0224   H         1 RES1   0.0000
    60 H18      -4.9757    1.0705    6.3094   H         1 RES1   0.0000
    61 H19      -3.5277   -1.1675    7.7807   H         1 RES1   0.0000
    62 H20      -4.6606    0.0146    8.3962   H         1 RES1   0.0000
    63 H21      -3.0508    0.5389    7.8893   H         1 RES1   0.0000
    64 H22      -5.9548   -1.3271    6.7893   H         1 RES1   0.0000
    65 H23      -4.9604   -1.8211    5.4508   H         1 RES1   0.0000
    66 H24      -6.1668    0.4390    4.4082   H         1 RES1   0.0000
    67 H25      -7.3860   -0.0667    5.5571   H         1 RES1   0.0000
    68 H26      -6.3673   -1.5299    3.1062   H         1 RES1   0.0000
    69 H27      -7.9610   -0.8652    3.3857   H         1 RES1   0.0000
    70 H28      -6.9418   -3.1834    5.0631   H         1 RES1   0.0000
    71 H29      -8.2599   -3.3247    2.3094   H         1 RES1   0.0000
    72 H30      -8.0148   -4.6935    3.3878   H         1 RES1   0.0000
    73 H31      -6.6279   -3.8627    2.6949   H         1 RES1   0.0000
    74 H32      -9.7337   -2.3342    4.1810   H         1 RES1   0.0000
    75 H33      -9.0385   -2.0550    5.7800   H         1 RES1   0.0000
    76 H34      -9.3420   -3.7014    5.2162   H         1 RES1   0.0000
    77 H35      -0.0944    1.1119    4.2017   H         1 RES1   0.0000
    78 H36      -1.4342    1.4099    3.0544   H         1 RES1   0.0000
    79 H37       1.8451    1.6702    3.4438   H         1 RES1   0.0000
    80 H38       1.8919    2.2159    1.7521   H         1 RES1   0.0000
    81 H39       3.8921    2.2647    2.2592   H         1 RES1   0.0000
    82 H40       5.4341    1.4495    2.2359   H         1 RES1   0.0000
    83 H41       5.0839    0.9760    4.7407   H         1 RES1   0.0000
    84 H42       3.7923    2.1916    4.6828   H         1 RES1   0.0000
    85 H43       6.6310    2.6089    3.6500   H         1 RES1   0.0000
    86 H44       6.1564    3.0608    5.2787   H         1 RES1   0.0000
    87 H45       4.8504    4.2454    2.7943   H         1 RES1   0.0000
    88 H46       6.2430    4.9357    3.5994   H         1 RES1   0.0000
    89 H47       4.9487    5.0292    5.7418   H         1 RES1   0.0000
    90 H48       3.5010    4.5357    4.8646   H         1 RES1   0.0000
    91 H49       5.1549    7.0483    4.3353   H         1 RES1   0.0000
    92 H50       3.5771    6.9889    5.1140   H         1 RES1   0.0000
    93 H51       3.7369    6.5778    3.4013   H         1 RES1   0.0000
    94 H52       4.0818   -1.8480    2.3180   H         1 RES1   0.0000
    95 H53       4.5381   -1.1889    3.8993   H         1 RES1   0.0000
    96 H54       6.5124   -1.9354    2.7668   H         1 RES1   0.0000
    97 H55       6.5754   -0.1980    3.0039   H         1 RES1   0.0000
    98 H56       5.9879    0.1823    0.6490   H         1 RES1   0.0000
    99 H57       5.6123   -2.8132    0.6441   H         1 RES1   0.0000
   100 H58       5.9349   -1.9303   -0.8345   H         1 RES1   0.0000
   101 H59       4.4934   -1.5478    0.1159   H         1 RES1   0.0000
   102 H60       8.1088   -1.8422    0.2087   H         1 RES1   0.0000
   103 H61       8.4232   -0.7709    1.5520   H         1 RES1   0.0000
   104 H62       9.4101    0.2340   -0.3345   H         1 RES1   0.0000
   105 H63       8.0063    1.1941    0.0607   H         1 RES1   0.0000
   106 H64       7.1178   -0.7730   -1.8395   H         1 RES1   0.0000
   107 H65       8.6716   -0.2064   -2.4110   H         1 RES1   0.0000
   108 H66       7.8129    2.1527   -2.2486   H         1 RES1   0.0000
   109 H67       6.1791    0.3135   -4.0479   H         1 RES1   0.0000
   110 H68       7.8409    0.8073   -4.3680   H         1 RES1   0.0000
   111 H69       6.5605    2.0120   -4.3315   H         1 RES1   0.0000
   112 H70       5.9838    1.8692   -0.6316   H         1 RES1   0.0000
   113 H71       5.1431    0.7620   -1.7252   H         1 RES1   0.0000
   114 H72       5.3484    2.4702   -2.1482   H         1 RES1   0.0000
   115 C37      -5.2306   -3.3556   -6.3598   C.3       1 RES1   0.0000
   116 C38      -6.2704   -3.2535   -5.2549   C.3       1 RES1   0.0000
   117 C39      -5.6980   -2.6905   -3.9591   C.3       1 RES1   0.0000
   118 C40      -4.7185   -3.6192   -3.2405   C.3       1 RES1   0.0000
   119 C41      -4.1171   -2.8818   -2.0449   C.3       1 RES1   0.0000
   120 C42      -3.6422   -3.7965   -0.9152   C.3       1 RES1   0.0000
   121 N3       -2.2289   -4.1668   -0.8338   N.am      1 RES1   0.0000
   122 C43      -1.8520   -5.5784   -0.6779   C.3       1 RES1   0.0000
   123 C44      -2.9725   -6.6070   -0.5671   C.3       1 RES1   0.0000
   124 C45      -2.4015   -8.0350   -0.6557   C.3       1 RES1   0.0000
   125 C46      -1.3177   -8.2759    0.4014   C.3       1 RES1   0.0000
   126 C47      -1.9187   -8.3934   -2.0723   C.3       1 RES1   0.0000
   127 C48      -3.0404   -8.7523   -3.0589   C.3       1 RES1   0.0000
   128 C49      -3.5925   -7.5859   -3.8775   C.3       1 RES1   0.0000
   129 C50      -4.6591   -8.0296   -4.8867   C.3       1 RES1   0.0000
   130 C51      -5.9381   -8.4761   -4.1814   C.3       1 RES1   0.0000
   131 C52      -4.9699   -6.8833   -5.8443   C.3       1 RES1   0.0000
   132 C53      -1.2939   -3.2402   -0.6836   C.2       1 RES1   0.0000
   133 O4       -1.5037   -2.0038   -0.7253   O.2       1 RES1   0.0000
   134 C54       0.1499   -3.6979   -0.4030   C.3       1 RES1   0.0000
   135 O5        1.0221   -2.5814   -0.5069   O.3       1 RES1   0.0000
   136 C55       1.9348   -2.5953   -1.5966   C.3       1 RES1   0.0000
   137 C56       1.7909   -1.3070   -2.4003   C.2       1 RES1   0.0000
   138 O6        1.0525   -0.4024   -1.9378   O.2       1 RES1   0.0000
   139 N4        2.4300   -1.2223   -3.5607   N.am      1 RES1   0.0000
   140 C57       1.9727   -0.2281   -4.5385   C.3       1 RES1   0.0000
   141 C58       3.0290    0.6145   -5.2471   C.3       1 RES1   0.0000
   142 C59       3.5511    1.8168   -4.4634   C.3       1 RES1   0.0000
   143 C60       2.5811    2.9855   -4.2777   C.3       1 RES1   0.0000
   144 C61       3.3406    4.2074   -3.7527   C.3       1 RES1   0.0000
   145 C62       2.4937    5.4629   -3.5845   C.3       1 RES1   0.0000
   146 C63       3.3008   -2.2877   -4.0611   C.3       1 RES1   0.0000
   147 C64       4.6841   -2.3351   -3.3854   C.3       1 RES1   0.0000
   148 C65       5.3498   -3.7310   -3.2331   C.3       1 RES1   0.0000
   149 C66       5.1356   -4.6334   -4.4499   C.3       1 RES1   0.0000
   150 C67       4.9827   -4.4768   -1.9292   C.3       1 RES1   0.0000
   151 C68       6.2067   -5.0131   -1.1765   C.3       1 RES1   0.0000
   152 C69       5.8319   -5.6482    0.1655   C.3       1 RES1   0.0000
   153 C70       7.0325   -5.9160    1.0879   C.3       1 RES1   0.0000
   154 C71       6.6295   -6.8744    2.2084   C.3       1 RES1   0.0000
   155 C72       7.5750   -4.6252    1.6970   C.3       1 RES1   0.0000
   156 H73      -5.6732   -3.7656   -7.2611   H         1 RES1   0.0000
   157 H74      -4.4101   -4.0020   -6.0656   H         1 RES1   0.0000
   158 H75      -4.8253   -2.3756   -6.5956   H         1 RES1   0.0000
   159 H76      -6.7042   -4.2349   -5.0667   H         1 RES1   0.0000
   160 H77      -7.0767   -2.5996   -5.5879   H         1 RES1   0.0000
   161 H78      -6.5242   -2.4647   -3.2801   H         1 RES1   0.0000
   162 H79      -5.1880   -1.7536   -4.1817   H         1 RES1   0.0000
   163 H80      -3.9337   -3.9576   -3.9144   H         1 RES1   0.0000
   164 H81      -5.2623   -4.4972   -2.8863   H         1 RES1   0.0000
   165 H82      -4.9196   -2.2776   -1.6186   H         1 RES1   0.0000
   166 H83      -3.3312   -2.1906   -2.3494   H         1 RES1   0.0000
   167 H84      -4.2315   -4.7034   -0.9646   H         1 RES1   0.0000
   168 H85      -3.8748   -3.3099    0.0217   H         1 RES1   0.0000
   169 H86      -1.2452   -5.6579    0.2279   H         1 RES1   0.0000
   170 H87      -1.2404   -5.8603   -1.5397   H         1 RES1   0.0000
   171 H88      -3.6885   -6.5038   -1.3781   H         1 RES1   0.0000
   172 H89      -3.4972   -6.4825    0.3824   H         1 RES1   0.0000
   173 H90      -3.2259   -8.7113   -0.4157   H         1 RES1   0.0000
   174 H91      -0.3641   -7.8276    0.1262   H         1 RES1   0.0000
   175 H92      -1.1566   -9.3441    0.5233   H         1 RES1   0.0000
   176 H93      -1.6288   -7.8724    1.3656   H         1 RES1   0.0000
   177 H94      -1.2565   -9.2547   -1.9778   H         1 RES1   0.0000
   178 H95      -1.3149   -7.5887   -2.4972   H         1 RES1   0.0000
   179 H96      -3.8508   -9.2240   -2.5055   H         1 RES1   0.0000
   180 H97      -2.6505   -9.4912   -3.7606   H         1 RES1   0.0000
   181 H98      -2.7686   -7.1079   -4.4151   H         1 RES1   0.0000
   182 H99      -4.0432   -6.8327   -3.2288   H         1 RES1   0.0000
   183 H100     -4.2680   -8.8697   -5.4672   H         1 RES1   0.0000
   184 H101     -6.3249   -7.6810   -3.5445   H         1 RES1   0.0000
   185 H102     -5.7661   -9.3553   -3.5675   H         1 RES1   0.0000
   186 H103     -6.7040   -8.7296   -4.9094   H         1 RES1   0.0000
   187 H104     -5.3926   -6.0459   -5.2955   H         1 RES1   0.0000
   188 H105     -5.6882   -7.1910   -6.5988   H         1 RES1   0.0000
   189 H106     -4.0694   -6.5480   -6.3554   H         1 RES1   0.0000
   190 H107      0.4626   -4.5094   -1.0684   H         1 RES1   0.0000
   191 H108      0.2185   -4.0482    0.6393   H         1 RES1   0.0000
   192 H109      1.7666   -3.4610   -2.2482   H         1 RES1   0.0000
   193 H110      2.9503   -2.6695   -1.1883   H         1 RES1   0.0000
   194 H111      1.2702    0.4253   -4.0204   H         1 RES1   0.0000
   195 H112      1.4354   -0.8047   -5.2981   H         1 RES1   0.0000
   196 H113      2.5717    0.9620   -6.1753   H         1 RES1   0.0000
   197 H114      3.8756   -0.0181   -5.5185   H         1 RES1   0.0000
   198 H115      4.4185    2.1953   -5.0040   H         1 RES1   0.0000
   199 H116      3.8882    1.4739   -3.4878   H         1 RES1   0.0000
   200 H117      1.7897    2.7089   -3.5773   H         1 RES1   0.0000
   201 H118      2.1131    3.2378   -5.2299   H         1 RES1   0.0000
   202 H119      4.1453    4.4407   -4.4504   H         1 RES1   0.0000
   203 H120      3.8023    3.9557   -2.7944   H         1 RES1   0.0000
   204 H121      2.0473    5.7569   -4.5300   H         1 RES1   0.0000
   205 H122      3.1184    6.2833   -3.2375   H         1 RES1   0.0000
   206 H123      1.6944    5.3185   -2.8606   H         1 RES1   0.0000
   207 H124      3.4295   -2.1047   -5.1266   H         1 RES1   0.0000
   208 H125      2.7992   -3.2509   -3.9644   H         1 RES1   0.0000
   209 H126      4.6048   -1.8690   -2.4040   H         1 RES1   0.0000
   210 H127      5.3565   -1.7082   -3.9731   H         1 RES1   0.0000
   211 H128      6.4242   -3.5289   -3.1874   H         1 RES1   0.0000
   212 H129      4.1025   -4.9663   -4.5387   H         1 RES1   0.0000
   213 H130      5.7572   -5.5210   -4.3519   H         1 RES1   0.0000
   214 H131      5.4164   -4.1269   -5.3707   H         1 RES1   0.0000
   215 H132      4.3170   -5.3124   -2.1502   H         1 RES1   0.0000
   216 H133      4.4536   -3.8077   -1.2510   H         1 RES1   0.0000
   217 H134      6.9054   -4.1948   -1.0042   H         1 RES1   0.0000
   218 H135      6.7153   -5.7537   -1.7920   H         1 RES1   0.0000
   219 H136      5.3173   -6.5903   -0.0276   H         1 RES1   0.0000
   220 H137      5.1255   -5.0027    0.6973   H         1 RES1   0.0000
   221 H138      7.8277   -6.3855    0.5029   H         1 RES1   0.0000
   222 H139      5.7989   -6.4637    2.7821   H         1 RES1   0.0000
   223 H140      7.4615   -7.0426    2.8891   H         1 RES1   0.0000
   224 H141      6.3253   -7.8369    1.8040   H         1 RES1   0.0000
   225 H142      6.8101   -4.1490    2.3100   H         1 RES1   0.0000
   226 H143      7.8958   -3.9291    0.9280   H         1 RES1   0.0000
   227 H144      8.4320   -4.8315    2.3322   H         1 RES1   0.0000
   228 C73      -3.0015    9.2950    3.3621   C.3       1 RES1   0.0000
   229 C74      -2.1114    8.1854    2.8203   C.3       1 RES1   0.0000
   230 C75      -2.0033    8.2387    1.2987   C.3       1 RES1   0.0000
   231 C76      -1.1567    7.1107    0.7039   C.3       1 RES1   0.0000
   232 C77       0.3333    7.2523    1.0109   C.3       1 RES1   0.0000
   233 C78       1.1638    6.0401    0.5561   C.3       1 RES1   0.0000
   234 N5        0.7564    4.8067    1.2272   N.am      1 RES1   0.0000
   235 C79       1.2178    4.7562    2.6231   C.3       1 RES1   0.0000
   236 C80       0.3260    4.0390    3.6282   C.3       1 RES1   0.0000
   237 C81      -0.8060    4.9197    4.1614   C.3       1 RES1   0.0000
   238 C82      -0.2696    5.9739    5.1292   C.3       1 RES1   0.0000
   239 C83      -1.8905    4.0520    4.8232   C.3       1 RES1   0.0000
   240 C84      -3.3154    4.5361    4.5509   C.3       1 RES1   0.0000
   241 C85      -3.7678    4.2788    3.1126   C.3       1 RES1   0.0000
   242 C86      -5.2126    4.7249    2.8582   C.3       1 RES1   0.0000
   243 C87      -6.2085    3.7454    3.4743   C.3       1 RES1   0.0000
   244 C88      -5.4787    4.8780    1.3612   C.3       1 RES1   0.0000
   245 C89       0.1912    3.7731    0.5810   C.2       1 RES1   0.0000
   246 O7       -0.4985    2.8872    1.0852   O.2       1 RES1   0.0000
   247 C90       0.5102    3.5843   -0.9237   C.3       1 RES1   0.0000
   248 O8        0.1317    2.2576   -1.3023   O.3       1 RES1   0.0000
   249 C91      -0.9070    2.1629   -2.2695   C.3       1 RES1   0.0000
   250 C92      -2.1280    1.4901   -1.6369   C.2       1 RES1   0.0000
   251 O9       -1.9171    0.7862   -0.6257   O.2       1 RES1   0.0000
   252 N6       -3.3269    1.7206   -2.1477   N.am      1 RES1   0.0000
   253 C93      -4.5791    1.3363   -1.4836   C.3       1 RES1   0.0000
   254 C94      -4.5467    1.1382    0.0336   C.3       1 RES1   0.0000
   255 C95      -4.3795   -0.3371    0.3763   C.3       1 RES1   0.0000
   256 C96      -4.1172   -0.6216    1.8501   C.3       1 RES1   0.0000
   257 C97      -3.9024   -2.1307    1.9844   C.3       1 RES1   0.0000
   258 C98      -3.9284   -2.7854    3.3579   C.3       1 RES1   0.0000
   259 C99      -3.5457    2.4045   -3.4269   C.3       1 RES1   0.0000
   260 C100     -2.9174    1.7626   -4.6711   C.3       1 RES1   0.0000
   261 C101     -3.5558    0.4624   -5.1831   C.3       1 RES1   0.0000
   262 C102     -4.9612    0.7148   -5.7283   C.3       1 RES1   0.0000
   263 C103     -2.6798   -0.1272   -6.3031   C.3       1 RES1   0.0000
   264 C104     -1.4120   -0.8521   -5.8449   C.3       1 RES1   0.0000
   265 C105     -1.6941   -2.2297   -5.2474   C.3       1 RES1   0.0000
   266 C106     -0.4339   -3.0081   -4.8501   C.3       1 RES1   0.0000
   267 C107      0.3765   -3.4415   -6.0699   C.3       1 RES1   0.0000
   268 C108     -0.8103   -4.2376   -4.0242   C.3       1 RES1   0.0000
   269 H145     -3.0443    9.2514    4.4478   H         1 RES1   0.0000
   270 H146     -4.0128    9.2024    2.9739   H         1 RES1   0.0000
   271 H147     -2.6136   10.2696    3.0772   H         1 RES1   0.0000
   272 H148     -2.5230    7.2192    3.1191   H         1 RES1   0.0000
   273 H149     -1.1235    8.2880    3.2689   H         1 RES1   0.0000
   274 H150     -1.5948    9.2018    0.9939   H         1 RES1   0.0000
   275 H151     -3.0074    8.1710    0.8794   H         1 RES1   0.0000
   276 H152     -1.2878    7.0914   -0.3808   H         1 RES1   0.0000
   277 H153     -1.5150    6.1569    1.0988   H         1 RES1   0.0000
   278 H154      0.4704    7.4111    2.0781   H         1 RES1   0.0000
   279 H155      0.7326    8.1292    0.4987   H         1 RES1   0.0000
   280 H156      2.2237    6.2213    0.7717   H         1 RES1   0.0000
   281 H157      1.0409    5.9361   -0.5183   H         1 RES1   0.0000
   282 H158      1.3679    5.7827    2.9530   H         1 RES1   0.0000
   283 H159      2.2073    4.2787    2.5971   H         1 RES1   0.0000
   284 H160      0.9466    3.7022    4.4638   H         1 RES1   0.0000
   285 H161     -0.1114    3.1815    3.1346   H         1 RES1   0.0000
   286 H162     -1.2403    5.4330    3.3016   H         1 RES1   0.0000
   287 H163      0.2344    5.5104    5.9771   H         1 RES1   0.0000
   288 H164     -1.0821    6.5865    5.5119   H         1 RES1   0.0000
   289 H165      0.4489    6.6348    4.6447   H         1 RES1   0.0000
   290 H166     -1.7088    4.0169    5.9001   H         1 RES1   0.0000
   291 H167     -1.8150    3.0274    4.4494   H         1 RES1   0.0000
   292 H168     -3.3847    5.6005    4.7761   H         1 RES1   0.0000
   293 H169     -3.9836    4.0130    5.2344   H         1 RES1   0.0000
   294 H170     -3.6750    3.2114    2.8855   H         1 RES1   0.0000
   295 H171     -3.1091    4.8125    2.4252   H         1 RES1   0.0000
   296 H172     -5.3576    5.7037    3.3244   H         1 RES1   0.0000
   297 H173     -6.0500    2.7387    3.0877   H         1 RES1   0.0000
   298 H174     -7.2263    4.0450    3.2393   H         1 RES1   0.0000
   299 H175     -6.1118    3.7189    4.5563   H         1 RES1   0.0000
   300 H176     -5.3015    3.9413    0.8355   H         1 RES1   0.0000
   301 H177     -4.8353    5.6410    0.9278   H         1 RES1   0.0000
   302 H178     -6.5110    5.1737    1.1925   H         1 RES1   0.0000
   303 H179      1.5940    3.6641   -1.0857   H         1 RES1   0.0000
   304 H180      0.0118    4.3191   -1.5618   H         1 RES1   0.0000
   305 H181     -0.5153    1.5471   -3.0907   H         1 RES1   0.0000
   306 H182     -1.1764    3.1519   -2.6477   H         1 RES1   0.0000
   307 H183     -4.9505    0.4261   -1.9652   H         1 RES1   0.0000
   308 H184     -5.2808    2.1437   -1.7025   H         1 RES1   0.0000
   309 H185     -5.5022    1.4965    0.4212   H         1 RES1   0.0000
   310 H186     -3.7562    1.7405    0.4835   H         1 RES1   0.0000
   311 H187     -3.5366   -0.7323   -0.1963   H         1 RES1   0.0000
   312 H188     -5.2910   -0.8587    0.0757   H         1 RES1   0.0000
   313 H189     -4.9602   -0.2745    2.4454   H         1 RES1   0.0000
   314 H190     -3.2199   -0.0720    2.1469   H         1 RES1   0.0000
   315 H191     -2.9381   -2.3449    1.5126   H         1 RES1   0.0000
   316 H192     -4.7026   -2.5985    1.4100   H         1 RES1   0.0000
   317 H193     -3.4951   -2.1381    4.1018   H         1 RES1   0.0000
   318 H194     -3.3716   -3.7197    3.3277   H         1 RES1   0.0000
   319 H195     -4.9421   -3.0223    3.6562   H         1 RES1   0.0000
   320 H196     -3.2051    3.4420   -3.3365   H         1 RES1   0.0000
   321 H197     -4.6228    2.4409   -3.5874   H         1 RES1   0.0000
   322 H198     -1.8617    1.5799   -4.5036   H         1 RES1   0.0000
   323 H199     -2.9885    2.5053   -5.4675   H         1 RES1   0.0000
   324 H200     -3.6136   -0.2567   -4.3601   H         1 RES1   0.0000
   325 H201     -4.9221    1.4203   -6.5559   H         1 RES1   0.0000
   326 H202     -5.6349    1.1068   -4.9682   H         1 RES1   0.0000
   327 H203     -5.3881   -0.2125   -6.1012   H         1 RES1   0.0000
   328 H204     -2.4081    0.6823   -6.9830   H         1 RES1   0.0000
   329 H205     -3.2730   -0.8317   -6.8847   H         1 RES1   0.0000
   330 H206     -0.8753   -0.2410   -5.1156   H         1 RES1   0.0000
   331 H207     -0.7699   -0.9667   -6.7177   H         1 RES1   0.0000
   332 H208     -2.2588   -2.8190   -5.9695   H         1 RES1   0.0000
   333 H209     -2.3143   -2.1028   -4.3595   H         1 RES1   0.0000
   334 H210      0.1770   -2.3572   -4.2106   H         1 RES1   0.0000
   335 H211     -0.2438   -4.0346   -6.7375   H         1 RES1   0.0000
   336 H212      1.2290   -4.0517   -5.7766   H         1 RES1   0.0000
   337 H213      0.7515   -2.5888   -6.6295   H         1 RES1   0.0000
   338 H214     -1.4226   -4.9201   -4.6077   H         1 RES1   0.0000
   339 H215     -1.3727   -3.9374   -3.1447   H         1 RES1   0.0000
   340 H216      0.0823   -4.7785   -3.7068   H         1 RES1   0.0000
@<TRIPOS>BOND
     1     1    20    1
     2     1    22    1
     3     1    25    1
     4     1   133    1
     5     1   135    1
     6     1   138    1
     7     1   246    1
     8     1   248    1
     9     1   251    1
    10     2     3    1
    11     2    43    1
    12     2    44    1
    13     2    45    1
    14     3     4    1
    15     3    46    1
    16     3    47    1
    17     4     5    1
    18     4    48    1
    19     4    49    1
    20     5     6    1
    21     5    50    1
    22     5    51    1
    23     6     7    1
    24     6    52    1
    25     6    53    1
    26     7     8    1
    27     7    54    1
    28     7    55    1
    29     8     9    1
    30     8    19    1
    31     9    10    1
    32     9    56    1
    33     9    57    1
    34    10    11    1
    35    10    58    1
    36    10    59    1
    37    11    12    1
    38    11    13    1
    39    11    60    1
    40    12    61    1
    41    12    62    1
    42    12    63    1
    43    13    14    1
    44    13    64    1
    45    13    65    1
    46    14    15    1
    47    14    66    1
    48    14    67    1
    49    15    16    1
    50    15    68    1
    51    15    69    1
    52    16    17    1
    53    16    18    1
    54    16    70    1
    55    17    71    1
    56    17    72    1
    57    17    73    1
    58    18    74    1
    59    18    75    1
    60    18    76    1
    61    19    20    2
    62    19    21    1
    63    21    22    1
    64    21    77    1
    65    21    78    1
    66    22    23    1
    67    23    24    1
    68    23    79    1
    69    23    80    1
    70    24    25    2
    71    24    26    1
    72    26    27    1
    73    26    33    1
    74    27    28    1
    75    27    81    1
    76    27    82    1
    77    28    29    1
    78    28    83    1
    79    28    84    1
    80    29    30    1
    81    29    85    1
    82    29    86    1
    83    30    31    1
    84    30    87    1
    85    30    88    1
    86    31    32    1
    87    31    89    1
    88    31    90    1
    89    32    91    1
    90    32    92    1
    91    32    93    1
    92    33    34    1
    93    33    94    1
    94    33    95    1
    95    34    35    1
    96    34    96    1
    97    34    97    1
    98    35    36    1
    99    35    37    1
   100    35    98    1
   101    36    99    1
   102    36   100    1
   103    36   101    1
   104    37    38    1
   105    37   102    1
   106    37   103    1
   107    38    39    1
   108    38   104    1
   109    38   105    1
   110    39    40    1
   111    39   106    1
   112    39   107    1
   113    40    41    1
   114    40    42    1
   115    40   108    1
   116    41   109    1
   117    41   110    1
   118    41   111    1
   119    42   112    1
   120    42   113    1
   121    42   114    1
   122   115   116    1
   123   115   156    1
   124   115   157    1
   125   115   158    1
   126   116   117    1
   127   116   159    1
   128   116   160    1
   129   117   118    1
   130   117   161    1
   131   117   162    1
   132   118   119    1
   133   118   163    1
   134   118   164    1
   135   119   120    1
   136   119   165    1
   137   119   166    1
   138   120   121    1
   139   120   167    1
   140   120   168    1
   141   121   122    1
   142   121   132    1
   143   122   123    1
   144   122   169    1
   145   122   170    1
   146   123   124    1
   147   123   171    1
   148   123   172    1
   149   124   125    1
   150   124   126    1
   151   124   173    1
   152   125   174    1
   153   125   175    1
   154   125   176    1
   155   126   127    1
   156   126   177    1
   157   126   178    1
   158   127   128    1
   159   127   179    1
   160   127   180    1
   161   128   129    1
   162   128   181    1
   163   128   182    1
   164   129   130    1
   165   129   131    1
   166   129   183    1
   167   130   184    1
   168   130   185    1
   169   130   186    1
   170   131   187    1
   171   131   188    1
   172   131   189    1
   173   132   133    2
   174   132   134    1
   175   134   135    1
   176   134   190    1
   177   134   191    1
   178   135   136    1
   179   136   137    1
   180   136   192    1
   181   136   193    1
   182   137   138    2
   183   137   139    1
   184   139   140    1
   185   139   146    1
   186   140   141    1
   187   140   194    1
   188   140   195    1
   189   141   142    1
   190   141   196    1
   191   141   197    1
   192   142   143    1
   193   142   198    1
   194   142   199    1
   195   143   144    1
   196   143   200    1
   197   143   201    1
   198   144   145    1
   199   144   202    1
   200   144   203    1
   201   145   204    1
   202   145   205    1
   203   145   206    1
   204   146   147    1
   205   146   207    1
   206   146   208    1
   207   147   148    1
   208   147   209    1
   209   147   210    1
   210   148   149    1
   211   148   150    1
   212   148   211    1
   213   149   212    1
   214   149   213    1
   215   149   214    1
   216   150   151    1
   217   150   215    1
   218   150   216    1
   219   151   152    1
   220   151   217    1
   221   151   218    1
   222   152   153    1
   223   152   219    1
   224   152   220    1
   225   153   154    1
   226   153   155    1
   227   153   221    1
   228   154   222    1
   229   154   223    1
   230   154   224    1
   231   155   225    1
   232   155   226    1
   233   155   227    1
   234   228   229    1
   235   228   269    1
   236   228   270    1
   237   228   271    1
   238   229   230    1
   239   229   272    1
   240   229   273    1
   241   230   231    1
   242   230   274    1
   243   230   275    1
   244   231   232    1
   245   231   276    1
   246   231   277    1
   247   232   233    1
   248   232   278    1
   249   232   279    1
   250   233   234    1
   251   233   280    1
   252   233   281    1
   253   234   235    1
   254   234   245    1
   255   235   236    1
   256   235   282    1
   257   235   283    1
   258   236   237    1
   259   236   284    1
   260   236   285    1
   261   237   238    1
   262   237   239    1
   263   237   286    1
   264   238   287    1
   265   238   288    1
   266   238   289    1
   267   239   240    1
   268   239   290    1
   269   239   291    1
   270   240   241    1
   271   240   292    1
   272   240   293    1
   273   241   242    1
   274   241   294    1
   275   241   295    1
   276   242   243    1
   277   242   244    1
   278   242   296    1
   279   243   297    1
   280   243   298    1
   281   243   299    1
   282   244   300    1
   283   244   301    1
   284   244   302    1
   285   245   246    2
   286   245   247    1
   287   247   248    1
   288   247   303    1
   289   247   304    1
   290   248   249    1
   291   249   250    1
   292   249   305    1
   293   249   306    1
   294   250   251    2
   295   250   252    1
   296   252   253    1
   297   252   259    1
   298   253   254    1
   299   253   307    1
   300   253   308    1
   301   254   255    1
   302   254   309    1
   303   254   310    1
   304   255   256    1
   305   255   311    1
   306   255   312    1
   307   256   257    1
   308   256   313    1
   309   256   314    1
   310   257   258    1
   311   257   315    1
   312   257   316    1
   313   258   317    1
   314   258   318    1
   315   258   319    1
   316   259   260    1
   317   259   320    1
   318   259   321    1
   319   260   261    1
   320   260   322    1
   321   260   323    1
   322   261   262    1
   323   261   263    1
   324   261   324    1
   325   262   325    1
   326   262   326    1
   327   262   327    1
   328   263   264    1
   329   263   328    1
   330   263   329    1
   331   264   265    1
   332   264   330    1
   333   264   331    1
   334   265   266    1
   335   265   332    1
   336   265   333    1
   337   266   267    1
   338   266   268    1
   339   266   334    1
   340   267   335    1
   341   267   336    1
   342   267   337    1
   343   268   338    1
   344   268   339    1
   345   268   340    1
@<TRIPOS>SUBSTRUCTURE
     1 RES1      340 GROUP             0 ****  ****    0  
