@<TRIPOS>MOLECULE
am_c3_9H2O_c0_0_nunpairedes_0_charge_3 Charge: 3 Unpaired_Electrons: 6 XTB_Unpaired_Electrons: 0 XTB_Charge: 3
   248   251     1     0     0
SMALL
NoCharges
****
Generated from Architector

@<TRIPOS>ATOM
     1 Eu1      -0.0282   -0.1588   -0.0415   Eu        1 RES1   0.0000
     2 C1       -3.7552    3.1282   -0.9908   C.3       1 RES1   0.0000
     3 C2       -3.2457    4.0956   -2.0520   C.3       1 RES1   0.0000
     4 C3       -3.2355    3.5007   -3.4614   C.3       1 RES1   0.0000
     5 C4       -2.1592    2.4312   -3.6552   C.3       1 RES1   0.0000
     6 N1       -0.8140    2.9144   -3.3783   N.am      1 RES1   0.0000
     7 C5       -0.2830    3.8999   -4.3072   C.3       1 RES1   0.0000
     8 C6       -0.3030    5.3418   -3.7801   C.3       1 RES1   0.0000
     9 C7        0.5712    6.2605   -4.6360   C.3       1 RES1   0.0000
    10 C8        0.0130    6.4507   -6.0409   C.3       1 RES1   0.0000
    11 C9       -0.1398    2.3913   -2.3497   C.2       1 RES1   0.0000
    12 O1       -0.6494    1.5344   -1.6058   O.2       1 RES1   0.0000
    13 C10       1.3016    2.8678   -2.1485   C.3       1 RES1   0.0000
    14 C11       1.6301    2.9743   -0.6627   C.2       1 RES1   0.0000
    15 O2        1.3021    2.0432    0.0898   O.2       1 RES1   0.0000
    16 N2        2.2421    4.0805   -0.2212   N.am      1 RES1   0.0000
    17 C12       3.0301    5.0154   -1.0092   C.3       1 RES1   0.0000
    18 C13       4.5418    4.8831   -0.7701   C.3       1 RES1   0.0000
    19 C14       5.1261    3.5154   -1.1323   C.3       1 RES1   0.0000
    20 C15       4.9655    2.4691   -0.0301   C.3       1 RES1   0.0000
    21 C16       2.2140    4.3685    1.2097   C.3       1 RES1   0.0000
    22 C17       0.8530    4.9327    1.6221   C.3       1 RES1   0.0000
    23 C18       0.4403    6.1985    0.8722   C.3       1 RES1   0.0000
    24 C19      -0.8582    6.7530    1.4434   C.3       1 RES1   0.0000
    25 H1       -3.8047    3.6330   -0.0299   H         1 RES1   0.0000
    26 H2       -3.0907    2.2710   -0.8946   H         1 RES1   0.0000
    27 H3       -4.7557    2.7856   -1.2440   H         1 RES1   0.0000
    28 H4       -2.2321    4.4061   -1.7909   H         1 RES1   0.0000
    29 H5       -3.8751    4.9870   -2.0499   H         1 RES1   0.0000
    30 H6       -3.0857    4.3004   -4.1865   H         1 RES1   0.0000
    31 H7       -4.2022    3.0458   -3.6853   H         1 RES1   0.0000
    32 H8       -2.1802    2.0694   -4.6887   H         1 RES1   0.0000
    33 H9       -2.3291    1.5974   -2.9747   H         1 RES1   0.0000
    34 H10      -0.8920    3.8452   -5.2086   H         1 RES1   0.0000
    35 H11       0.7359    3.6233   -4.5930   H         1 RES1   0.0000
    36 H12       0.0445    5.3666   -2.7447   H         1 RES1   0.0000
    37 H13      -1.3229    5.7264   -3.7853   H         1 RES1   0.0000
    38 H14       1.5898    5.8650   -4.6933   H         1 RES1   0.0000
    39 H15       0.6238    7.2320   -4.1442   H         1 RES1   0.0000
    40 H16       0.0672    5.5327   -6.6213   H         1 RES1   0.0000
    41 H17       0.5825    7.2146   -6.5612   H         1 RES1   0.0000
    42 H18      -1.0238    6.7753   -5.9934   H         1 RES1   0.0000
    43 H19       1.4659    3.7998   -2.6682   H         1 RES1   0.0000
    44 H20       1.9409    2.0929   -2.5718   H         1 RES1   0.0000
    45 H21       2.7258    6.0332   -0.7520   H         1 RES1   0.0000
    46 H22       2.8621    4.8729   -2.0737   H         1 RES1   0.0000
    47 H23       4.7906    5.1097    0.2659   H         1 RES1   0.0000
    48 H24       5.0142    5.6481   -1.3895   H         1 RES1   0.0000
    49 H25       6.1928    3.6447   -1.3202   H         1 RES1   0.0000
    50 H26       4.6680    3.1599   -2.0591   H         1 RES1   0.0000
    51 H27       5.3085    2.8735    0.9199   H         1 RES1   0.0000
    52 H28       5.5718    1.5921   -0.2532   H         1 RES1   0.0000
    53 H29       3.9306    2.1539    0.0829   H         1 RES1   0.0000
    54 H30       3.0022    5.0860    1.4283   H         1 RES1   0.0000
    55 H31       2.4102    3.4477    1.7611   H         1 RES1   0.0000
    56 H32       0.8952    5.1598    2.6870   H         1 RES1   0.0000
    57 H33       0.0983    4.1569    1.4775   H         1 RES1   0.0000
    58 H34       0.3059    5.9798   -0.1905   H         1 RES1   0.0000
    59 H35       1.2195    6.9560    0.9676   H         1 RES1   0.0000
    60 H36      -1.6535    6.0144    1.3729   H         1 RES1   0.0000
    61 H37      -1.1676    7.6436    0.9056   H         1 RES1   0.0000
    62 H38      -0.7289    7.0172    2.4895   H         1 RES1   0.0000
    63 C20       1.0040    2.6905    4.3952   C.3       1 RES1   0.0000
    64 C21       1.7636    1.7196    5.2884   C.3       1 RES1   0.0000
    65 C22       3.2103    1.5019    4.8417   C.3       1 RES1   0.0000
    66 C23       3.3442    0.7440    3.5225   C.3       1 RES1   0.0000
    67 N3        2.7979   -0.6051    3.5945   N.am      1 RES1   0.0000
    68 C24       3.3753   -1.5008    4.5834   C.3       1 RES1   0.0000
    69 C25       2.4978   -1.7643    5.8153   C.3       1 RES1   0.0000
    70 C26       2.8911   -3.0815    6.4867   C.3       1 RES1   0.0000
    71 C27       4.3034   -3.0391    7.0576   C.3       1 RES1   0.0000
    72 C28       1.9322   -0.9879    2.6551   C.2       1 RES1   0.0000
    73 O3        1.6530   -0.2530    1.6866   O.2       1 RES1   0.0000
    74 C29       1.2864   -2.3635    2.7508   C.3       1 RES1   0.0000
    75 C30      -0.2318   -2.2195    2.7259   C.2       1 RES1   0.0000
    76 O4       -0.7305   -1.3623    1.9690   O.2       1 RES1   0.0000
    77 N4       -1.0000   -3.0037    3.4801   N.am      1 RES1   0.0000
    78 C31      -0.5789   -4.1244    4.3071   C.3       1 RES1   0.0000
    79 C32      -1.1358   -5.4874    3.8749   C.3       1 RES1   0.0000
    80 C33      -0.6249   -5.9995    2.5275   C.3       1 RES1   0.0000
    81 C34      -1.3088   -5.3511    1.3268   C.3       1 RES1   0.0000
    82 C35      -2.4295   -2.7078    3.4777   C.3       1 RES1   0.0000
    83 C36      -2.7421   -1.4276    4.2529   C.3       1 RES1   0.0000
    84 C37      -2.1653   -1.4052    5.6664   C.3       1 RES1   0.0000
    85 C38      -2.5430   -0.1127    6.3760   C.3       1 RES1   0.0000
    86 H39       0.0352    2.9183    4.8312   H         1 RES1   0.0000
    87 H40       0.8494    2.2776    3.4002   H         1 RES1   0.0000
    88 H41       1.5609    3.6196    4.3121   H         1 RES1   0.0000
    89 H42       1.2390    0.7637    5.3176   H         1 RES1   0.0000
    90 H43       1.7791    2.1169    6.3041   H         1 RES1   0.0000
    91 H44       3.7508    0.9704    5.6255   H         1 RES1   0.0000
    92 H45       3.6985    2.4691    4.7128   H         1 RES1   0.0000
    93 H46       4.3998    0.6787    3.2374   H         1 RES1   0.0000
    94 H47       2.7985    1.2581    2.7304   H         1 RES1   0.0000
    95 H48       4.3191   -1.0591    4.9008   H         1 RES1   0.0000
    96 H49       3.6179   -2.4517    4.0982   H         1 RES1   0.0000
    97 H50       1.4463   -1.7998    5.5204   H         1 RES1   0.0000
    98 H51       2.6064   -0.9547    6.5375   H         1 RES1   0.0000
    99 H52       2.8125   -3.9042    5.7685   H         1 RES1   0.0000
   100 H53       2.1882   -3.2844    7.2948   H         1 RES1   0.0000
   101 H54       5.0480   -2.9457    6.2705   H         1 RES1   0.0000
   102 H55       4.5052   -3.9521    7.6099   H         1 RES1   0.0000
   103 H56       4.4098   -2.1981    7.7382   H         1 RES1   0.0000
   104 H57       1.6535   -2.9358    3.5912   H         1 RES1   0.0000
   105 H58       1.5116   -2.8665    1.8068   H         1 RES1   0.0000
   106 H59      -0.8990   -3.9359    5.3367   H         1 RES1   0.0000
   107 H60       0.5047   -4.2091    4.3040   H         1 RES1   0.0000
   108 H61      -2.2252   -5.4785    3.8538   H         1 RES1   0.0000
   109 H62      -0.8339   -6.1906    4.6543   H         1 RES1   0.0000
   110 H63      -0.8190   -7.0727    2.4883   H         1 RES1   0.0000
   111 H64       0.4571   -5.8587    2.4673   H         1 RES1   0.0000
   112 H65      -2.3891   -5.3815    1.4583   H         1 RES1   0.0000
   113 H66      -1.0660   -5.9002    0.4195   H         1 RES1   0.0000
   114 H67      -0.9983   -4.3156    1.1900   H         1 RES1   0.0000
   115 H68      -2.9546   -3.5506    3.9199   H         1 RES1   0.0000
   116 H69      -2.7481   -2.5925    2.4375   H         1 RES1   0.0000
   117 H70      -3.8247   -1.3280    4.3128   H         1 RES1   0.0000
   118 H71      -2.3585   -0.5736    3.6895   H         1 RES1   0.0000
   119 H72      -1.0759   -1.4906    5.6270   H         1 RES1   0.0000
   120 H73      -2.5542   -2.2527    6.2327   H         1 RES1   0.0000
   121 H74      -2.1498    0.7487    5.8403   H         1 RES1   0.0000
   122 H75      -2.1431   -0.0983    7.3843   H         1 RES1   0.0000
   123 H76      -3.6233   -0.0164    6.4377   H         1 RES1   0.0000
   124 C39      -0.4086   -0.2513   -7.0094   C.3       1 RES1   0.0000
   125 C40       0.7181    0.4911   -6.3067   C.3       1 RES1   0.0000
   126 C41       1.2612   -0.2568   -5.0841   C.3       1 RES1   0.0000
   127 C42       2.5096    0.4740   -4.5991   C.3       1 RES1   0.0000
   128 N5        3.2139   -0.0376   -3.4157   N.am      1 RES1   0.0000
   129 C43       4.6659    0.1422   -3.4767   C.3       1 RES1   0.0000
   130 C44       5.4826   -1.1085   -3.8189   C.3       1 RES1   0.0000
   131 C45       5.2493   -1.6532   -5.2330   C.3       1 RES1   0.0000
   132 C46       4.1640   -2.7249   -5.2683   C.3       1 RES1   0.0000
   133 C47       2.5795   -0.3659   -2.2822   C.2       1 RES1   0.0000
   134 O5        1.3542   -0.2431   -2.1406   O.2       1 RES1   0.0000
   135 C48       3.4268   -0.8746   -1.1126   C.3       1 RES1   0.0000
   136 C49       2.8059   -2.1295   -0.4902   C.2       1 RES1   0.0000
   137 O6        1.5881   -2.1435   -0.2505   O.2       1 RES1   0.0000
   138 N6        3.6052   -3.1613   -0.1960   N.am      1 RES1   0.0000
   139 C50       3.0500   -4.4009    0.3598   C.3       1 RES1   0.0000
   140 C51       1.8907   -5.0191   -0.4155   C.3       1 RES1   0.0000
   141 C52       2.3200   -5.6497   -1.7390   C.3       1 RES1   0.0000
   142 C53       2.6502   -4.6229   -2.8166   C.3       1 RES1   0.0000
   143 C54       5.0618   -3.1183   -0.1047   C.3       1 RES1   0.0000
   144 C55       5.7852   -4.0552   -1.0760   C.3       1 RES1   0.0000
   145 C56       7.2863   -4.1160   -0.7878   C.3       1 RES1   0.0000
   146 C57       7.6216   -4.7478    0.5583   C.3       1 RES1   0.0000
   147 H77      -0.7328    0.3075   -7.8821   H         1 RES1   0.0000
   148 H78      -1.2619   -0.3701   -6.3469   H         1 RES1   0.0000
   149 H79      -0.0794   -1.2308   -7.3454   H         1 RES1   0.0000
   150 H80       0.3612    1.4748   -5.9939   H         1 RES1   0.0000
   151 H81       1.5269    0.6473   -7.0225   H         1 RES1   0.0000
   152 H82       1.5290   -1.2712   -5.3777   H         1 RES1   0.0000
   153 H83       0.5075   -0.3084   -4.2976   H         1 RES1   0.0000
   154 H84       2.2588    1.5291   -4.4376   H         1 RES1   0.0000
   155 H85       3.2307    0.4388   -5.4141   H         1 RES1   0.0000
   156 H86       5.0144    0.5719   -2.5334   H         1 RES1   0.0000
   157 H87       4.8635    0.8906   -4.2449   H         1 RES1   0.0000
   158 H88       5.2716   -1.9059   -3.1072   H         1 RES1   0.0000
   159 H89       6.5306   -0.8276   -3.7017   H         1 RES1   0.0000
   160 H90       6.1780   -2.0883   -5.6008   H         1 RES1   0.0000
   161 H91       4.9914   -0.8373   -5.9096   H         1 RES1   0.0000
   162 H92       4.5310   -3.6484   -4.8261   H         1 RES1   0.0000
   163 H93       3.8762   -2.9418   -6.2937   H         1 RES1   0.0000
   164 H94       3.2836   -2.4044   -4.7145   H         1 RES1   0.0000
   165 H95       3.3814   -0.0988   -0.3356   H         1 RES1   0.0000
   166 H96       4.4486   -1.0450   -1.4119   H         1 RES1   0.0000
   167 H97       2.7507   -4.2230    1.3973   H         1 RES1   0.0000
   168 H98       3.8564   -5.1315    0.3870   H         1 RES1   0.0000
   169 H99       1.1150   -4.2748   -0.5926   H         1 RES1   0.0000
   170 H100      1.4695   -5.7974    0.2230   H         1 RES1   0.0000
   171 H101      1.5108   -6.2925   -2.0861   H         1 RES1   0.0000
   172 H102      3.1844   -6.2956   -1.5724   H         1 RES1   0.0000
   173 H103      1.8936   -3.8416   -2.8485   H         1 RES1   0.0000
   174 H104      2.6947   -5.1070   -3.7888   H         1 RES1   0.0000
   175 H105      3.6077   -4.1554   -2.6211   H         1 RES1   0.0000
   176 H106      5.3182   -3.4133    0.9172   H         1 RES1   0.0000
   177 H107      5.4320   -2.1045   -0.2377   H         1 RES1   0.0000
   178 H108      5.6366   -3.7242   -2.1061   H         1 RES1   0.0000
   179 H109      5.3806   -5.0640   -0.9964   H         1 RES1   0.0000
   180 H110      7.7159   -3.1142   -0.8437   H         1 RES1   0.0000
   181 H111      7.7469   -4.7149   -1.5731   H         1 RES1   0.0000
   182 H112      7.3123   -4.1234    1.3937   H         1 RES1   0.0000
   183 H113      8.6951   -4.8900    0.6316   H         1 RES1   0.0000
   184 H114      7.1482   -5.7217    0.6585   H         1 RES1   0.0000
   185 C58      -6.8141   -0.7024    4.3666   C.3       1 RES1   0.0000
   186 C59      -6.0538    0.2329    3.4360   C.3       1 RES1   0.0000
   187 C60      -5.7622   -0.4514    2.1026   C.3       1 RES1   0.0000
   188 C61      -4.9240    0.4303    1.1791   C.3       1 RES1   0.0000
   189 N7       -4.7793   -0.1106   -0.1711   N.am      1 RES1   0.0000
   190 C62      -5.9590    0.0241   -1.0296   C.3       1 RES1   0.0000
   191 C63      -6.6714   -1.1974   -1.6404   C.3       1 RES1   0.0000
   192 C64      -7.1447   -2.2873   -0.6782   C.3       1 RES1   0.0000
   193 C65      -6.0201   -3.1668   -0.1412   C.3       1 RES1   0.0000
   194 C66      -3.5418   -0.4071   -0.5934   C.2       1 RES1   0.0000
   195 O7       -2.5408   -0.2122    0.1164   O.2       1 RES1   0.0000
   196 C67      -3.4398   -0.9741   -1.9957   C.3       1 RES1   0.0000
   197 C68      -2.1118   -1.6488   -2.3428   C.2       1 RES1   0.0000
   198 O8       -1.1317   -1.6444   -1.5816   O.2       1 RES1   0.0000
   199 N8       -2.1063   -2.3139   -3.5037   N.am      1 RES1   0.0000
   200 C69      -0.9821   -3.1943   -3.7970   C.3       1 RES1   0.0000
   201 C70      -0.8504   -4.3956   -2.8568   C.3       1 RES1   0.0000
   202 C71      -2.0443   -5.3458   -2.7513   C.3       1 RES1   0.0000
   203 C72      -3.1377   -4.8572   -1.8104   C.3       1 RES1   0.0000
   204 C73      -3.0397   -2.0856   -4.5990   C.3       1 RES1   0.0000
   205 C74      -4.0166   -3.2292   -4.8802   C.3       1 RES1   0.0000
   206 C75      -4.9296   -2.9188   -6.0686   C.3       1 RES1   0.0000
   207 C76      -4.1857   -2.8224   -7.3948   C.3       1 RES1   0.0000
   208 H115     -7.0281   -0.2140    5.3114   H         1 RES1   0.0000
   209 H116     -6.2433   -1.6060    4.5684   H         1 RES1   0.0000
   210 H117     -7.7599   -0.9978    3.9228   H         1 RES1   0.0000
   211 H118     -5.1203    0.5476    3.9060   H         1 RES1   0.0000
   212 H119     -6.6509    1.1281    3.2646   H         1 RES1   0.0000
   213 H120     -6.7099   -0.6947    1.6265   H         1 RES1   0.0000
   214 H121     -5.2327   -1.3869    2.2899   H         1 RES1   0.0000
   215 H122     -3.9178    0.5245    1.5885   H         1 RES1   0.0000
   216 H123     -5.3659    1.4278    1.1084   H         1 RES1   0.0000
   217 H124     -5.7066    0.6915   -1.8627   H         1 RES1   0.0000
   218 H125     -6.6985    0.5415   -0.4190   H         1 RES1   0.0000
   219 H126     -6.0790   -1.6564   -2.4334   H         1 RES1   0.0000
   220 H127     -7.5556   -0.7775   -2.1285   H         1 RES1   0.0000
   221 H128     -7.8494   -2.9187   -1.2225   H         1 RES1   0.0000
   222 H129     -7.6973   -1.8371    0.1472   H         1 RES1   0.0000
   223 H130     -5.5735   -3.7516   -0.9432   H         1 RES1   0.0000
   224 H131     -6.4197   -3.8608    0.5939   H         1 RES1   0.0000
   225 H132     -5.2435   -2.5709    0.3330   H         1 RES1   0.0000
   226 H133     -3.6529   -0.1585   -2.6914   H         1 RES1   0.0000
   227 H134     -4.2180   -1.7277   -2.1137   H         1 RES1   0.0000
   228 H135     -0.0574   -2.6117   -3.7236   H         1 RES1   0.0000
   229 H136     -1.0903   -3.5411   -4.8221   H         1 RES1   0.0000
   230 H137     -0.6033   -4.0256   -1.8609   H         1 RES1   0.0000
   231 H138     -0.0020   -4.9671   -3.2325   H         1 RES1   0.0000
   232 H139     -1.6716   -6.2997   -2.3747   H         1 RES1   0.0000
   233 H140     -2.4600   -5.5412   -3.7395   H         1 RES1   0.0000
   234 H141     -2.7094   -4.5191   -0.8699   H         1 RES1   0.0000
   235 H142     -3.8377   -5.6630   -1.6049   H         1 RES1   0.0000
   236 H143     -3.6809   -4.0300   -2.2517   H         1 RES1   0.0000
   237 H144     -2.4323   -1.9312   -5.4944   H         1 RES1   0.0000
   238 H145     -3.6020   -1.1689   -4.4257   H         1 RES1   0.0000
   239 H146     -4.6374   -3.4229   -4.0033   H         1 RES1   0.0000
   240 H147     -3.4544   -4.1358   -5.1021   H         1 RES1   0.0000
   241 H148     -5.4804   -1.9938   -5.8868   H         1 RES1   0.0000
   242 H149     -5.6609   -3.7234   -6.1387   H         1 RES1   0.0000
   243 H150     -3.5386   -1.9490   -7.4352   H         1 RES1   0.0000
   244 H151     -4.8989   -2.7474   -8.2101   H         1 RES1   0.0000
   245 H152     -3.5820   -3.7112   -7.5605   H         1 RES1   0.0000
   246 O9       -1.0351    1.5358    1.6583   O.3       1 RES1   0.0000
   247 H153     -1.3375    1.0264    2.4231   H         1 RES1   0.0000
   248 H154     -1.7540    2.1363    1.4329   H         1 RES1   0.0000
@<TRIPOS>BOND
     1     1    12    1
     2     1    15    1
     3     1    73    1
     4     1    76    1
     5     1   134    1
     6     1   137    1
     7     1   195    1
     8     1   198    1
     9     1   246    1
    10     2     3    1
    11     2    25    1
    12     2    26    1
    13     2    27    1
    14     3     4    1
    15     3    28    1
    16     3    29    1
    17     4     5    1
    18     4    30    1
    19     4    31    1
    20     5     6    1
    21     5    32    1
    22     5    33    1
    23     6     7    1
    24     6    11    1
    25     7     8    1
    26     7    34    1
    27     7    35    1
    28     8     9    1
    29     8    36    1
    30     8    37    1
    31     9    10    1
    32     9    38    1
    33     9    39    1
    34    10    40    1
    35    10    41    1
    36    10    42    1
    37    11    12    2
    38    11    13    1
    39    13    14    1
    40    13    43    1
    41    13    44    1
    42    14    15    2
    43    14    16    1
    44    16    17    1
    45    16    21    1
    46    17    18    1
    47    17    45    1
    48    17    46    1
    49    18    19    1
    50    18    47    1
    51    18    48    1
    52    19    20    1
    53    19    49    1
    54    19    50    1
    55    20    51    1
    56    20    52    1
    57    20    53    1
    58    21    22    1
    59    21    54    1
    60    21    55    1
    61    22    23    1
    62    22    56    1
    63    22    57    1
    64    23    24    1
    65    23    58    1
    66    23    59    1
    67    24    60    1
    68    24    61    1
    69    24    62    1
    70    63    64    1
    71    63    86    1
    72    63    87    1
    73    63    88    1
    74    64    65    1
    75    64    89    1
    76    64    90    1
    77    65    66    1
    78    65    91    1
    79    65    92    1
    80    66    67    1
    81    66    93    1
    82    66    94    1
    83    67    68    1
    84    67    72    1
    85    68    69    1
    86    68    95    1
    87    68    96    1
    88    69    70    1
    89    69    97    1
    90    69    98    1
    91    70    71    1
    92    70    99    1
    93    70   100    1
    94    71   101    1
    95    71   102    1
    96    71   103    1
    97    72    73    2
    98    72    74    1
    99    74    75    1
   100    74   104    1
   101    74   105    1
   102    75    76    2
   103    75    77    1
   104    77    78    1
   105    77    82    1
   106    78    79    1
   107    78   106    1
   108    78   107    1
   109    79    80    1
   110    79   108    1
   111    79   109    1
   112    80    81    1
   113    80   110    1
   114    80   111    1
   115    81   112    1
   116    81   113    1
   117    81   114    1
   118    82    83    1
   119    82   115    1
   120    82   116    1
   121    83    84    1
   122    83   117    1
   123    83   118    1
   124    84    85    1
   125    84   119    1
   126    84   120    1
   127    85   121    1
   128    85   122    1
   129    85   123    1
   130   124   125    1
   131   124   147    1
   132   124   148    1
   133   124   149    1
   134   125   126    1
   135   125   150    1
   136   125   151    1
   137   126   127    1
   138   126   152    1
   139   126   153    1
   140   127   128    1
   141   127   154    1
   142   127   155    1
   143   128   129    1
   144   128   133    1
   145   129   130    1
   146   129   156    1
   147   129   157    1
   148   130   131    1
   149   130   158    1
   150   130   159    1
   151   131   132    1
   152   131   160    1
   153   131   161    1
   154   132   162    1
   155   132   163    1
   156   132   164    1
   157   133   134    2
   158   133   135    1
   159   135   136    1
   160   135   165    1
   161   135   166    1
   162   136   137    2
   163   136   138    1
   164   138   139    1
   165   138   143    1
   166   139   140    1
   167   139   167    1
   168   139   168    1
   169   140   141    1
   170   140   169    1
   171   140   170    1
   172   141   142    1
   173   141   171    1
   174   141   172    1
   175   142   173    1
   176   142   174    1
   177   142   175    1
   178   143   144    1
   179   143   176    1
   180   143   177    1
   181   144   145    1
   182   144   178    1
   183   144   179    1
   184   145   146    1
   185   145   180    1
   186   145   181    1
   187   146   182    1
   188   146   183    1
   189   146   184    1
   190   185   186    1
   191   185   208    1
   192   185   209    1
   193   185   210    1
   194   186   187    1
   195   186   211    1
   196   186   212    1
   197   187   188    1
   198   187   213    1
   199   187   214    1
   200   188   189    1
   201   188   215    1
   202   188   216    1
   203   189   190    1
   204   189   194    1
   205   190   191    1
   206   190   217    1
   207   190   218    1
   208   191   192    1
   209   191   219    1
   210   191   220    1
   211   192   193    1
   212   192   221    1
   213   192   222    1
   214   193   223    1
   215   193   224    1
   216   193   225    1
   217   194   195    2
   218   194   196    1
   219   196   197    1
   220   196   226    1
   221   196   227    1
   222   197   198    2
   223   197   199    1
   224   199   200    1
   225   199   204    1
   226   200   201    1
   227   200   228    1
   228   200   229    1
   229   201   202    1
   230   201   230    1
   231   201   231    1
   232   202   203    1
   233   202   232    1
   234   202   233    1
   235   203   234    1
   236   203   235    1
   237   203   236    1
   238   204   205    1
   239   204   237    1
   240   204   238    1
   241   205   206    1
   242   205   239    1
   243   205   240    1
   244   206   207    1
   245   206   241    1
   246   206   242    1
   247   207   243    1
   248   207   244    1
   249   207   245    1
   250   246   247    1
   251   246   248    1
@<TRIPOS>SUBSTRUCTURE
     1 RES1      248 GROUP             0 ****  ****    0  
