@<TRIPOS>MOLECULE
am_c3_9H2O_c0_0_nunpairedes_0_charge_2 Charge: 2 Unpaired_Electrons: 6 XTB_Unpaired_Electrons: 0 XTB_Charge: 2
    73    81     1     0     0
SMALL
NoCharges
****
Generated from Architector

@<TRIPOS>ATOM
     1 Eu1      -0.6452    0.3529   -0.0307   Eu        1 RES1   0.0000
     2 C1       -3.8005    6.6084   -5.4190   C.3       1 RES1   0.0000
     3 C2       -2.4174    7.2418   -5.4841   C.3       1 RES1   0.0000
     4 C3       -1.5325    6.9223   -4.2816   C.3       1 RES1   0.0000
     5 C4       -2.0918    7.4401   -2.9612   C.3       1 RES1   0.0000
     6 C5       -1.1271    7.2206   -1.8000   C.3       1 RES1   0.0000
     7 C6       -1.6637    7.7481   -0.4693   C.3       1 RES1   0.0000
     8 C7       -2.8051    6.9115    0.1075   C.3       1 RES1   0.0000
     9 C8       -2.3194    5.5802    0.6845   C.3       1 RES1   0.0000
    10 C9       -3.4342    4.5536    0.9100   C.3       1 RES1   0.0000
    11 C10      -4.3843    4.3152   -0.2697   C.3       1 RES1   0.0000
    12 C11      -3.6659    4.0512   -1.5990   C.3       1 RES1   0.0000
    13 C12      -3.1318    2.6191   -1.7002   C.3       1 RES1   0.0000
    14 O1       -1.7469    2.5300   -2.1168   O.3       1 RES1   0.0000
    15 C13      -1.4798    2.8863   -3.5013   C.3       1 RES1   0.0000
    16 C14      -0.1735    2.1393   -3.6358   C.ar      1 RES1   0.0000
    17 C15      -0.2810    0.7598   -3.8512   C.ar      1 RES1   0.0000
    18 C16       0.2404   -0.0707   -2.8688   C.ar      1 RES1   0.0000
    19 N1       -0.4951   -1.2617   -2.6181   N.ar      1 RES1   0.0000
    20 C17      -0.5830   -2.4766   -3.1888   C.ar      1 RES1   0.0000
    21 C18      -1.6854   -3.1083   -2.6599   C.ar      1 RES1   0.0000
    22 C19      -2.2532   -2.1878   -1.7790   C.ar      1 RES1   0.0000
    23 N2       -1.5486   -1.0545   -1.7615   N.ar      1 RES1   0.0000
    24 N3        0.9484    0.3998   -1.8248   N.ar      1 RES1   0.0000
    25 C20       1.3358    1.6846   -1.8627   C.ar      1 RES1   0.0000
    26 N4        1.7462    2.2150   -0.6099   N.ar      1 RES1   0.0000
    27 C21       2.8234    2.9141   -0.2038   C.ar      1 RES1   0.0000
    28 C22       2.5365    3.4282    1.0444   C.ar      1 RES1   0.0000
    29 C23       1.2275    3.0215    1.3199   C.ar      1 RES1   0.0000
    30 N5        0.7403    2.2913    0.3163   N.ar      1 RES1   0.0000
    31 C24       0.8435    2.5952   -2.7865   C.ar      1 RES1   0.0000
    32 H1       -4.3310    6.7784   -6.3505   H         1 RES1   0.0000
    33 H2       -4.3937    7.0440   -4.6207   H         1 RES1   0.0000
    34 H3       -3.7343    5.5335   -5.2598   H         1 RES1   0.0000
    35 H4       -2.5267    8.3225   -5.5621   H         1 RES1   0.0000
    36 H5       -1.9073    6.8967   -6.3859   H         1 RES1   0.0000
    37 H6       -0.5486    7.3631   -4.4453   H         1 RES1   0.0000
    38 H7       -1.3936    5.8373   -4.2206   H         1 RES1   0.0000
    39 H8       -3.0447    6.9538   -2.7598   H         1 RES1   0.0000
    40 H9       -2.2838    8.5071   -3.0566   H         1 RES1   0.0000
    41 H10      -0.1930    7.7351   -2.0258   H         1 RES1   0.0000
    42 H11      -0.8881    6.1565   -1.7084   H         1 RES1   0.0000
    43 H12      -2.0147    8.7672   -0.6238   H         1 RES1   0.0000
    44 H13      -0.8461    7.7866    0.2508   H         1 RES1   0.0000
    45 H14      -3.5376    6.7400   -0.6768   H         1 RES1   0.0000
    46 H15      -3.3085    7.4769    0.8906   H         1 RES1   0.0000
    47 H16      -1.8436    5.7676    1.6493   H         1 RES1   0.0000
    48 H17      -1.5496    5.1474    0.0401   H         1 RES1   0.0000
    49 H18      -4.0418    4.8957    1.7464   H         1 RES1   0.0000
    50 H19      -2.9640    3.6004    1.2001   H         1 RES1   0.0000
    51 H20      -5.0525    5.1706   -0.3857   H         1 RES1   0.0000
    52 H21      -5.0250    3.4648   -0.0299   H         1 RES1   0.0000
    53 H22      -2.8290    4.7395   -1.6882   H         1 RES1   0.0000
    54 H23      -4.3462    4.2627   -2.4242   H         1 RES1   0.0000
    55 H24      -3.7598    2.0045   -2.3648   H         1 RES1   0.0000
    56 H25      -3.1246    2.1477   -0.6930   H         1 RES1   0.0000
    57 H26      -1.3992    3.9687   -3.6465   H         1 RES1   0.0000
    58 H27      -2.2682    2.4831   -4.1399   H         1 RES1   0.0000
    59 H28      -0.9812    0.3792   -4.5748   H         1 RES1   0.0000
    60 H29       0.1360   -2.8260   -3.9044   H         1 RES1   0.0000
    61 H30      -2.0501   -4.0911   -2.8843   H         1 RES1   0.0000
    62 H31      -3.1201   -2.2999   -1.1480   H         1 RES1   0.0000
    63 H32       3.7362    2.9602   -0.7719   H         1 RES1   0.0000
    64 H33       3.1748    4.0145    1.6753   H         1 RES1   0.0000
    65 H34       0.6235    3.2117    2.1905   H         1 RES1   0.0000
    66 H35       1.0041    3.6505   -2.6430   H         1 RES1   0.0000
    67 N6       -0.3422   -1.8322    1.1106   N.3       1 RES1   0.0000
    68 O2       -0.1134   -2.7662    1.7891   O.2       1 RES1   0.0000
    69 O3        0.3572   -1.5322    0.1209   O.co2     1 RES1   0.0000
    70 O4       -1.3124   -1.0605    1.3365   O.co2     1 RES1   0.0000
    71 O5        1.2863    0.1299    1.8511   O.3       1 RES1   0.0000
    72 H36       1.1495    0.0835    2.8087   H         1 RES1   0.0000
    73 H37       2.1209   -0.3440    1.6854   H         1 RES1   0.0000
@<TRIPOS>BOND
     1     1    14    1
     2     1    19    1
     3     1    23    1
     4     1    24    1
     5     1    26    1
     6     1    30    1
     7     1    69    1
     8     1    70    1
     9     1    71    1
    10     2     3    1
    11     2    32    1
    12     2    33    1
    13     2    34    1
    14     3     4    1
    15     3    35    1
    16     3    36    1
    17     4     5    1
    18     4    37    1
    19     4    38    1
    20     5     6    1
    21     5    39    1
    22     5    40    1
    23     6     7    1
    24     6    41    1
    25     6    42    1
    26     7     8    1
    27     7    43    1
    28     7    44    1
    29     8     9    1
    30     8    45    1
    31     8    46    1
    32     9    10    1
    33     9    47    1
    34     9    48    1
    35    10    11    1
    36    10    49    1
    37    10    50    1
    38    11    12    1
    39    11    51    1
    40    11    52    1
    41    12    13    1
    42    12    53    1
    43    12    54    1
    44    13    14    1
    45    13    55    1
    46    13    56    1
    47    14    15    1
    48    15    16    1
    49    15    57    1
    50    15    58    1
    51    16    17    1
    52    16    31    2
    53    17    18    2
    54    17    59    1
    55    18    19    1
    56    18    24    1
    57    19    20    1
    58    19    23    1
    59    20    21    2
    60    20    60    1
    61    21    22    1
    62    21    61    1
    63    22    23    2
    64    22    62    1
    65    24    25    2
    66    25    26    1
    67    25    31    1
    68    26    27    1
    69    26    30    1
    70    27    28    2
    71    27    63    1
    72    28    29    1
    73    28    64    1
    74    29    30    2
    75    29    65    1
    76    31    66    1
    77    67    68    2
    78    67    69    1
    79    67    70    1
    80    71    72    1
    81    71    73    1
@<TRIPOS>SUBSTRUCTURE
     1 RES1       73 GROUP             0 ****  ****    0  
