@<TRIPOS>MOLECULE
am_c3_9H2O_c0_0_nunpairedes_0_charge_3 Charge: 3 Unpaired_Electrons: 6 XTB_Unpaired_Electrons: 0 XTB_Charge: 3
   224   227     1     0     0
SMALL
NoCharges
****
Generated from Architector

@<TRIPOS>ATOM
     1 Eu1      -0.0408    0.0679   -0.3576   Eu        1 RES1   0.0000
     2 C1       -5.5225    2.0610    3.9877   C.3       1 RES1   0.0000
     3 C2       -5.2002    3.5403    4.1711   C.3       1 RES1   0.0000
     4 C3       -4.6918    4.2356    2.9040   C.3       1 RES1   0.0000
     5 C4       -3.3585    3.6557    2.4154   C.3       1 RES1   0.0000
     6 C5       -2.4495    4.6565    1.6874   C.3       1 RES1   0.0000
     7 C6       -2.7299    4.9097    0.1954   C.3       1 RES1   0.0000
     8 N1       -2.4175    3.7811   -0.6764   N.am      1 RES1   0.0000
     9 C7       -3.4747    3.3710   -1.5761   C.3       1 RES1   0.0000
    10 C8       -1.2127    3.2317   -0.8068   C.2       1 RES1   0.0000
    11 O1       -1.0234    2.1235   -1.3525   O.2       1 RES1   0.0000
    12 C9       -0.0283    4.1083   -0.4595   C.3       1 RES1   0.0000
    13 C10       1.2309    3.3143   -0.1762   C.2       1 RES1   0.0000
    14 O2        1.1499    2.1511    0.2573   O.2       1 RES1   0.0000
    15 N2        2.3956    3.9454   -0.2927   N.am      1 RES1   0.0000
    16 C11       2.6461    5.1713   -1.0188   C.3       1 RES1   0.0000
    17 C12       3.5304    3.3753    0.4261   C.3       1 RES1   0.0000
    18 C13       3.3588    3.6596    1.9210   C.3       1 RES1   0.0000
    19 C14       3.3507    5.1477    2.2711   C.3       1 RES1   0.0000
    20 C15       2.9742    5.3916    3.7354   C.3       1 RES1   0.0000
    21 C16       1.4822    5.2184    4.0403   C.3       1 RES1   0.0000
    22 C17       0.5987    6.2830    3.4005   C.3       1 RES1   0.0000
    23 H1       -5.8646    1.6348    4.9287   H         1 RES1   0.0000
    24 H2       -4.6459    1.4975    3.6673   H         1 RES1   0.0000
    25 H3       -6.3206    1.9392    3.2576   H         1 RES1   0.0000
    26 H4       -4.4530    3.6485    4.9593   H         1 RES1   0.0000
    27 H5       -6.1042    4.0482    4.5073   H         1 RES1   0.0000
    28 H6       -4.5581    5.2925    3.1448   H         1 RES1   0.0000
    29 H7       -5.4555    4.1697    2.1275   H         1 RES1   0.0000
    30 H8       -3.5143    2.7747    1.7929   H         1 RES1   0.0000
    31 H9       -2.8028    3.3272    3.2966   H         1 RES1   0.0000
    32 H10      -1.4235    4.3063    1.8190   H         1 RES1   0.0000
    33 H11      -2.5344    5.6251    2.1873   H         1 RES1   0.0000
    34 H12      -2.1829    5.8029   -0.1253   H         1 RES1   0.0000
    35 H13      -3.7911    5.1149    0.0625   H         1 RES1   0.0000
    36 H14      -4.3962    3.2311   -1.0250   H         1 RES1   0.0000
    37 H15      -3.1751    2.4512   -2.0797   H         1 RES1   0.0000
    38 H16      -3.6289    4.1624   -2.3191   H         1 RES1   0.0000
    39 H17      -0.2066    4.7379    0.4117   H         1 RES1   0.0000
    40 H18       0.0842    4.7690   -1.3230   H         1 RES1   0.0000
    41 H19       1.7833    5.4931   -1.5934   H         1 RES1   0.0000
    42 H20       3.4714    4.9943   -1.7085   H         1 RES1   0.0000
    43 H21       2.9344    5.9825   -0.3515   H         1 RES1   0.0000
    44 H22       4.4464    3.8196    0.0386   H         1 RES1   0.0000
    45 H23       3.5321    2.2944    0.2494   H         1 RES1   0.0000
    46 H24       4.1690    3.1724    2.4605   H         1 RES1   0.0000
    47 H25       2.4183    3.2112    2.2401   H         1 RES1   0.0000
    48 H26       2.6353    5.6874    1.6516   H         1 RES1   0.0000
    49 H27       4.3411    5.5660    2.0844   H         1 RES1   0.0000
    50 H28       3.2552    6.4112    4.0045   H         1 RES1   0.0000
    51 H29       3.5550    4.7159    4.3688   H         1 RES1   0.0000
    52 H30       1.3610    5.2819    5.1219   H         1 RES1   0.0000
    53 H31       1.1354    4.2288    3.7278   H         1 RES1   0.0000
    54 H32       0.9357    7.2762    3.6775   H         1 RES1   0.0000
    55 H33      -0.4244    6.1683    3.7454   H         1 RES1   0.0000
    56 H34       0.6032    6.2143    2.3148   H         1 RES1   0.0000
    57 C18      -3.4003   -8.5553    3.0376   C.3       1 RES1   0.0000
    58 C19      -2.8532   -7.4685    2.1213   C.3       1 RES1   0.0000
    59 C20      -3.2830   -6.0675    2.5600   C.3       1 RES1   0.0000
    60 C21      -2.6880   -5.0036    1.6390   C.3       1 RES1   0.0000
    61 C22      -3.1071   -3.5682    1.9556   C.3       1 RES1   0.0000
    62 C23      -2.4815   -2.9981    3.2331   C.3       1 RES1   0.0000
    63 N3       -1.0256   -3.1163    3.2310   N.am      1 RES1   0.0000
    64 C24      -0.4314   -4.1605    4.0437   C.3       1 RES1   0.0000
    65 C25      -0.3307   -2.3575    2.3870   C.2       1 RES1   0.0000
    66 O3       -0.8820   -1.5059    1.6600   O.2       1 RES1   0.0000
    67 C26       1.1837   -2.5271    2.3361   C.3       1 RES1   0.0000
    68 C27       1.7990   -1.1405    2.4509   C.2       1 RES1   0.0000
    69 O4        1.4418   -0.2472    1.6624   O.2       1 RES1   0.0000
    70 N4        2.6723   -0.9114    3.4296   N.am      1 RES1   0.0000
    71 C28       3.1937   -1.9348    4.3148   C.3       1 RES1   0.0000
    72 C29       3.1247    0.4607    3.6204   C.3       1 RES1   0.0000
    73 C30       2.0634    1.3482    4.2809   C.3       1 RES1   0.0000
    74 C31       1.5416    0.8471    5.6289   C.3       1 RES1   0.0000
    75 C32       0.3564   -0.1094    5.5131   C.3       1 RES1   0.0000
    76 C33      -0.3157   -0.3654    6.8629   C.3       1 RES1   0.0000
    77 C34       0.6157   -1.0268    7.8715   C.3       1 RES1   0.0000
    78 H35      -3.1003   -9.5350    2.6780   H         1 RES1   0.0000
    79 H36      -4.4857   -8.5208    3.0667   H         1 RES1   0.0000
    80 H37      -3.0244   -8.4378    4.0508   H         1 RES1   0.0000
    81 H38      -3.2057   -7.6463    1.1022   H         1 RES1   0.0000
    82 H39      -1.7608   -7.5237    2.1104   H         1 RES1   0.0000
    83 H40      -2.9649   -5.9102    3.5919   H         1 RES1   0.0000
    84 H41      -4.3720   -6.0047    2.5384   H         1 RES1   0.0000
    85 H42      -3.0094   -5.2204    0.6199   H         1 RES1   0.0000
    86 H43      -1.5997   -5.0828    1.6596   H         1 RES1   0.0000
    87 H44      -4.1902   -3.5279    2.0682   H         1 RES1   0.0000
    88 H45      -2.8248   -2.9171    1.1240   H         1 RES1   0.0000
    89 H46      -2.8632   -3.5193    4.1083   H         1 RES1   0.0000
    90 H47      -2.7431   -1.9398    3.3234   H         1 RES1   0.0000
    91 H48      -1.2218   -4.7519    4.4938   H         1 RES1   0.0000
    92 H49       0.1710   -3.7469    4.8535   H         1 RES1   0.0000
    93 H50       0.1777   -4.8350    3.4434   H         1 RES1   0.0000
    94 H51       1.4098   -2.8722    1.3258   H         1 RES1   0.0000
    95 H52       1.5692   -3.2292    3.0617   H         1 RES1   0.0000
    96 H53       2.4344   -2.3168    4.9988   H         1 RES1   0.0000
    97 H54       3.9853   -1.5069    4.9220   H         1 RES1   0.0000
    98 H55       3.6211   -2.7631    3.7498   H         1 RES1   0.0000
    99 H56       3.3683    0.8722    2.6356   H         1 RES1   0.0000
   100 H57       4.0269    0.4428    4.2309   H         1 RES1   0.0000
   101 H58       1.2283    1.4697    3.5842   H         1 RES1   0.0000
   102 H59       2.5253    2.3236    4.4274   H         1 RES1   0.0000
   103 H60       1.2242    1.7078    6.2176   H         1 RES1   0.0000
   104 H61       2.3519    0.3698    6.1753   H         1 RES1   0.0000
   105 H62       0.6786   -1.0640    5.0933   H         1 RES1   0.0000
   106 H63      -0.3813    0.3140    4.8227   H         1 RES1   0.0000
   107 H64      -1.1878   -1.0037    6.7024   H         1 RES1   0.0000
   108 H65      -0.6745    0.5805    7.2712   H         1 RES1   0.0000
   109 H66       1.0202   -1.9575    7.4777   H         1 RES1   0.0000
   110 H67       0.0747   -1.2550    8.7844   H         1 RES1   0.0000
   111 H68       1.4424   -0.3719    8.1304   H         1 RES1   0.0000
   112 C35      -4.1149   -4.5219   -2.3466   C.3       1 RES1   0.0000
   113 C36      -3.7862   -4.9368   -3.7807   C.3       1 RES1   0.0000
   114 C37      -2.2948   -5.1963   -4.0133   C.3       1 RES1   0.0000
   115 C38      -1.4930   -3.8958   -4.0938   C.3       1 RES1   0.0000
   116 C39       0.0134   -4.0970   -4.2769   C.3       1 RES1   0.0000
   117 C40       0.7324   -4.6548   -3.0402   C.3       1 RES1   0.0000
   118 N5        0.5343   -3.8228   -1.8650   N.am      1 RES1   0.0000
   119 C41      -0.5410   -4.1718   -0.9534   C.3       1 RES1   0.0000
   120 C42       1.2169   -2.7241   -1.5511   C.2       1 RES1   0.0000
   121 O5        0.8884   -2.0543   -0.5533   O.2       1 RES1   0.0000
   122 C43       2.4901   -2.3811   -2.2949   C.3       1 RES1   0.0000
   123 C44       2.7848   -0.8758   -2.3374   C.2       1 RES1   0.0000
   124 O6        2.0170   -0.0325   -1.8442   O.2       1 RES1   0.0000
   125 N6        3.8930   -0.5433   -3.0093   N.am      1 RES1   0.0000
   126 C45       4.9221   -1.5018   -3.3645   C.3       1 RES1   0.0000
   127 C46       4.1861    0.8513   -3.3231   C.3       1 RES1   0.0000
   128 C47       3.7693    1.3028   -4.7417   C.3       1 RES1   0.0000
   129 C48       3.9985    0.2796   -5.8581   C.3       1 RES1   0.0000
   130 C49       3.6560    0.7884   -7.2691   C.3       1 RES1   0.0000
   131 C50       2.1815    0.6696   -7.6671   C.3       1 RES1   0.0000
   132 C51       1.6569   -0.7648   -7.6854   C.3       1 RES1   0.0000
   133 H69      -5.1861   -4.3596   -2.2447   H         1 RES1   0.0000
   134 H70      -3.5952   -3.6081   -2.0522   H         1 RES1   0.0000
   135 H71      -3.8354   -5.3143   -1.6536   H         1 RES1   0.0000
   136 H72      -4.1274   -4.1669   -4.4791   H         1 RES1   0.0000
   137 H73      -4.3413   -5.8491   -4.0048   H         1 RES1   0.0000
   138 H74      -2.1751   -5.7407   -4.9508   H         1 RES1   0.0000
   139 H75      -1.9205   -5.8438   -3.2184   H         1 RES1   0.0000
   140 H76      -1.6670   -3.2861   -3.2050   H         1 RES1   0.0000
   141 H77      -1.8545   -3.3333   -4.9589   H         1 RES1   0.0000
   142 H78       0.4572   -3.1339   -4.5435   H         1 RES1   0.0000
   143 H79       0.1809   -4.7846   -5.1070   H         1 RES1   0.0000
   144 H80       1.7984   -4.7609   -3.2510   H         1 RES1   0.0000
   145 H81       0.3520   -5.6511   -2.8130   H         1 RES1   0.0000
   146 H82      -1.0749   -5.0355   -1.3314   H         1 RES1   0.0000
   147 H83      -1.2300   -3.3331   -0.8316   H         1 RES1   0.0000
   148 H84      -0.1190   -4.4023    0.0265   H         1 RES1   0.0000
   149 H85       2.4911   -2.7503   -3.3176   H         1 RES1   0.0000
   150 H86       3.2872   -2.8895   -1.7459   H         1 RES1   0.0000
   151 H87       4.8944   -2.3766   -2.7223   H         1 RES1   0.0000
   152 H88       5.8964   -1.0371   -3.2269   H         1 RES1   0.0000
   153 H89       4.8404   -1.8277   -4.4012   H         1 RES1   0.0000
   154 H90       5.2600    0.9971   -3.1921   H         1 RES1   0.0000
   155 H91       3.6571    1.4685   -2.5932   H         1 RES1   0.0000
   156 H92       4.3536    2.1964   -4.9664   H         1 RES1   0.0000
   157 H93       2.7230    1.5976   -4.7261   H         1 RES1   0.0000
   158 H94       3.4095   -0.6191   -5.6673   H         1 RES1   0.0000
   159 H95       5.0511   -0.0007   -5.8639   H         1 RES1   0.0000
   160 H96       4.2361    0.2059   -7.9891   H         1 RES1   0.0000
   161 H97       3.9693    1.8306   -7.3751   H         1 RES1   0.0000
   162 H98       2.0778    1.0842   -8.6700   H         1 RES1   0.0000
   163 H99       1.5651    1.2878   -7.0092   H         1 RES1   0.0000
   164 H100      2.3377   -1.4126   -8.2313   H         1 RES1   0.0000
   165 H101      0.6927   -0.8022   -8.1846   H         1 RES1   0.0000
   166 H102      1.5330   -1.1689   -6.6818   H         1 RES1   0.0000
   167 C52      -7.0628    4.5280   -1.8282   C.3       1 RES1   0.0000
   168 C53      -7.7626    3.1745   -1.7635   C.3       1 RES1   0.0000
   169 C54      -6.8248    1.9914   -1.4705   C.3       1 RES1   0.0000
   170 C55      -6.4427    1.8737    0.0103   C.3       1 RES1   0.0000
   171 C56      -5.2140    1.0147    0.3404   C.3       1 RES1   0.0000
   172 C57      -5.2685   -0.4537   -0.0959   C.3       1 RES1   0.0000
   173 N7       -4.7336   -0.6488   -1.4403   N.am      1 RES1   0.0000
   174 C58      -5.6390   -1.0804   -2.4866   C.3       1 RES1   0.0000
   175 C59      -3.4279   -0.4689   -1.6391   C.2       1 RES1   0.0000
   176 O7       -2.6212   -0.2481   -0.7205   O.2       1 RES1   0.0000
   177 C60      -2.9884   -0.5198   -3.1092   C.3       1 RES1   0.0000
   178 C61      -1.5073   -0.2453   -3.2315   C.2       1 RES1   0.0000
   179 O8       -0.7289   -0.8252   -2.4439   O.2       1 RES1   0.0000
   180 N8       -1.0112    0.4971   -4.2208   N.am      1 RES1   0.0000
   181 C62       0.4369    0.5390   -4.2906   C.3       1 RES1   0.0000
   182 C63      -1.6821    1.4511   -5.0908   C.3       1 RES1   0.0000
   183 C64      -1.3454    2.8981   -4.6671   C.3       1 RES1   0.0000
   184 C65      -0.2655    3.5707   -5.5199   C.3       1 RES1   0.0000
   185 C66       0.2203    4.8794   -4.9018   C.3       1 RES1   0.0000
   186 C67       1.2280    5.6237   -5.7792   C.3       1 RES1   0.0000
   187 C68       2.5460    4.8737   -5.9433   C.3       1 RES1   0.0000
   188 H103     -6.5904    4.7842   -0.8830   H         1 RES1   0.0000
   189 H104     -6.3073    4.5364   -2.6122   H         1 RES1   0.0000
   190 H105     -7.7903    5.3016   -2.0567   H         1 RES1   0.0000
   191 H106     -8.2400    2.9975   -2.7292   H         1 RES1   0.0000
   192 H107     -8.5509    3.2046   -1.0093   H         1 RES1   0.0000
   193 H108     -5.9288    2.0910   -2.0901   H         1 RES1   0.0000
   194 H109     -7.3461    1.0808   -1.7688   H         1 RES1   0.0000
   195 H110     -7.3008    1.4716    0.5484   H         1 RES1   0.0000
   196 H111     -6.2565    2.8721    0.4150   H         1 RES1   0.0000
   197 H112     -5.0943    1.0303    1.4226   H         1 RES1   0.0000
   198 H113     -4.3122    1.4459   -0.0872   H         1 RES1   0.0000
   199 H114     -6.2971   -0.8040   -0.0742   H         1 RES1   0.0000
   200 H115     -4.6712   -1.0605    0.5937   H         1 RES1   0.0000
   201 H116     -6.0026   -0.2430   -3.0853   H         1 RES1   0.0000
   202 H117     -6.4964   -1.5656   -2.0295   H         1 RES1   0.0000
   203 H118     -5.1617   -1.8028   -3.1455   H         1 RES1   0.0000
   204 H119     -3.6149    0.1525   -3.6921   H         1 RES1   0.0000
   205 H120     -3.1472   -1.5336   -3.4869   H         1 RES1   0.0000
   206 H121      0.8329   -0.4621   -4.1111   H         1 RES1   0.0000
   207 H122      0.8424    1.2140   -3.5278   H         1 RES1   0.0000
   208 H123      0.7227    0.8691   -5.2840   H         1 RES1   0.0000
   209 H124     -2.7575    1.2811   -5.0718   H         1 RES1   0.0000
   210 H125     -1.3469    1.2700   -6.1172   H         1 RES1   0.0000
   211 H126     -1.0450    2.8678   -3.6173   H         1 RES1   0.0000
   212 H127     -2.2500    3.5040   -4.7255   H         1 RES1   0.0000
   213 H128     -0.6787    3.7687   -6.5089   H         1 RES1   0.0000
   214 H129      0.5944    2.9156   -5.6414   H         1 RES1   0.0000
   215 H130      0.6904    4.6628   -3.9377   H         1 RES1   0.0000
   216 H131     -0.6316    5.5344   -4.7201   H         1 RES1   0.0000
   217 H132      1.4362    6.5934   -5.3240   H         1 RES1   0.0000
   218 H133      0.7959    5.8120   -6.7621   H         1 RES1   0.0000
   219 H134      2.9575    4.6098   -4.9690   H         1 RES1   0.0000
   220 H135      3.2735    5.4958   -6.4591   H         1 RES1   0.0000
   221 H136      2.4159    3.9652   -6.5270   H         1 RES1   0.0000
   222 O9       -1.2169    1.2180    1.4464   O.3       1 RES1   0.0000
   223 H137     -1.5755    0.3654    1.7479   H         1 RES1   0.0000
   224 H138     -0.4946    1.4383    2.0608   H         1 RES1   0.0000
@<TRIPOS>BOND
     1     1    11    1
     2     1    14    1
     3     1    66    1
     4     1    69    1
     5     1   121    1
     6     1   124    1
     7     1   176    1
     8     1   179    1
     9     1   222    1
    10     2     3    1
    11     2    23    1
    12     2    24    1
    13     2    25    1
    14     3     4    1
    15     3    26    1
    16     3    27    1
    17     4     5    1
    18     4    28    1
    19     4    29    1
    20     5     6    1
    21     5    30    1
    22     5    31    1
    23     6     7    1
    24     6    32    1
    25     6    33    1
    26     7     8    1
    27     7    34    1
    28     7    35    1
    29     8     9    1
    30     8    10    1
    31     9    36    1
    32     9    37    1
    33     9    38    1
    34    10    11    2
    35    10    12    1
    36    12    13    1
    37    12    39    1
    38    12    40    1
    39    13    14    2
    40    13    15    1
    41    15    16    1
    42    15    17    1
    43    16    41    1
    44    16    42    1
    45    16    43    1
    46    17    18    1
    47    17    44    1
    48    17    45    1
    49    18    19    1
    50    18    46    1
    51    18    47    1
    52    19    20    1
    53    19    48    1
    54    19    49    1
    55    20    21    1
    56    20    50    1
    57    20    51    1
    58    21    22    1
    59    21    52    1
    60    21    53    1
    61    22    54    1
    62    22    55    1
    63    22    56    1
    64    57    58    1
    65    57    78    1
    66    57    79    1
    67    57    80    1
    68    58    59    1
    69    58    81    1
    70    58    82    1
    71    59    60    1
    72    59    83    1
    73    59    84    1
    74    60    61    1
    75    60    85    1
    76    60    86    1
    77    61    62    1
    78    61    87    1
    79    61    88    1
    80    62    63    1
    81    62    89    1
    82    62    90    1
    83    63    64    1
    84    63    65    1
    85    64    91    1
    86    64    92    1
    87    64    93    1
    88    65    66    2
    89    65    67    1
    90    67    68    1
    91    67    94    1
    92    67    95    1
    93    68    69    2
    94    68    70    1
    95    70    71    1
    96    70    72    1
    97    71    96    1
    98    71    97    1
    99    71    98    1
   100    72    73    1
   101    72    99    1
   102    72   100    1
   103    73    74    1
   104    73   101    1
   105    73   102    1
   106    74    75    1
   107    74   103    1
   108    74   104    1
   109    75    76    1
   110    75   105    1
   111    75   106    1
   112    76    77    1
   113    76   107    1
   114    76   108    1
   115    77   109    1
   116    77   110    1
   117    77   111    1
   118   112   113    1
   119   112   133    1
   120   112   134    1
   121   112   135    1
   122   113   114    1
   123   113   136    1
   124   113   137    1
   125   114   115    1
   126   114   138    1
   127   114   139    1
   128   115   116    1
   129   115   140    1
   130   115   141    1
   131   116   117    1
   132   116   142    1
   133   116   143    1
   134   117   118    1
   135   117   144    1
   136   117   145    1
   137   118   119    1
   138   118   120    1
   139   119   146    1
   140   119   147    1
   141   119   148    1
   142   120   121    2
   143   120   122    1
   144   122   123    1
   145   122   149    1
   146   122   150    1
   147   123   124    2
   148   123   125    1
   149   125   126    1
   150   125   127    1
   151   126   151    1
   152   126   152    1
   153   126   153    1
   154   127   128    1
   155   127   154    1
   156   127   155    1
   157   128   129    1
   158   128   156    1
   159   128   157    1
   160   129   130    1
   161   129   158    1
   162   129   159    1
   163   130   131    1
   164   130   160    1
   165   130   161    1
   166   131   132    1
   167   131   162    1
   168   131   163    1
   169   132   164    1
   170   132   165    1
   171   132   166    1
   172   167   168    1
   173   167   188    1
   174   167   189    1
   175   167   190    1
   176   168   169    1
   177   168   191    1
   178   168   192    1
   179   169   170    1
   180   169   193    1
   181   169   194    1
   182   170   171    1
   183   170   195    1
   184   170   196    1
   185   171   172    1
   186   171   197    1
   187   171   198    1
   188   172   173    1
   189   172   199    1
   190   172   200    1
   191   173   174    1
   192   173   175    1
   193   174   201    1
   194   174   202    1
   195   174   203    1
   196   175   176    2
   197   175   177    1
   198   177   178    1
   199   177   204    1
   200   177   205    1
   201   178   179    2
   202   178   180    1
   203   180   181    1
   204   180   182    1
   205   181   206    1
   206   181   207    1
   207   181   208    1
   208   182   183    1
   209   182   209    1
   210   182   210    1
   211   183   184    1
   212   183   211    1
   213   183   212    1
   214   184   185    1
   215   184   213    1
   216   184   214    1
   217   185   186    1
   218   185   215    1
   219   185   216    1
   220   186   187    1
   221   186   217    1
   222   186   218    1
   223   187   219    1
   224   187   220    1
   225   187   221    1
   226   222   223    1
   227   222   224    1
@<TRIPOS>SUBSTRUCTURE
     1 RES1      224 GROUP             0 ****  ****    0  
