@<TRIPOS>MOLECULE
tri_tri_mer_capped_0_nunpairedes_0_charge_3 Charge: 3 Unpaired_Electrons: 6 XTB_Unpaired_Electrons: 0 XTB_Charge: 3
   286   291     1     0     0
SMALL
NoCharges
****
Generated from Architector

@<TRIPOS>ATOM
     1 Eu1       0.2825   -0.1525    0.1451   Eu        1 RES1   0.0000
     2 C1        6.1447   -3.6900    2.6139   C.3       1 RES1   0.0000
     3 C2        6.1514   -2.2418    2.1399   C.3       1 RES1   0.0000
     4 C3        5.1712   -2.0373    0.9835   C.3       1 RES1   0.0000
     5 C4        5.1373   -0.6086    0.4359   C.3       1 RES1   0.0000
     6 N1        4.5259    0.3441    1.3585   N.am      1 RES1   0.0000
     7 C5        5.3769    0.9621    2.3636   C.3       1 RES1   0.0000
     8 C6        5.4568    2.4899    2.3999   C.3       1 RES1   0.0000
     9 C7        6.2249    3.1364    1.2381   C.3       1 RES1   0.0000
    10 C8        5.3176    4.0547    0.4334   C.3       1 RES1   0.0000
    11 C9        3.1940    0.3798    1.3642   C.2       1 RES1   0.0000
    12 O1        2.5042   -0.3283    0.6263   O.2       1 RES1   0.0000
    13 C10       2.4863    1.4280    2.2270   C.3       1 RES1   0.0000
    14 O2        1.0953    1.1544    2.2866   O.3       1 RES1   0.0000
    15 C11       0.6531    0.5765    3.5024   C.3       1 RES1   0.0000
    16 C12      -0.2069   -0.6553    3.2352   C.2       1 RES1   0.0000
    17 O3       -0.2076   -1.2080    2.1339   O.2       1 RES1   0.0000
    18 N2       -0.9799   -1.0297    4.2558   N.am      1 RES1   0.0000
    19 C13      -1.8444   -2.2021    4.2424   C.3       1 RES1   0.0000
    20 C14      -1.4535   -3.2078    5.3238   C.3       1 RES1   0.0000
    21 C15       0.0164   -3.5947    5.2162   C.3       1 RES1   0.0000
    22 C16       0.3854   -4.1962    3.8599   C.3       1 RES1   0.0000
    23 C17       1.8520   -4.6372    3.8352   C.3       1 RES1   0.0000
    24 N3        2.7311   -3.6171    4.3869   N.am      1 RES1   0.0000
    25 C18       2.8049   -2.3486    3.9673   C.2       1 RES1   0.0000
    26 O4        2.2589   -1.8957    2.9745   O.2       1 RES1   0.0000
    27 C19       3.6074   -1.4304    4.9063   C.3       1 RES1   0.0000
    28 O5        2.6917   -0.5628    5.5599   O.3       1 RES1   0.0000
    29 C20       2.5006   -0.8506    6.9362   C.3       1 RES1   0.0000
    30 C21       1.2737   -0.1294    7.5156   C.2       1 RES1   0.0000
    31 O6        0.3263   -0.7976    7.8910   O.2       1 RES1   0.0000
    32 N4        1.3087    1.2082    7.6186   N.am      1 RES1   0.0000
    33 C22       2.2946    2.0399    6.9598   C.3       1 RES1   0.0000
    34 C23       3.5183    2.3888    7.8180   C.3       1 RES1   0.0000
    35 C24       4.4074    3.4403    7.1441   C.3       1 RES1   0.0000
    36 C25       4.9497    3.0017    5.7866   C.3       1 RES1   0.0000
    37 C26       0.3173    1.8699    8.4657   C.3       1 RES1   0.0000
    38 C27      -1.1108    1.7596    7.9271   C.3       1 RES1   0.0000
    39 C28      -1.2527    2.3419    6.5238   C.3       1 RES1   0.0000
    40 C29      -2.6500    2.0972    5.9720   C.3       1 RES1   0.0000
    41 H1        6.7958   -3.8184    3.4730   H         1 RES1   0.0000
    42 H2        5.1381   -3.9894    2.8954   H         1 RES1   0.0000
    43 H3        6.4935   -4.3441    1.8225   H         1 RES1   0.0000
    44 H4        5.8864   -1.6053    2.9837   H         1 RES1   0.0000
    45 H5        7.1600   -1.9665    1.8239   H         1 RES1   0.0000
    46 H6        5.4654   -2.6896    0.1607   H         1 RES1   0.0000
    47 H7        4.1674   -2.3226    1.3041   H         1 RES1   0.0000
    48 H8        6.1533   -0.2707    0.2302   H         1 RES1   0.0000
    49 H9        4.5447   -0.5960   -0.4833   H         1 RES1   0.0000
    50 H10       5.0605    0.6230    3.3566   H         1 RES1   0.0000
    51 H11       6.3859    0.5887    2.1934   H         1 RES1   0.0000
    52 H12       4.4670    2.9382    2.4423   H         1 RES1   0.0000
    53 H13       5.9618    2.7216    3.3349   H         1 RES1   0.0000
    54 H14       7.0591    3.7193    1.6239   H         1 RES1   0.0000
    55 H15       6.6443    2.3728    0.5832   H         1 RES1   0.0000
    56 H16       4.5072    3.4759    0.0031   H         1 RES1   0.0000
    57 H17       5.8699    4.5365   -0.3660   H         1 RES1   0.0000
    58 H18       4.8974    4.8316    1.0663   H         1 RES1   0.0000
    59 H19       2.9186    1.4967    3.2250   H         1 RES1   0.0000
    60 H20       2.5851    2.3866    1.7082   H         1 RES1   0.0000
    61 H21       1.4823    0.2424    4.1308   H         1 RES1   0.0000
    62 H22       0.0889    1.3434    4.0462   H         1 RES1   0.0000
    63 H23      -0.8078   -0.6375    5.1729   H         1 RES1   0.0000
    64 H24      -2.8753   -1.8727    4.4115   H         1 RES1   0.0000
    65 H25      -1.7703   -2.6633    3.2548   H         1 RES1   0.0000
    66 H26      -1.6304   -2.7792    6.3117   H         1 RES1   0.0000
    67 H27      -2.0879   -4.0872    5.2119   H         1 RES1   0.0000
    68 H28       0.6159   -2.6995    5.3943   H         1 RES1   0.0000
    69 H29       0.2466   -4.3061    6.0077   H         1 RES1   0.0000
    70 H30      -0.2369   -5.0678    3.6489   H         1 RES1   0.0000
    71 H31       0.2351   -3.4622    3.0678   H         1 RES1   0.0000
    72 H32       1.9898   -5.5317    4.4434   H         1 RES1   0.0000
    73 H33       2.1462   -4.8502    2.8042   H         1 RES1   0.0000
    74 H34       3.2274   -3.8652    5.2264   H         1 RES1   0.0000
    75 H35       4.2084   -1.9853    5.6286   H         1 RES1   0.0000
    76 H36       4.2630   -0.8009    4.3023   H         1 RES1   0.0000
    77 H37       2.3055   -1.9170    7.0978   H         1 RES1   0.0000
    78 H38       3.3893   -0.5612    7.5115   H         1 RES1   0.0000
    79 H39       2.6259    1.5303    6.0569   H         1 RES1   0.0000
    80 H40       1.7950    2.9641    6.6564   H         1 RES1   0.0000
    81 H41       3.1985    2.7756    8.7866   H         1 RES1   0.0000
    82 H42       4.1131    1.4913    8.0035   H         1 RES1   0.0000
    83 H43       3.8510    4.3725    7.0173   H         1 RES1   0.0000
    84 H44       5.2507    3.6482    7.8048   H         1 RES1   0.0000
    85 H45       4.1511    2.9386    5.0508   H         1 RES1   0.0000
    86 H46       5.6764    3.7292    5.4357   H         1 RES1   0.0000
    87 H47       5.4404    2.0334    5.8600   H         1 RES1   0.0000
    88 H48       0.3356    1.4196    9.4614   H         1 RES1   0.0000
    89 H49       0.6016    2.9196    8.5496   H         1 RES1   0.0000
    90 H50      -1.4007    0.7084    7.9153   H         1 RES1   0.0000
    91 H51      -1.7720    2.2921    8.6120   H         1 RES1   0.0000
    92 H52      -1.0487    3.4139    6.5528   H         1 RES1   0.0000
    93 H53      -0.5077    1.8761    5.8704   H         1 RES1   0.0000
    94 H54      -3.3788    2.5789    6.6138   H         1 RES1   0.0000
    95 H55      -2.7666    2.4973    4.9684   H         1 RES1   0.0000
    96 H56      -2.8649    1.0324    5.9493   H         1 RES1   0.0000
    97 C30       5.4967   -3.6633   -2.8298   C.3       1 RES1   0.0000
    98 C31       4.0438   -4.1201   -2.8653   C.3       1 RES1   0.0000
    99 C32       3.3317   -3.8058   -1.5501   C.3       1 RES1   0.0000
   100 C33       1.8999   -4.3405   -1.5079   C.3       1 RES1   0.0000
   101 N5        1.0415   -3.6139   -2.4418   N.am      1 RES1   0.0000
   102 C34       0.6101   -4.2729   -3.6594   C.3       1 RES1   0.0000
   103 C35      -0.8577   -4.7202   -3.5984   C.3       1 RES1   0.0000
   104 C36      -1.1498   -5.9698   -2.7609   C.3       1 RES1   0.0000
   105 C37      -1.0019   -5.7733   -1.2497   C.3       1 RES1   0.0000
   106 C38       0.6590   -2.3987   -2.0542   C.2       1 RES1   0.0000
   107 O7        0.8685   -1.9975   -0.9007   O.2       1 RES1   0.0000
   108 C39       0.0101   -1.4284   -3.0519   C.3       1 RES1   0.0000
   109 O8       -0.2543   -0.2010   -2.3797   O.3       1 RES1   0.0000
   110 C40       0.1141    0.9801   -3.0755   C.3       1 RES1   0.0000
   111 C41       1.1373    1.7873   -2.2660   C.2       1 RES1   0.0000
   112 O9        1.4364    1.4479   -1.1178   O.2       1 RES1   0.0000
   113 N6        1.6288    2.8739   -2.8540   N.am      1 RES1   0.0000
   114 C42       2.5321    3.7892   -2.1731   C.3       1 RES1   0.0000
   115 C43       3.7652    4.1232   -3.0100   C.3       1 RES1   0.0000
   116 C44       4.5069    2.8869   -3.5100   C.3       1 RES1   0.0000
   117 C45       5.0687    1.9817   -2.4169   C.3       1 RES1   0.0000
   118 C46       5.7887    0.7765   -3.0223   C.3       1 RES1   0.0000
   119 N7        4.9400    0.0338   -3.9417   N.am      1 RES1   0.0000
   120 C47       3.7116   -0.4481   -3.7020   C.2       1 RES1   0.0000
   121 O10       3.1267   -0.4243   -2.6332   O.2       1 RES1   0.0000
   122 C48       3.0277   -0.9690   -4.9832   C.3       1 RES1   0.0000
   123 O11       2.1030    0.0139   -5.4208   O.3       1 RES1   0.0000
   124 C49       2.6811    0.9742   -6.2929   C.3       1 RES1   0.0000
   125 C50       1.8743    2.2771   -6.4005   C.2       1 RES1   0.0000
   126 O12       2.4080    3.3190   -6.0509   O.2       1 RES1   0.0000
   127 N8        0.6430    2.2415   -6.9280   N.am      1 RES1   0.0000
   128 C51      -0.1788    1.0480   -6.9697   C.3       1 RES1   0.0000
   129 C52       0.0095    0.1265   -8.1796   C.3       1 RES1   0.0000
   130 C53      -0.9086   -1.0989   -8.0792   C.3       1 RES1   0.0000
   131 C54      -0.6107   -1.9897   -6.8725   C.3       1 RES1   0.0000
   132 C55       0.0540    3.5110   -7.3425   C.3       1 RES1   0.0000
   133 C56      -0.3740    4.4039   -6.1762   C.3       1 RES1   0.0000
   134 C57      -1.4959    3.8142   -5.3236   C.3       1 RES1   0.0000
   135 C58      -1.7453    4.6836   -4.0990   C.3       1 RES1   0.0000
   136 H57       5.9837   -3.8513   -3.7811   H         1 RES1   0.0000
   137 H58       5.5542   -2.5996   -2.6138   H         1 RES1   0.0000
   138 H59       6.0376   -4.2048   -2.0601   H         1 RES1   0.0000
   139 H60       3.5290   -3.6248   -3.6915   H         1 RES1   0.0000
   140 H61       4.0083   -5.1963   -3.0470   H         1 RES1   0.0000
   141 H62       3.8842   -4.2630   -0.7279   H         1 RES1   0.0000
   142 H63       3.3101   -2.7267   -1.3858   H         1 RES1   0.0000
   143 H64       1.8946   -5.3963   -1.7722   H         1 RES1   0.0000
   144 H65       1.5063   -4.2050   -0.4981   H         1 RES1   0.0000
   145 H66       0.7374   -3.6102   -4.5190   H         1 RES1   0.0000
   146 H67       1.2496   -5.1410   -3.8185   H         1 RES1   0.0000
   147 H68      -1.4640   -3.8948   -3.2197   H         1 RES1   0.0000
   148 H69      -1.1739   -4.9214   -4.6214   H         1 RES1   0.0000
   149 H70      -2.1787   -6.2638   -2.9764   H         1 RES1   0.0000
   150 H71      -0.5127   -6.7914   -3.0922   H         1 RES1   0.0000
   151 H72      -1.1592   -4.7345   -0.9709   H         1 RES1   0.0000
   152 H73      -1.7285   -6.3813   -0.7199   H         1 RES1   0.0000
   153 H74      -0.0200   -6.0749   -0.9050   H         1 RES1   0.0000
   154 H75       0.7127   -1.2825   -3.8747   H         1 RES1   0.0000
   155 H76      -0.9254   -1.8308   -3.4566   H         1 RES1   0.0000
   156 H77       0.5443    0.7606   -4.0551   H         1 RES1   0.0000
   157 H78      -0.7906    1.5884   -3.1969   H         1 RES1   0.0000
   158 H79       1.4483    3.0756   -3.8297   H         1 RES1   0.0000
   159 H80       1.9897    4.7143   -1.9469   H         1 RES1   0.0000
   160 H81       2.8154    3.3081   -1.2350   H         1 RES1   0.0000
   161 H82       3.4606    4.6958   -3.8867   H         1 RES1   0.0000
   162 H83       4.4227    4.7428   -2.4008   H         1 RES1   0.0000
   163 H84       3.8125    2.3152   -4.1224   H         1 RES1   0.0000
   164 H85       5.3191    3.2165   -4.1580   H         1 RES1   0.0000
   165 H86       5.7911    2.5268   -1.8124   H         1 RES1   0.0000
   166 H87       4.2634    1.6220   -1.7767   H         1 RES1   0.0000
   167 H88       6.6518    1.1113   -3.5995   H         1 RES1   0.0000
   168 H89       6.1351    0.1111   -2.2264   H         1 RES1   0.0000
   169 H90       5.3081   -0.0769   -4.8715   H         1 RES1   0.0000
   170 H91       3.7398   -1.2062   -5.7786   H         1 RES1   0.0000
   171 H92       2.4486   -1.8627   -4.7497   H         1 RES1   0.0000
   172 H93       3.6675    1.2926   -5.9370   H         1 RES1   0.0000
   173 H94       2.8005    0.5526   -7.3007   H         1 RES1   0.0000
   174 H95       0.0254    0.4670   -6.0719   H         1 RES1   0.0000
   175 H96      -1.2220    1.3673   -6.9318   H         1 RES1   0.0000
   176 H97      -0.2131    0.6606   -9.1038   H         1 RES1   0.0000
   177 H98       1.0423   -0.2194   -8.2381   H         1 RES1   0.0000
   178 H99      -1.9515   -0.7749   -8.0384   H         1 RES1   0.0000
   179 H100     -0.7835   -1.6906   -8.9870   H         1 RES1   0.0000
   180 H101     -0.9185   -1.5111   -5.9456   H         1 RES1   0.0000
   181 H102     -1.1488   -2.9295   -6.9617   H         1 RES1   0.0000
   182 H103      0.4524   -2.2129   -6.8158   H         1 RES1   0.0000
   183 H104      0.7971    4.0600   -7.9250   H         1 RES1   0.0000
   184 H105     -0.8031    3.2893   -7.9773   H         1 RES1   0.0000
   185 H106      0.4953    4.6051   -5.5469   H         1 RES1   0.0000
   186 H107     -0.7079    5.3538   -6.5961   H         1 RES1   0.0000
   187 H108     -2.4115    3.7474   -5.9152   H         1 RES1   0.0000
   188 H109     -1.2311    2.8027   -5.0003   H         1 RES1   0.0000
   189 H110     -2.0303    5.6829   -4.4102   H         1 RES1   0.0000
   190 H111     -2.5408    4.2753   -3.4845   H         1 RES1   0.0000
   191 H112     -0.8398    4.7558   -3.5011   H         1 RES1   0.0000
   192 C59      -4.4263    5.3662   -1.4261   C.3       1 RES1   0.0000
   193 C60      -3.4456    5.4422   -0.2589   C.3       1 RES1   0.0000
   194 C61      -2.0344    5.0725   -0.7273   C.3       1 RES1   0.0000
   195 C62      -0.9936    4.8922    0.3841   C.3       1 RES1   0.0000
   196 N9       -1.4746    3.9244    1.3661   N.am      1 RES1   0.0000
   197 C63      -2.0784    4.4748    2.5659   C.3       1 RES1   0.0000
   198 C64      -1.1227    4.4614    3.7674   C.3       1 RES1   0.0000
   199 C65       0.1093    5.3698    3.6551   C.3       1 RES1   0.0000
   200 C66       1.3071    4.6725    3.0223   C.3       1 RES1   0.0000
   201 C67      -1.4242    2.6194    1.1024   C.2       1 RES1   0.0000
   202 O13      -0.7068    2.1152    0.2282   O.2       1 RES1   0.0000
   203 C68      -2.4093    1.6993    1.8297   C.3       1 RES1   0.0000
   204 O14      -2.0653    0.3734    1.4881   O.3       1 RES1   0.0000
   205 C69      -3.1590   -0.5189    1.3480   C.3       1 RES1   0.0000
   206 C70      -2.8732   -1.4860    0.2043   C.2       1 RES1   0.0000
   207 O15      -1.7938   -1.4214   -0.4006   O.2       1 RES1   0.0000
   208 N10      -3.8380   -2.3556   -0.0756   N.am      1 RES1   0.0000
   209 C71      -3.7506   -3.3231   -1.1588   C.3       1 RES1   0.0000
   210 C72      -4.9565   -3.3073   -2.1105   C.3       1 RES1   0.0000
   211 C73      -5.4811   -1.9093   -2.4259   C.3       1 RES1   0.0000
   212 C74      -4.4194   -0.9834   -3.0191   C.3       1 RES1   0.0000
   213 C75      -4.9925    0.4064   -3.3170   C.3       1 RES1   0.0000
   214 N11      -5.6782    0.9579   -2.1628   N.am      1 RES1   0.0000
   215 C76      -5.0513    1.5099   -1.1171   C.2       1 RES1   0.0000
   216 O16      -3.8451    1.6700   -1.0422   O.2       1 RES1   0.0000
   217 C77      -5.9812    1.8856    0.0505   C.3       1 RES1   0.0000
   218 O17      -5.8498    0.8598    1.0273   O.3       1 RES1   0.0000
   219 C78      -7.0172    0.1107    1.3169   C.3       1 RES1   0.0000
   220 C79      -6.6505   -1.2891    1.8490   C.2       1 RES1   0.0000
   221 O18      -6.6002   -2.2261    1.0643   O.2       1 RES1   0.0000
   222 N12      -6.3910   -1.4004    3.1617   N.am      1 RES1   0.0000
   223 C80      -5.8969   -0.2615    3.9076   C.3       1 RES1   0.0000
   224 C81      -6.9181    0.4476    4.8031   C.3       1 RES1   0.0000
   225 C82      -6.2981    1.6570    5.5117   C.3       1 RES1   0.0000
   226 C83      -5.8590    2.7670    4.5593   C.3       1 RES1   0.0000
   227 C84      -6.7266   -2.6000    3.9339   C.3       1 RES1   0.0000
   228 C85      -6.1655   -3.9250    3.4226   C.3       1 RES1   0.0000
   229 C86      -4.6452   -4.0125    3.5190   C.3       1 RES1   0.0000
   230 C87      -4.1512   -5.4118    3.1758   C.3       1 RES1   0.0000
   231 H113     -5.4333    5.6138   -1.1048   H         1 RES1   0.0000
   232 H114     -4.4384    4.3579   -1.8334   H         1 RES1   0.0000
   233 H115     -4.1389    6.0581   -2.2117   H         1 RES1   0.0000
   234 H116     -3.7735    4.7447    0.5152   H         1 RES1   0.0000
   235 H117     -3.4610    6.4510    0.1600   H         1 RES1   0.0000
   236 H118     -1.6767    5.8512   -1.4017   H         1 RES1   0.0000
   237 H119     -2.0969    4.1339   -1.2809   H         1 RES1   0.0000
   238 H120     -0.8064    5.8368    0.8938   H         1 RES1   0.0000
   239 H121     -0.0637    4.5393   -0.0683   H         1 RES1   0.0000
   240 H122     -2.9854    3.9306    2.8314   H         1 RES1   0.0000
   241 H123     -2.3737    5.4996    2.3519   H         1 RES1   0.0000
   242 H124     -0.7872    3.4373    3.9467   H         1 RES1   0.0000
   243 H125     -1.7074    4.7848    4.6279   H         1 RES1   0.0000
   244 H126      0.4044    5.6964    4.6540   H         1 RES1   0.0000
   245 H127     -0.1356    6.2745    3.0988   H         1 RES1   0.0000
   246 H128      1.5938    3.8141    3.6252   H         1 RES1   0.0000
   247 H129      2.1503    5.3553    2.9803   H         1 RES1   0.0000
   248 H130      1.0785    4.3313    2.0179   H         1 RES1   0.0000
   249 H131     -3.3845    1.9605    1.4025   H         1 RES1   0.0000
   250 H132     -2.4141    1.8237    2.9176   H         1 RES1   0.0000
   251 H133     -4.0753    0.0333    1.1281   H         1 RES1   0.0000
   252 H134     -3.3038   -1.1040    2.2625   H         1 RES1   0.0000
   253 H135     -4.7201   -2.3518    0.4330   H         1 RES1   0.0000
   254 H136     -3.6721   -4.3275   -0.7322   H         1 RES1   0.0000
   255 H137     -2.8296   -3.0920   -1.6980   H         1 RES1   0.0000
   256 H138     -5.7773   -3.8838   -1.6833   H         1 RES1   0.0000
   257 H139     -4.6482   -3.8054   -3.0318   H         1 RES1   0.0000
   258 H140     -5.8832   -1.4797   -1.5063   H         1 RES1   0.0000
   259 H141     -6.3033   -2.0061   -3.1364   H         1 RES1   0.0000
   260 H142     -4.0341   -1.4030   -3.9501   H         1 RES1   0.0000
   261 H143     -3.5871   -0.8682   -2.3243   H         1 RES1   0.0000
   262 H144     -5.7132    0.3620   -4.1355   H         1 RES1   0.0000
   263 H145     -4.1780    1.0842   -3.5835   H         1 RES1   0.0000
   264 H146     -6.6653    0.7682   -2.1040   H         1 RES1   0.0000
   265 H147     -7.0187    2.0040   -0.2619   H         1 RES1   0.0000
   266 H148     -5.6309    2.8205    0.4956   H         1 RES1   0.0000
   267 H149     -7.6105   -0.0711    0.4157   H         1 RES1   0.0000
   268 H150     -7.6401    0.6471    2.0413   H         1 RES1   0.0000
   269 H151     -5.4870    0.4488    3.1928   H         1 RES1   0.0000
   270 H152     -5.0626   -0.6196    4.5222   H         1 RES1   0.0000
   271 H153     -7.2963   -0.2403    5.5599   H         1 RES1   0.0000
   272 H154     -7.7733    0.7801    4.2111   H         1 RES1   0.0000
   273 H155     -5.4446    1.3297    6.1104   H         1 RES1   0.0000
   274 H156     -7.0416    2.0628    6.1989   H         1 RES1   0.0000
   275 H157     -5.0508    2.4375    3.9093   H         1 RES1   0.0000
   276 H158     -5.5092    3.6240    5.1279   H         1 RES1   0.0000
   277 H159     -6.6899    3.0896    3.9380   H         1 RES1   0.0000
   278 H160     -7.8171   -2.6904    3.9752   H         1 RES1   0.0000
   279 H161     -6.3591   -2.4307    4.9488   H         1 RES1   0.0000
   280 H162     -6.4784   -4.0945    2.3935   H         1 RES1   0.0000
   281 H163     -6.5971   -4.7074    4.0485   H         1 RES1   0.0000
   282 H164     -4.3437   -3.7637    4.5395   H         1 RES1   0.0000
   283 H165     -4.1935   -3.2868    2.8362   H         1 RES1   0.0000
   284 H166     -4.5601   -6.1292    3.8794   H         1 RES1   0.0000
   285 H167     -3.0668   -5.4716    3.2164   H         1 RES1   0.0000
   286 H168     -4.4777   -5.6884    2.1785   H         1 RES1   0.0000
@<TRIPOS>BOND
     1     1    12    1
     2     1    14    1
     3     1    17    1
     4     1   107    1
     5     1   109    1
     6     1   112    1
     7     1   202    1
     8     1   204    1
     9     1   207    1
    10     2     3    1
    11     2    41    1
    12     2    42    1
    13     2    43    1
    14     3     4    1
    15     3    44    1
    16     3    45    1
    17     4     5    1
    18     4    46    1
    19     4    47    1
    20     5     6    1
    21     5    48    1
    22     5    49    1
    23     6     7    1
    24     6    11    1
    25     7     8    1
    26     7    50    1
    27     7    51    1
    28     8     9    1
    29     8    52    1
    30     8    53    1
    31     9    10    1
    32     9    54    1
    33     9    55    1
    34    10    56    1
    35    10    57    1
    36    10    58    1
    37    11    12    2
    38    11    13    1
    39    13    14    1
    40    13    59    1
    41    13    60    1
    42    14    15    1
    43    15    16    1
    44    15    61    1
    45    15    62    1
    46    16    17    2
    47    16    18    1
    48    18    19    1
    49    18    63    1
    50    19    20    1
    51    19    64    1
    52    19    65    1
    53    20    21    1
    54    20    66    1
    55    20    67    1
    56    21    22    1
    57    21    68    1
    58    21    69    1
    59    22    23    1
    60    22    70    1
    61    22    71    1
    62    23    24    1
    63    23    72    1
    64    23    73    1
    65    24    25    1
    66    24    74    1
    67    25    26    2
    68    25    27    1
    69    27    28    1
    70    27    75    1
    71    27    76    1
    72    28    29    1
    73    29    30    1
    74    29    77    1
    75    29    78    1
    76    30    31    2
    77    30    32    1
    78    32    33    1
    79    32    37    1
    80    33    34    1
    81    33    79    1
    82    33    80    1
    83    34    35    1
    84    34    81    1
    85    34    82    1
    86    35    36    1
    87    35    83    1
    88    35    84    1
    89    36    85    1
    90    36    86    1
    91    36    87    1
    92    37    38    1
    93    37    88    1
    94    37    89    1
    95    38    39    1
    96    38    90    1
    97    38    91    1
    98    39    40    1
    99    39    92    1
   100    39    93    1
   101    40    94    1
   102    40    95    1
   103    40    96    1
   104    97    98    1
   105    97   136    1
   106    97   137    1
   107    97   138    1
   108    98    99    1
   109    98   139    1
   110    98   140    1
   111    99   100    1
   112    99   141    1
   113    99   142    1
   114   100   101    1
   115   100   143    1
   116   100   144    1
   117   101   102    1
   118   101   106    1
   119   102   103    1
   120   102   145    1
   121   102   146    1
   122   103   104    1
   123   103   147    1
   124   103   148    1
   125   104   105    1
   126   104   149    1
   127   104   150    1
   128   105   151    1
   129   105   152    1
   130   105   153    1
   131   106   107    2
   132   106   108    1
   133   108   109    1
   134   108   154    1
   135   108   155    1
   136   109   110    1
   137   110   111    1
   138   110   156    1
   139   110   157    1
   140   111   112    2
   141   111   113    1
   142   113   114    1
   143   113   158    1
   144   114   115    1
   145   114   159    1
   146   114   160    1
   147   115   116    1
   148   115   161    1
   149   115   162    1
   150   116   117    1
   151   116   163    1
   152   116   164    1
   153   117   118    1
   154   117   165    1
   155   117   166    1
   156   118   119    1
   157   118   167    1
   158   118   168    1
   159   119   120    1
   160   119   169    1
   161   120   121    2
   162   120   122    1
   163   122   123    1
   164   122   170    1
   165   122   171    1
   166   123   124    1
   167   124   125    1
   168   124   172    1
   169   124   173    1
   170   125   126    2
   171   125   127    1
   172   127   128    1
   173   127   132    1
   174   128   129    1
   175   128   174    1
   176   128   175    1
   177   129   130    1
   178   129   176    1
   179   129   177    1
   180   130   131    1
   181   130   178    1
   182   130   179    1
   183   131   180    1
   184   131   181    1
   185   131   182    1
   186   132   133    1
   187   132   183    1
   188   132   184    1
   189   133   134    1
   190   133   185    1
   191   133   186    1
   192   134   135    1
   193   134   187    1
   194   134   188    1
   195   135   189    1
   196   135   190    1
   197   135   191    1
   198   192   193    1
   199   192   231    1
   200   192   232    1
   201   192   233    1
   202   193   194    1
   203   193   234    1
   204   193   235    1
   205   194   195    1
   206   194   236    1
   207   194   237    1
   208   195   196    1
   209   195   238    1
   210   195   239    1
   211   196   197    1
   212   196   201    1
   213   197   198    1
   214   197   240    1
   215   197   241    1
   216   198   199    1
   217   198   242    1
   218   198   243    1
   219   199   200    1
   220   199   244    1
   221   199   245    1
   222   200   246    1
   223   200   247    1
   224   200   248    1
   225   201   202    2
   226   201   203    1
   227   203   204    1
   228   203   249    1
   229   203   250    1
   230   204   205    1
   231   205   206    1
   232   205   251    1
   233   205   252    1
   234   206   207    2
   235   206   208    1
   236   208   209    1
   237   208   253    1
   238   209   210    1
   239   209   254    1
   240   209   255    1
   241   210   211    1
   242   210   256    1
   243   210   257    1
   244   211   212    1
   245   211   258    1
   246   211   259    1
   247   212   213    1
   248   212   260    1
   249   212   261    1
   250   213   214    1
   251   213   262    1
   252   213   263    1
   253   214   215    1
   254   214   264    1
   255   215   216    2
   256   215   217    1
   257   217   218    1
   258   217   265    1
   259   217   266    1
   260   218   219    1
   261   219   220    1
   262   219   267    1
   263   219   268    1
   264   220   221    2
   265   220   222    1
   266   222   223    1
   267   222   227    1
   268   223   224    1
   269   223   269    1
   270   223   270    1
   271   224   225    1
   272   224   271    1
   273   224   272    1
   274   225   226    1
   275   225   273    1
   276   225   274    1
   277   226   275    1
   278   226   276    1
   279   226   277    1
   280   227   228    1
   281   227   278    1
   282   227   279    1
   283   228   229    1
   284   228   280    1
   285   228   281    1
   286   229   230    1
   287   229   282    1
   288   229   283    1
   289   230   284    1
   290   230   285    1
   291   230   286    1
@<TRIPOS>SUBSTRUCTURE
     1 RES1      286 GROUP             0 ****  ****    0  
