@<TRIPOS>MOLECULE
cn9_YICLED_0_nunpairedes_0_charge_3 Charge: 3 Unpaired_Electrons: 6 XTB_Unpaired_Electrons: 0 XTB_Charge: 3
   166   183     1     0     0
SMALL
NoCharges
****
Generated from Architector

@<TRIPOS>ATOM
     1 Eu1       0.1072   -0.2315   -0.6294   Eu        1 RES1   0.0000
     2 S1        1.8888    0.2924    1.9193   S.3       1 RES1   0.0000
     3 P1        2.1436   -1.2198    3.1660   P.3       1 RES1   0.0000
     4 C1        0.6790   -2.3608    3.0178   C.3       1 RES1   0.0000
     5 O1        0.1066   -2.2591    1.7185   O.3       1 RES1   0.0000
     6 C2       -1.2492   -2.6817    1.7337   C.3       1 RES1   0.0000
     7 P2       -2.4210   -1.2665    2.1831   P.3       1 RES1   0.0000
     8 S2       -2.2834    0.1565    0.8211   S.3       1 RES1   0.0000
     9 C3       -1.9577   -0.6267    3.8290   C.ar      1 RES1   0.0000
    10 C4       -1.4089    0.6533    3.8727   C.ar      1 RES1   0.0000
    11 C5       -0.9735    1.1755    5.0778   C.ar      1 RES1   0.0000
    12 C6       -1.0826    0.4244    6.2371   C.ar      1 RES1   0.0000
    13 C7       -1.6285   -0.8519    6.1930   C.ar      1 RES1   0.0000
    14 C8       -2.0745   -1.3853    4.9961   C.ar      1 RES1   0.0000
    15 C9       -4.0590   -2.0238    2.1177   C.ar      1 RES1   0.0000
    16 C10      -4.3736   -2.7775    0.9875   C.ar      1 RES1   0.0000
    17 C11      -5.6499   -3.2887    0.8565   C.ar      1 RES1   0.0000
    18 C12      -6.6034   -3.0252    1.8300   C.ar      1 RES1   0.0000
    19 C13      -6.2992   -2.2315    2.9241   C.ar      1 RES1   0.0000
    20 C14      -5.0204   -1.7234    3.0755   C.ar      1 RES1   0.0000
    21 C15       2.4942   -0.9401    4.9316   C.ar      1 RES1   0.0000
    22 C16       2.0331   -1.8396    5.8877   C.ar      1 RES1   0.0000
    23 C17       2.6838   -1.9297    7.1067   C.ar      1 RES1   0.0000
    24 C18       3.8081   -1.1616    7.3675   C.ar      1 RES1   0.0000
    25 C19       4.2187   -0.2125    6.4433   C.ar      1 RES1   0.0000
    26 C20       3.5664   -0.0986    5.2284   C.ar      1 RES1   0.0000
    27 C21       3.6439   -2.2272    2.8345   C.ar      1 RES1   0.0000
    28 C22       4.7740   -1.5139    2.4460   C.ar      1 RES1   0.0000
    29 C23       5.9405   -2.1800    2.1229   C.ar      1 RES1   0.0000
    30 C24       5.9954   -3.5648    2.2166   C.ar      1 RES1   0.0000
    31 C25       4.9109   -4.2691    2.7176   C.ar      1 RES1   0.0000
    32 C26       3.7387   -3.6026    3.0400   C.ar      1 RES1   0.0000
    33 H1       -0.0424   -2.0162    3.7706   H         1 RES1   0.0000
    34 H2        0.9539   -3.4059    3.2043   H         1 RES1   0.0000
    35 H3       -1.3864   -3.5255    2.4185   H         1 RES1   0.0000
    36 H4       -1.4907   -2.9897    0.7061   H         1 RES1   0.0000
    37 H5       -1.3398    1.2466    2.9689   H         1 RES1   0.0000
    38 H6       -0.5515    2.1677    5.1101   H         1 RES1   0.0000
    39 H7       -0.7444    0.8252    7.1806   H         1 RES1   0.0000
    40 H8       -1.7089   -1.4317    7.0994   H         1 RES1   0.0000
    41 H9       -2.5212   -2.3710    4.9727   H         1 RES1   0.0000
    42 H10      -3.6388   -2.9558    0.2133   H         1 RES1   0.0000
    43 H11      -5.9019   -3.8885   -0.0044   H         1 RES1   0.0000
    44 H12      -7.5944   -3.4413    1.7334   H         1 RES1   0.0000
    45 H13      -7.0570   -2.0047    3.6583   H         1 RES1   0.0000
    46 H14      -4.7623   -1.0994    3.9198   H         1 RES1   0.0000
    47 H15       1.1858   -2.4794    5.6873   H         1 RES1   0.0000
    48 H16       2.3395   -2.6374    7.8432   H         1 RES1   0.0000
    49 H17       4.3771   -1.3168    8.2740   H         1 RES1   0.0000
    50 H18       5.0776    0.4039    6.6595   H         1 RES1   0.0000
    51 H19       3.8939    0.6277    4.4979   H         1 RES1   0.0000
    52 H20       4.7255   -0.4315    2.4279   H         1 RES1   0.0000
    53 H21       6.8071   -1.6134    1.8205   H         1 RES1   0.0000
    54 H22       6.8971   -4.0860    1.9382   H         1 RES1   0.0000
    55 H23       4.9949   -5.3379    2.8658   H         1 RES1   0.0000
    56 H24       2.9095   -4.1525    3.4611   H         1 RES1   0.0000
    57 S3       -2.1642   -1.2928   -2.1481   S.3       1 RES1   0.0000
    58 P3       -1.8303   -1.1190   -4.0947   P.3       1 RES1   0.0000
    59 C27      -1.5657    0.6835   -4.5000   C.3       1 RES1   0.0000
    60 O2       -0.6694    1.1571   -3.5050   O.3       1 RES1   0.0000
    61 C28      -0.3772    2.5478   -3.5999   C.3       1 RES1   0.0000
    62 P4       -1.2946    3.4483   -2.2419   P.3       1 RES1   0.0000
    63 S4       -0.7657    2.6238   -0.5179   S.3       1 RES1   0.0000
    64 C29      -3.0573    3.2580   -2.6340   C.ar      1 RES1   0.0000
    65 C30      -3.9073    2.6701   -1.7035   C.ar      1 RES1   0.0000
    66 C31      -5.2528    2.5380   -2.0014   C.ar      1 RES1   0.0000
    67 C32      -5.7443    2.9627   -3.2247   C.ar      1 RES1   0.0000
    68 C33      -4.8878    3.5298   -4.1613   C.ar      1 RES1   0.0000
    69 C34      -3.5455    3.6900   -3.8673   C.ar      1 RES1   0.0000
    70 C35      -0.8003    5.1939   -2.3287   C.ar      1 RES1   0.0000
    71 C36       0.4562    5.5506   -2.8131   C.ar      1 RES1   0.0000
    72 C37       0.8747    6.8660   -2.7247   C.ar      1 RES1   0.0000
    73 C38       0.0559    7.8233   -2.1439   C.ar      1 RES1   0.0000
    74 C39      -1.2047    7.4735   -1.6809   C.ar      1 RES1   0.0000
    75 C40      -1.6364    6.1601   -1.7699   C.ar      1 RES1   0.0000
    76 C41      -3.2500   -1.7583   -4.9953   C.ar      1 RES1   0.0000
    77 C42      -3.6997   -1.1829   -6.1757   C.ar      1 RES1   0.0000
    78 C43      -4.7813   -1.7536   -6.8228   C.ar      1 RES1   0.0000
    79 C44      -5.3932   -2.8888   -6.3166   C.ar      1 RES1   0.0000
    80 C45      -4.9339   -3.4576   -5.1418   C.ar      1 RES1   0.0000
    81 C46      -3.8648   -2.8935   -4.4746   C.ar      1 RES1   0.0000
    82 C47      -0.3078   -1.9351   -4.6857   C.ar      1 RES1   0.0000
    83 C48       0.9169   -1.3529   -4.3632   C.ar      1 RES1   0.0000
    84 C49       2.0928   -2.0138   -4.6643   C.ar      1 RES1   0.0000
    85 C50       2.0549   -3.2498   -5.2885   C.ar      1 RES1   0.0000
    86 C51       0.8371   -3.8262   -5.6137   C.ar      1 RES1   0.0000
    87 C52      -0.3504   -3.1771   -5.3131   C.ar      1 RES1   0.0000
    88 H25      -2.5277    1.2171   -4.4665   H         1 RES1   0.0000
    89 H26      -1.1116    0.7748   -5.4980   H         1 RES1   0.0000
    90 H27      -0.6017    2.9479   -4.5897   H         1 RES1   0.0000
    91 H28       0.6915    2.6503   -3.3869   H         1 RES1   0.0000
    92 H29      -3.5157    2.3266   -0.7543   H         1 RES1   0.0000
    93 H30      -5.9190    2.1135   -1.2654   H         1 RES1   0.0000
    94 H31      -6.7949    2.8616   -3.4557   H         1 RES1   0.0000
    95 H32      -5.2757    3.8533   -5.1150   H         1 RES1   0.0000
    96 H33      -2.8813    4.1466   -4.5912   H         1 RES1   0.0000
    97 H34       1.1126    4.8162   -3.2578   H         1 RES1   0.0000
    98 H35       1.8465    7.1406   -3.1077   H         1 RES1   0.0000
    99 H36       0.3993    8.8442   -2.0598   H         1 RES1   0.0000
   100 H37      -1.8461    8.2310   -1.2517   H         1 RES1   0.0000
   101 H38      -2.6198    5.8857   -1.4094   H         1 RES1   0.0000
   102 H39      -3.1978   -0.3180   -6.5850   H         1 RES1   0.0000
   103 H40      -5.1403   -1.3149   -7.7351   H         1 RES1   0.0000
   104 H41      -6.2230   -3.3354   -6.8412   H         1 RES1   0.0000
   105 H42      -5.4005   -4.3461   -4.7525   H         1 RES1   0.0000
   106 H43      -3.4932   -3.3258   -3.5572   H         1 RES1   0.0000
   107 H44       0.9467   -0.3998   -3.8392   H         1 RES1   0.0000
   108 H45       3.0355   -1.5685   -4.3824   H         1 RES1   0.0000
   109 H46       2.9743   -3.7651   -5.5212   H         1 RES1   0.0000
   110 H47       0.8122   -4.7895   -6.1005   H         1 RES1   0.0000
   111 H48      -1.3007   -3.6232   -5.5780   H         1 RES1   0.0000
   112 S5        0.4775   -2.8941   -1.8951   S.3       1 RES1   0.0000
   113 P5        1.8405   -4.0263   -1.0412   P.3       1 RES1   0.0000
   114 C53       3.2252   -2.8989   -0.4480   C.3       1 RES1   0.0000
   115 O3        2.9452   -1.5347   -0.7450   O.3       1 RES1   0.0000
   116 C54       4.1559   -0.7848   -0.7804   C.3       1 RES1   0.0000
   117 P6        3.9149    0.8966   -1.5557   P.3       1 RES1   0.0000
   118 S6        2.0320    1.5044   -1.5445   S.3       1 RES1   0.0000
   119 C55       4.5513    0.7784   -3.2388   C.ar      1 RES1   0.0000
   120 C56       3.7164    1.1092   -4.2979   C.ar      1 RES1   0.0000
   121 C57       4.2252    1.1256   -5.5844   C.ar      1 RES1   0.0000
   122 C58       5.5553    0.8084   -5.8058   C.ar      1 RES1   0.0000
   123 C59       6.3806    0.4546   -4.7483   C.ar      1 RES1   0.0000
   124 C60       5.8834    0.4360   -3.4576   C.ar      1 RES1   0.0000
   125 C61       4.9572    2.0605   -0.6429   C.ar      1 RES1   0.0000
   126 C62       4.8571    2.0642    0.7433   C.ar      1 RES1   0.0000
   127 C63       5.5590    2.9953    1.4786   C.ar      1 RES1   0.0000
   128 C64       6.3232    3.9569    0.8362   C.ar      1 RES1   0.0000
   129 C65       6.4237    3.9513   -0.5459   C.ar      1 RES1   0.0000
   130 C66       5.7470    3.0036   -1.2945   C.ar      1 RES1   0.0000
   131 C67       2.7217   -5.3194   -1.9846   C.ar      1 RES1   0.0000
   132 C68       3.8680   -5.8539   -1.3974   C.ar      1 RES1   0.0000
   133 C69       4.5099   -6.9205   -1.9966   C.ar      1 RES1   0.0000
   134 C70       4.0107   -7.4740   -3.1654   C.ar      1 RES1   0.0000
   135 C71       2.8493   -6.9671   -3.7233   C.ar      1 RES1   0.0000
   136 C72       2.1972   -5.8985   -3.1310   C.ar      1 RES1   0.0000
   137 C73       0.9790   -5.0519    0.1913   C.ar      1 RES1   0.0000
   138 C74       1.5938   -5.6124    1.3030   C.ar      1 RES1   0.0000
   139 C75       0.9146   -6.5679    2.0456   C.ar      1 RES1   0.0000
   140 C76      -0.3566   -6.9832    1.6722   C.ar      1 RES1   0.0000
   141 C77      -0.9656   -6.4266    0.5559   C.ar      1 RES1   0.0000
   142 C78      -0.3009   -5.4624   -0.1834   C.ar      1 RES1   0.0000
   143 H49       4.1069   -3.2210   -1.0216   H         1 RES1   0.0000
   144 H50       3.4102   -3.0306    0.6199   H         1 RES1   0.0000
   145 H51       4.9274   -1.3030   -1.3726   H         1 RES1   0.0000
   146 H52       4.5389   -0.6349    0.2340   H         1 RES1   0.0000
   147 H53       2.6838    1.3626   -4.0928   H         1 RES1   0.0000
   148 H54       3.5918    1.4088   -6.4093   H         1 RES1   0.0000
   149 H55       5.9504    0.8309   -6.8097   H         1 RES1   0.0000
   150 H56       7.4169    0.2208   -4.9329   H         1 RES1   0.0000
   151 H57       6.5151    0.1842   -2.6150   H         1 RES1   0.0000
   152 H58       4.2168    1.3492    1.2367   H         1 RES1   0.0000
   153 H59       5.5152    2.9642    2.5532   H         1 RES1   0.0000
   154 H60       6.8365    4.7086    1.4146   H         1 RES1   0.0000
   155 H61       7.0387    4.6862   -1.0403   H         1 RES1   0.0000
   156 H62       5.8311    2.9941   -2.3721   H         1 RES1   0.0000
   157 H63       4.2477   -5.4466   -0.4703   H         1 RES1   0.0000
   158 H64       5.3988   -7.3298   -1.5478   H         1 RES1   0.0000
   159 H65       4.5285   -8.2946   -3.6376   H         1 RES1   0.0000
   160 H66       2.4424   -7.4179   -4.6133   H         1 RES1   0.0000
   161 H67       1.2811   -5.5123   -3.5501   H         1 RES1   0.0000
   162 H68       2.5996   -5.3247    1.5711   H         1 RES1   0.0000
   163 H69       1.4074   -6.9967    2.9064   H         1 RES1   0.0000
   164 H70      -0.8613   -7.7597    2.2332   H         1 RES1   0.0000
   165 H71      -1.9493   -6.7520    0.2431   H         1 RES1   0.0000
   166 H72      -0.7620   -5.0344   -1.0664   H         1 RES1   0.0000
@<TRIPOS>BOND
     1     1     2    1
     2     1     5    1
     3     1     8    1
     4     1    57    1
     5     1    60    1
     6     1    63    1
     7     1   112    1
     8     1   115    1
     9     1   118    1
    10     2     3    2
    11     3     4    1
    12     3    21    1
    13     3    27    1
    14     4     5    1
    15     4    33    1
    16     4    34    1
    17     5     6    1
    18     6     7    1
    19     6    35    1
    20     6    36    1
    21     7     8    2
    22     7     9    1
    23     7    15    1
    24     9    10    1
    25     9    14    2
    26    10    11    2
    27    10    37    1
    28    11    12    1
    29    11    38    1
    30    12    13    2
    31    12    39    1
    32    13    14    1
    33    13    40    1
    34    14    41    1
    35    15    16    1
    36    15    20    2
    37    16    17    2
    38    16    42    1
    39    17    18    1
    40    17    43    1
    41    18    19    2
    42    18    44    1
    43    19    20    1
    44    19    45    1
    45    20    46    1
    46    21    22    1
    47    21    26    2
    48    22    23    2
    49    22    47    1
    50    23    24    1
    51    23    48    1
    52    24    25    2
    53    24    49    1
    54    25    26    1
    55    25    50    1
    56    26    51    1
    57    27    28    1
    58    27    32    2
    59    28    29    2
    60    28    52    1
    61    29    30    1
    62    29    53    1
    63    30    31    2
    64    30    54    1
    65    31    32    1
    66    31    55    1
    67    32    56    1
    68    57    58    2
    69    58    59    1
    70    58    76    1
    71    58    82    1
    72    59    60    1
    73    59    88    1
    74    59    89    1
    75    60    61    1
    76    61    62    1
    77    61    90    1
    78    61    91    1
    79    62    63    2
    80    62    64    1
    81    62    70    1
    82    64    65    1
    83    64    69    2
    84    65    66    2
    85    65    92    1
    86    66    67    1
    87    66    93    1
    88    67    68    2
    89    67    94    1
    90    68    69    1
    91    68    95    1
    92    69    96    1
    93    70    71    1
    94    70    75    2
    95    71    72    2
    96    71    97    1
    97    72    73    1
    98    72    98    1
    99    73    74    2
   100    73    99    1
   101    74    75    1
   102    74   100    1
   103    75   101    1
   104    76    77    1
   105    76    81    2
   106    77    78    2
   107    77   102    1
   108    78    79    1
   109    78   103    1
   110    79    80    2
   111    79   104    1
   112    80    81    1
   113    80   105    1
   114    81   106    1
   115    82    83    1
   116    82    87    2
   117    83    84    2
   118    83   107    1
   119    84    85    1
   120    84   108    1
   121    85    86    2
   122    85   109    1
   123    86    87    1
   124    86   110    1
   125    87   111    1
   126   112   113    2
   127   113   114    1
   128   113   131    1
   129   113   137    1
   130   114   115    1
   131   114   143    1
   132   114   144    1
   133   115   116    1
   134   116   117    1
   135   116   145    1
   136   116   146    1
   137   117   118    2
   138   117   119    1
   139   117   125    1
   140   119   120    1
   141   119   124    2
   142   120   121    2
   143   120   147    1
   144   121   122    1
   145   121   148    1
   146   122   123    2
   147   122   149    1
   148   123   124    1
   149   123   150    1
   150   124   151    1
   151   125   126    1
   152   125   130    2
   153   126   127    2
   154   126   152    1
   155   127   128    1
   156   127   153    1
   157   128   129    2
   158   128   154    1
   159   129   130    1
   160   129   155    1
   161   130   156    1
   162   131   132    1
   163   131   136    2
   164   132   133    2
   165   132   157    1
   166   133   134    1
   167   133   158    1
   168   134   135    2
   169   134   159    1
   170   135   136    1
   171   135   160    1
   172   136   161    1
   173   137   138    1
   174   137   142    2
   175   138   139    2
   176   138   162    1
   177   139   140    1
   178   139   163    1
   179   140   141    2
   180   140   164    1
   181   141   142    1
   182   141   165    1
   183   142   166    1
@<TRIPOS>SUBSTRUCTURE
     1 RES1      166 GROUP             0 ****  ****    0  
