@<TRIPOS>MOLECULE
am_c3_9H2O_c0_0_nunpairedes_0_charge_3 Charge: 3 Unpaired_Electrons: 6 XTB_Unpaired_Electrons: 0 XTB_Charge: 3
   136   143     1     0     0
SMALL
NoCharges
****
Generated from Architector

@<TRIPOS>ATOM
     1 Eu1       0.7120   -0.1261   -0.1874   Eu        1 RES1   0.0000
     2 C1       -5.8411    1.9970    6.9057   C.3       1 RES1   0.0000
     3 C2       -5.1594    1.1868    5.8120   C.3       1 RES1   0.0000
     4 C3       -3.6767    1.5309    5.6617   C.3       1 RES1   0.0000
     5 C4       -3.4133    2.9371    5.1191   C.3       1 RES1   0.0000
     6 C5       -3.9226    3.1899    3.6935   C.3       1 RES1   0.0000
     7 C6       -3.5759    2.1387    2.6287   C.3       1 RES1   0.0000
     8 C7       -2.1659    2.2517    2.0253   C.3       1 RES1   0.0000
     9 C8       -1.0152    2.0625    3.0274   C.3       1 RES1   0.0000
    10 N1        0.2768    2.0819    2.3612   N.am      1 RES1   0.0000
    11 C9        0.6269    3.2928    1.6316   C.3       1 RES1   0.0000
    12 C10       0.9598    4.4697    2.5527   C.3       1 RES1   0.0000
    13 C11       2.2240    4.2635    3.3890   C.3       1 RES1   0.0000
    14 C12       2.0832    3.2984    4.5683   C.3       1 RES1   0.0000
    15 C13       3.4173    3.0942    5.2792   C.3       1 RES1   0.0000
    16 C14       4.2951    2.0596    4.5757   C.3       1 RES1   0.0000
    17 C15       5.6873    1.9480    5.1967   C.3       1 RES1   0.0000
    18 C16       6.5633    3.1621    4.9126   C.3       1 RES1   0.0000
    19 C17       1.1989    1.1528    2.5502   C.2       1 RES1   0.0000
    20 S1        2.6312    1.0345    1.6272   S.3       1 RES1   0.0000
    21 C18       0.8832   -0.1814    3.1466   C.ar      1 RES1   0.0000
    22 C19       1.1877   -0.7490    4.3929   C.ar      1 RES1   0.0000
    23 C20       1.0022   -2.1075    4.5880   C.ar      1 RES1   0.0000
    24 C21       0.5277   -2.9217    3.5379   C.ar      1 RES1   0.0000
    25 C22       0.3519   -4.3382    3.5773   C.ar      1 RES1   0.0000
    26 C23      -0.0873   -5.0293    2.4893   C.ar      1 RES1   0.0000
    27 C24      -0.4392   -4.3676    1.2731   C.ar      1 RES1   0.0000
    28 C25      -0.9291   -4.9789    0.1009   C.ar      1 RES1   0.0000
    29 C26      -1.3407   -4.2036   -0.9720   C.ar      1 RES1   0.0000
    30 C27      -1.2419   -2.8132   -0.8855   C.ar      1 RES1   0.0000
    31 C28      -1.6105   -1.7363   -1.8493   C.2       1 RES1   0.0000
    32 S2       -0.2429   -1.1161   -2.6657   S.3       1 RES1   0.0000
    33 N2       -2.7825   -1.1515   -1.8001   N.am      1 RES1   0.0000
    34 C29      -2.9674    0.1396   -2.4534   C.3       1 RES1   0.0000
    35 C30      -4.3268    0.4190   -3.0906   C.3       1 RES1   0.0000
    36 C31      -4.5132    1.9304   -3.2933   C.3       1 RES1   0.0000
    37 C32      -5.9947    2.3197   -3.3987   C.3       1 RES1   0.0000
    38 C33      -6.6109    2.8105   -2.0841   C.3       1 RES1   0.0000
    39 C34      -6.5582    1.8051   -0.9315   C.3       1 RES1   0.0000
    40 C35      -7.3679    2.2586    0.2887   C.3       1 RES1   0.0000
    41 C36      -8.8732    2.2152    0.0602   C.3       1 RES1   0.0000
    42 C37      -3.7528   -1.5107   -0.7715   C.3       1 RES1   0.0000
    43 C38      -4.7257   -2.6284   -1.1398   C.3       1 RES1   0.0000
    44 C39      -5.7123   -2.8594    0.0126   C.3       1 RES1   0.0000
    45 C40      -5.1168   -3.4645    1.2888   C.3       1 RES1   0.0000
    46 C41      -4.3134   -4.7563    1.1104   C.3       1 RES1   0.0000
    47 C42      -5.0371   -5.8415    0.3130   C.3       1 RES1   0.0000
    48 C43      -4.1229   -7.0033   -0.0794   C.3       1 RES1   0.0000
    49 C44      -3.6152   -7.8108    1.1081   C.3       1 RES1   0.0000
    50 N3       -0.6728   -2.2194    0.1691   N.ar      1 RES1   0.0000
    51 C45      -0.3042   -2.9693    1.2219   C.ar      1 RES1   0.0000
    52 C46       0.2215   -2.2525    2.3404   C.ar      1 RES1   0.0000
    53 N4        0.3821   -0.9282    2.1573   N.ar      1 RES1   0.0000
    54 H1       -6.8553    1.6410    7.0576   H         1 RES1   0.0000
    55 H2       -5.8875    3.0516    6.6480   H         1 RES1   0.0000
    56 H3       -5.3013    1.8977    7.8440   H         1 RES1   0.0000
    57 H4       -5.6772    1.3423    4.8643   H         1 RES1   0.0000
    58 H5       -5.2406    0.1270    6.0619   H         1 RES1   0.0000
    59 H6       -3.1951    0.7872    5.0170   H         1 RES1   0.0000
    60 H7       -3.2045    1.4519    6.6434   H         1 RES1   0.0000
    61 H8       -3.9089    3.6527    5.7765   H         1 RES1   0.0000
    62 H9       -2.3427    3.1478    5.1975   H         1 RES1   0.0000
    63 H10      -3.5701    4.1695    3.3655   H         1 RES1   0.0000
    64 H11      -5.0108    3.2527    3.7414   H         1 RES1   0.0000
    65 H12      -4.2731    2.2836    1.7988   H         1 RES1   0.0000
    66 H13      -3.7461    1.1401    3.0270   H         1 RES1   0.0000
    67 H14      -2.1074    3.2509    1.5876   H         1 RES1   0.0000
    68 H15      -2.0463    1.4945    1.2169   H         1 RES1   0.0000
    69 H16      -1.1316    1.1117    3.5513   H         1 RES1   0.0000
    70 H17      -1.0454    2.8686    3.7632   H         1 RES1   0.0000
    71 H18      -0.2180    3.5583    0.9963   H         1 RES1   0.0000
    72 H19       1.4933    3.0778    0.9945   H         1 RES1   0.0000
    73 H20       1.1073    5.3372    1.9087   H         1 RES1   0.0000
    74 H21       0.1122    4.6927    3.2002   H         1 RES1   0.0000
    75 H22       2.5126    5.2340    3.7971   H         1 RES1   0.0000
    76 H23       3.0409    3.9268    2.7489   H         1 RES1   0.0000
    77 H24       1.7356    2.3101    4.2365   H         1 RES1   0.0000
    78 H25       1.3388    3.6884    5.2608   H         1 RES1   0.0000
    79 H26       3.2483    2.7758    6.3089   H         1 RES1   0.0000
    80 H27       3.9435    4.0461    5.3132   H         1 RES1   0.0000
    81 H28       4.4042    2.3127    3.5169   H         1 RES1   0.0000
    82 H29       3.8041    1.0817    4.6259   H         1 RES1   0.0000
    83 H30       6.1781    1.0567    4.7956   H         1 RES1   0.0000
    84 H31       5.5914    1.8156    6.2750   H         1 RES1   0.0000
    85 H32       6.6438    3.3373    3.8415   H         1 RES1   0.0000
    86 H33       7.5613    2.9954    5.3070   H         1 RES1   0.0000
    87 H34       6.1642    4.0596    5.3793   H         1 RES1   0.0000
    88 H35       1.5625   -0.1342    5.1975   H         1 RES1   0.0000
    89 H36       1.2263   -2.5703    5.5373   H         1 RES1   0.0000
    90 H37       0.5787   -4.8584    4.5019   H         1 RES1   0.0000
    91 H38      -0.2097   -6.1014    2.5276   H         1 RES1   0.0000
    92 H39      -0.9819   -6.0543    0.0548   H         1 RES1   0.0000
    93 H40      -1.7274   -4.6654   -1.8688   H         1 RES1   0.0000
    94 H41      -2.1872    0.2593   -3.2053   H         1 RES1   0.0000
    95 H42      -2.7980    0.8871   -1.6606   H         1 RES1   0.0000
    96 H43      -5.1290    0.0564   -2.4547   H         1 RES1   0.0000
    97 H44      -4.3948   -0.0857   -4.0546   H         1 RES1   0.0000
    98 H45      -3.9834    2.2506   -4.1890   H         1 RES1   0.0000
    99 H46      -4.0694    2.4750   -2.4574   H         1 RES1   0.0000
   100 H47      -6.5593    1.4640   -3.7667   H         1 RES1   0.0000
   101 H48      -6.1142    3.1188   -4.1326   H         1 RES1   0.0000
   102 H49      -7.6544    3.0490   -2.2891   H         1 RES1   0.0000
   103 H50      -6.1210    3.7372   -1.7706   H         1 RES1   0.0000
   104 H51      -5.5139    1.6571   -0.6217   H         1 RES1   0.0000
   105 H52      -6.9554    0.8455   -1.2741   H         1 RES1   0.0000
   106 H53      -7.0740    3.2738    0.5622   H         1 RES1   0.0000
   107 H54      -7.1246    1.6030    1.1305   H         1 RES1   0.0000
   108 H55      -9.3977    2.4462    0.9821   H         1 RES1   0.0000
   109 H56      -9.1812    2.9383   -0.6891   H         1 RES1   0.0000
   110 H57      -9.1845    1.2271   -0.2692   H         1 RES1   0.0000
   111 H58      -4.3311   -0.6132   -0.5429   H         1 RES1   0.0000
   112 H59      -3.2096   -1.8067    0.1302   H         1 RES1   0.0000
   113 H60      -4.1761   -3.5434   -1.3609   H         1 RES1   0.0000
   114 H61      -5.2889   -2.3432   -2.0289   H         1 RES1   0.0000
   115 H62      -6.5143   -3.5064   -0.3420   H         1 RES1   0.0000
   116 H63      -6.1724   -1.9040    0.2757   H         1 RES1   0.0000
   117 H64      -5.9509   -3.6701    1.9603   H         1 RES1   0.0000
   118 H65      -4.4760   -2.7290    1.7871   H         1 RES1   0.0000
   119 H66      -4.0793   -5.1392    2.1050   H         1 RES1   0.0000
   120 H67      -3.3576   -4.5328    0.6262   H         1 RES1   0.0000
   121 H68      -5.4402   -5.4115   -0.6041   H         1 RES1   0.0000
   122 H69      -5.8736   -6.2226    0.9012   H         1 RES1   0.0000
   123 H70      -3.2755   -6.6177   -0.6562   H         1 RES1   0.0000
   124 H71      -4.6816   -7.6689   -0.7374   H         1 RES1   0.0000
   125 H72      -2.9543   -7.2197    1.7420   H         1 RES1   0.0000
   126 H73      -3.0743   -8.6885    0.7614   H         1 RES1   0.0000
   127 H74      -4.4520   -8.1486    1.7142   H         1 RES1   0.0000
   128 O1        2.5635    0.9093   -1.6632   O.3       1 RES1   0.0000
   129 H75       2.7778    0.7751   -2.6013   H         1 RES1   0.0000
   130 H76       3.3320    1.3909   -1.3134   H         1 RES1   0.0000
   131 O2        2.6000   -1.7756   -0.4494   O.3       1 RES1   0.0000
   132 H77       3.4402   -1.7902    0.0376   H         1 RES1   0.0000
   133 H78       2.7425   -2.3865   -1.1950   H         1 RES1   0.0000
   134 O3       -0.1186    1.9438   -1.3209   O.3       1 RES1   0.0000
   135 H79       0.3364    2.0575   -2.1716   H         1 RES1   0.0000
   136 H80      -0.6898    2.7276   -1.2584   H         1 RES1   0.0000
@<TRIPOS>BOND
     1     1    10    1
     2     1    20    1
     3     1    32    1
     4     1    33    1
     5     1    50    1
     6     1    53    1
     7     1   128    1
     8     1   131    1
     9     1   134    1
    10     2     3    1
    11     2    54    1
    12     2    55    1
    13     2    56    1
    14     3     4    1
    15     3    57    1
    16     3    58    1
    17     4     5    1
    18     4    59    1
    19     4    60    1
    20     5     6    1
    21     5    61    1
    22     5    62    1
    23     6     7    1
    24     6    63    1
    25     6    64    1
    26     7     8    1
    27     7    65    1
    28     7    66    1
    29     8     9    1
    30     8    67    1
    31     8    68    1
    32     9    10    1
    33     9    69    1
    34     9    70    1
    35    10    11    1
    36    10    19    1
    37    11    12    1
    38    11    71    1
    39    11    72    1
    40    12    13    1
    41    12    73    1
    42    12    74    1
    43    13    14    1
    44    13    75    1
    45    13    76    1
    46    14    15    1
    47    14    77    1
    48    14    78    1
    49    15    16    1
    50    15    79    1
    51    15    80    1
    52    16    17    1
    53    16    81    1
    54    16    82    1
    55    17    18    1
    56    17    83    1
    57    17    84    1
    58    18    85    1
    59    18    86    1
    60    18    87    1
    61    19    20    2
    62    19    21    1
    63    21    22    1
    64    21    53    2
    65    22    23    2
    66    22    88    1
    67    23    24    1
    68    23    89    1
    69    24    25    1
    70    24    52    2
    71    25    26    2
    72    25    90    1
    73    26    27    1
    74    26    91    1
    75    27    28    1
    76    27    51    2
    77    28    29    2
    78    28    92    1
    79    29    30    1
    80    29    93    1
    81    30    31    1
    82    30    50    2
    83    31    32    2
    84    31    33    1
    85    33    34    1
    86    33    42    1
    87    34    35    1
    88    34    94    1
    89    34    95    1
    90    35    36    1
    91    35    96    1
    92    35    97    1
    93    36    37    1
    94    36    98    1
    95    36    99    1
    96    37    38    1
    97    37   100    1
    98    37   101    1
    99    38    39    1
   100    38   102    1
   101    38   103    1
   102    39    40    1
   103    39   104    1
   104    39   105    1
   105    40    41    1
   106    40   106    1
   107    40   107    1
   108    41   108    1
   109    41   109    1
   110    41   110    1
   111    42    43    1
   112    42   111    1
   113    42   112    1
   114    43    44    1
   115    43   113    1
   116    43   114    1
   117    44    45    1
   118    44   115    1
   119    44   116    1
   120    45    46    1
   121    45   117    1
   122    45   118    1
   123    46    47    1
   124    46   119    1
   125    46   120    1
   126    47    48    1
   127    47   121    1
   128    47   122    1
   129    48    49    1
   130    48   123    1
   131    48   124    1
   132    49   125    1
   133    49   126    1
   134    49   127    1
   135    50    51    1
   136    51    52    1
   137    52    53    1
   138   128   129    1
   139   128   130    1
   140   131   132    1
   141   131   133    1
   142   134   135    1
   143   134   136    1
@<TRIPOS>SUBSTRUCTURE
     1 RES1      136 GROUP             0 ****  ****    0  
