@<TRIPOS>MOLECULE
capped_square_antiprismatic_0_nunpairedes_0_charge_3 Charge: 3 Unpaired_Electrons: 6 XTB_Unpaired_Electrons: 0 XTB_Charge: 3
   342   347     1     0     0
SMALL
NoCharges
****
Generated from Architector

@<TRIPOS>ATOM
     1 Eu1      -0.1199    0.1304   -0.3361   Eu        1 RES1   0.0000
     2 C1        5.0982   -6.6216    4.9652   C.3       1 RES1   0.0000
     3 C2        5.3723   -5.4584    5.9156   C.3       1 RES1   0.0000
     4 C3        4.6601   -4.1507    5.5543   C.3       1 RES1   0.0000
     5 C4        5.0258   -3.6402    4.1599   C.3       1 RES1   0.0000
     6 C5        4.9175   -2.1198    3.9585   C.3       1 RES1   0.0000
     7 C6        5.6655   -1.7298    2.6733   C.3       1 RES1   0.0000
     8 C7        7.1859   -1.7345    2.7942   C.3       1 RES1   0.0000
     9 C8        3.4497   -1.6172    3.9522   C.3       1 RES1   0.0000
    10 N1        3.3171   -0.2613    3.4108   N.am      1 RES1   0.0000
    11 C9        3.4175    0.9031    4.3222   C.3       1 RES1   0.0000
    12 C10       4.7063    1.7162    4.6365   C.3       1 RES1   0.0000
    13 C11       5.3607    2.3039    3.3802   C.3       1 RES1   0.0000
    14 C12       6.4735    3.3062    3.6719   C.3       1 RES1   0.0000
    15 C13       5.7121    1.0232    5.5650   C.3       1 RES1   0.0000
    16 C14       5.2367    0.8872    7.0238   C.3       1 RES1   0.0000
    17 C15       5.1804   -0.5524    7.5471   C.3       1 RES1   0.0000
    18 C16       6.5531   -1.2008    7.6993   C.3       1 RES1   0.0000
    19 C17       2.6022   -0.1140    2.2773   C.2       1 RES1   0.0000
    20 O1        1.6930   -0.8749    1.9082   O.2       1 RES1   0.0000
    21 C18       3.0288    0.9920    1.3163   C.3       1 RES1   0.0000
    22 N2        3.0627    0.4135   -0.0301   N.4       1 RES1   0.0000
    23 C19       3.4475    1.3591   -1.0813   C.3       1 RES1   0.0000
    24 C20       2.2570    1.1873   -2.0178   C.2       1 RES1   0.0000
    25 O2        1.1585    1.4680   -1.4635   O.2       1 RES1   0.0000
    26 N3        2.3438    0.5765   -3.1912   N.am      1 RES1   0.0000
    27 C21       1.1854   -0.2173   -3.6366   C.3       1 RES1   0.0000
    28 C22       0.7669   -0.1979   -5.1237   C.3       1 RES1   0.0000
    29 C23      -0.6650    0.3691   -5.2087   C.3       1 RES1   0.0000
    30 C24      -1.2977    0.4274   -6.5941   C.3       1 RES1   0.0000
    31 C25       0.8587   -1.6065   -5.7488   C.3       1 RES1   0.0000
    32 C26       1.4604   -1.6602   -7.1576   C.3       1 RES1   0.0000
    33 C27       2.9735   -1.4524   -7.1578   C.3       1 RES1   0.0000
    34 C28       3.5921   -1.6524   -8.5356   C.3       1 RES1   0.0000
    35 C29       3.6043    0.3774   -3.8870   C.3       1 RES1   0.0000
    36 C30       4.1255    1.5839   -4.6986   C.3       1 RES1   0.0000
    37 C31       5.4186    1.1337   -5.3973   C.3       1 RES1   0.0000
    38 C32       5.8469    2.0832   -6.5064   C.3       1 RES1   0.0000
    39 C33       4.3670    2.8663   -3.8825   C.3       1 RES1   0.0000
    40 C34       3.7898    4.1037   -4.5717   C.3       1 RES1   0.0000
    41 C35       4.3892    5.4209   -4.0854   C.3       1 RES1   0.0000
    42 C36       3.5778    6.5918   -4.6332   C.3       1 RES1   0.0000
    43 C37       3.6540   -0.9031   -0.1995   C.3       1 RES1   0.0000
    44 C38       2.5764   -1.9148   -0.5967   C.2       1 RES1   0.0000
    45 O3        1.3994   -1.5070   -0.7449   O.2       1 RES1   0.0000
    46 N4        2.8910   -3.1942   -0.7422   N.am      1 RES1   0.0000
    47 C39       4.2413   -3.7398   -0.7665   C.3       1 RES1   0.0000
    48 C40       4.5977   -4.3768   -2.1272   C.3       1 RES1   0.0000
    49 C41       5.9558   -3.8640   -2.6249   C.3       1 RES1   0.0000
    50 C42       5.8888   -2.4527   -3.1948   C.3       1 RES1   0.0000
    51 C43       4.5887   -5.9147   -2.0597   C.3       1 RES1   0.0000
    52 C44       4.3226   -6.5717   -3.4189   C.3       1 RES1   0.0000
    53 C45       2.8775   -6.4562   -3.9111   C.3       1 RES1   0.0000
    54 C46       1.9113   -7.3607   -3.1489   C.3       1 RES1   0.0000
    55 C47       1.8040   -4.1537   -0.8962   C.3       1 RES1   0.0000
    56 C48       1.5576   -5.0439    0.3425   C.3       1 RES1   0.0000
    57 C49       1.9499   -4.3232    1.6369   C.3       1 RES1   0.0000
    58 C50       1.7347   -5.1587    2.8939   C.3       1 RES1   0.0000
    59 C51       0.0877   -5.4964    0.3426   C.3       1 RES1   0.0000
    60 C52      -0.1181   -6.9491    0.7690   C.3       1 RES1   0.0000
    61 C53      -1.6055   -7.2820    0.8525   C.3       1 RES1   0.0000
    62 C54      -1.8550   -8.5713    1.6184   C.3       1 RES1   0.0000
    63 H1        5.5621   -7.5262    5.3547   H         1 RES1   0.0000
    64 H2        5.5061   -6.4331    3.9720   H         1 RES1   0.0000
    65 H3        4.0291   -6.8081    4.8760   H         1 RES1   0.0000
    66 H4        6.4494   -5.2811    5.9552   H         1 RES1   0.0000
    67 H5        5.0555   -5.7488    6.9181   H         1 RES1   0.0000
    68 H6        4.9596   -3.4070    6.2916   H         1 RES1   0.0000
    69 H7        3.5807   -4.2837    5.6372   H         1 RES1   0.0000
    70 H8        4.4414   -4.1623    3.4018   H         1 RES1   0.0000
    71 H9        6.0707   -3.8962    3.9833   H         1 RES1   0.0000
    72 H10       5.4217   -1.6507    4.8048   H         1 RES1   0.0000
    73 H11       5.3601   -0.7225    2.3798   H         1 RES1   0.0000
    74 H12       5.3830   -2.4267    1.8791   H         1 RES1   0.0000
    75 H13       7.5157   -1.0604    3.5789   H         1 RES1   0.0000
    76 H14       7.6196   -1.3891    1.8589   H         1 RES1   0.0000
    77 H15       7.5750   -2.7272    3.0011   H         1 RES1   0.0000
    78 H16       3.0534   -1.6555    4.9671   H         1 RES1   0.0000
    79 H17       2.8371   -2.2675    3.3287   H         1 RES1   0.0000
    80 H18       3.0616    0.5234    5.2815   H         1 RES1   0.0000
    81 H19       2.6886    1.6275    3.9493   H         1 RES1   0.0000
    82 H20       4.2984    2.5639    5.2029   H         1 RES1   0.0000
    83 H21       4.5805    2.8412    2.8319   H         1 RES1   0.0000
    84 H22       5.7666    1.4942    2.7655   H         1 RES1   0.0000
    85 H23       6.1778    4.0018    4.4514   H         1 RES1   0.0000
    86 H24       6.7053    3.8776    2.7782   H         1 RES1   0.0000
    87 H25       7.3883    2.8136    3.9792   H         1 RES1   0.0000
    88 H26       6.6286    1.6075    5.5584   H         1 RES1   0.0000
    89 H27       5.9600    0.0533    5.1521   H         1 RES1   0.0000
    90 H28       4.2420    1.3275    7.1274   H         1 RES1   0.0000
    91 H29       5.9004    1.4558    7.6766   H         1 RES1   0.0000
    92 H30       4.5517   -1.1613    6.8897   H         1 RES1   0.0000
    93 H31       4.6966   -0.5401    8.5263   H         1 RES1   0.0000
    94 H32       7.0899   -1.2322    6.7543   H         1 RES1   0.0000
    95 H33       6.4480   -2.2217    8.0612   H         1 RES1   0.0000
    96 H34       7.1576   -0.6436    8.4104   H         1 RES1   0.0000
    97 H35       4.0042    1.3864    1.6105   H         1 RES1   0.0000
    98 H36       2.2872    1.7996    1.3089   H         1 RES1   0.0000
    99 H37       4.4278    1.1388   -1.5078   H         1 RES1   0.0000
   100 H38       3.4743    2.3688   -0.6710   H         1 RES1   0.0000
   101 H39       0.3340    0.1147   -3.0404   H         1 RES1   0.0000
   102 H40       1.4208   -1.2498   -3.3436   H         1 RES1   0.0000
   103 H41       1.4338    0.4718   -5.6661   H         1 RES1   0.0000
   104 H42      -0.6398    1.3870   -4.8206   H         1 RES1   0.0000
   105 H43      -1.3133   -0.2092   -4.5427   H         1 RES1   0.0000
   106 H44      -0.6544    0.9378   -7.3028   H         1 RES1   0.0000
   107 H45      -2.2284    0.9861   -6.5377   H         1 RES1   0.0000
   108 H46      -1.5242   -0.5559   -6.9923   H         1 RES1   0.0000
   109 H47      -0.1393   -2.0459   -5.7620   H         1 RES1   0.0000
   110 H48       1.4771   -2.2524   -5.1206   H         1 RES1   0.0000
   111 H49       0.9891   -0.9203   -7.8004   H         1 RES1   0.0000
   112 H50       1.2497   -2.6419   -7.5803   H         1 RES1   0.0000
   113 H51       3.4278   -2.1609   -6.4588   H         1 RES1   0.0000
   114 H52       3.2085   -0.4415   -6.8172   H         1 RES1   0.0000
   115 H53       3.3719   -2.6483   -8.9119   H         1 RES1   0.0000
   116 H54       4.6727   -1.5378   -8.4905   H         1 RES1   0.0000
   117 H55       3.1995   -0.9253   -9.2399   H         1 RES1   0.0000
   118 H56       3.4379   -0.4388   -4.5840   H         1 RES1   0.0000
   119 H57       4.3825    0.0597   -3.1932   H         1 RES1   0.0000
   120 H58       3.3760    1.8101   -5.4637   H         1 RES1   0.0000
   121 H59       5.2823    0.1386   -5.8256   H         1 RES1   0.0000
   122 H60       6.2210    1.0551   -4.6573   H         1 RES1   0.0000
   123 H61       5.1003    2.1057   -7.2949   H         1 RES1   0.0000
   124 H62       6.7847    1.7500   -6.9404   H         1 RES1   0.0000
   125 H63       5.9895    3.0860   -6.1189   H         1 RES1   0.0000
   126 H64       5.4401    2.9957   -3.7280   H         1 RES1   0.0000
   127 H65       3.8924    2.7984   -2.9057   H         1 RES1   0.0000
   128 H66       2.7137    4.1205   -4.3906   H         1 RES1   0.0000
   129 H67       3.9380    4.0355   -5.6477   H         1 RES1   0.0000
   130 H68       5.4233    5.5023   -4.4253   H         1 RES1   0.0000
   131 H69       4.3954    5.4535   -2.9923   H         1 RES1   0.0000
   132 H70       3.5091    6.5297   -5.7189   H         1 RES1   0.0000
   133 H71       4.0357    7.5422   -4.3706   H         1 RES1   0.0000
   134 H72       2.5659    6.5814   -4.2260   H         1 RES1   0.0000
   135 H73       4.1056   -1.2367    0.7324   H         1 RES1   0.0000
   136 H74       4.4430   -0.8903   -0.9580   H         1 RES1   0.0000
   137 H75       4.3283   -4.4930    0.0191   H         1 RES1   0.0000
   138 H76       4.9518   -2.9500   -0.5369   H         1 RES1   0.0000
   139 H77       3.8442   -4.0582   -2.8519   H         1 RES1   0.0000
   140 H78       6.3041   -4.5247   -3.4166   H         1 RES1   0.0000
   141 H79       6.6871   -3.9104   -1.8159   H         1 RES1   0.0000
   142 H80       5.1604   -2.4081   -4.0008   H         1 RES1   0.0000
   143 H81       6.8580   -2.1659   -3.5910   H         1 RES1   0.0000
   144 H82       5.6108   -1.7267   -2.4323   H         1 RES1   0.0000
   145 H83       3.8423   -6.2667   -1.3458   H         1 RES1   0.0000
   146 H84       5.5594   -6.2566   -1.6985   H         1 RES1   0.0000
   147 H85       4.5675   -7.6321   -3.3504   H         1 RES1   0.0000
   148 H86       4.9880   -6.1340   -4.1639   H         1 RES1   0.0000
   149 H87       2.8552   -6.7416   -4.9642   H         1 RES1   0.0000
   150 H88       2.5328   -5.4172   -3.8561   H         1 RES1   0.0000
   151 H89       2.2201   -8.3999   -3.2397   H         1 RES1   0.0000
   152 H90       0.9052   -7.2680   -3.5570   H         1 RES1   0.0000
   153 H91       1.8747   -7.1098   -2.0892   H         1 RES1   0.0000
   154 H92       2.0056   -4.7920   -1.7533   H         1 RES1   0.0000
   155 H93       0.9041   -3.5768   -1.1157   H         1 RES1   0.0000
   156 H94       2.1822   -5.9373    0.2714   H         1 RES1   0.0000
   157 H95       1.4046   -3.3765    1.7148   H         1 RES1   0.0000
   158 H96       3.0134   -4.0799    1.5887   H         1 RES1   0.0000
   159 H97       0.6821   -5.3592    3.0650   H         1 RES1   0.0000
   160 H98       2.1283   -4.6354    3.7620   H         1 RES1   0.0000
   161 H99       2.2659   -6.1028    2.8055   H         1 RES1   0.0000
   162 H100     -0.3306   -5.3833   -0.6595   H         1 RES1   0.0000
   163 H101     -0.4877   -4.8464    1.0101   H         1 RES1   0.0000
   164 H102      0.3416   -7.1301    1.7376   H         1 RES1   0.0000
   165 H103      0.3642   -7.6115    0.0507   H         1 RES1   0.0000
   166 H104     -2.0141   -7.3694   -0.1544   H         1 RES1   0.0000
   167 H105     -2.1270   -6.4618    1.3526   H         1 RES1   0.0000
   168 H106     -1.3108   -9.3953    1.1676   H         1 RES1   0.0000
   169 H107     -2.9124   -8.8154    1.6201   H         1 RES1   0.0000
   170 H108     -1.5289   -8.4695    2.6495   H         1 RES1   0.0000
   171 C55      -7.3351   -2.9132    3.8279   C.3       1 RES1   0.0000
   172 C56      -7.3887   -4.0747    2.8422   C.3       1 RES1   0.0000
   173 C57      -6.4208   -3.9279    1.6657   C.3       1 RES1   0.0000
   174 C58      -6.7997   -2.8068    0.6903   C.3       1 RES1   0.0000
   175 C59      -5.9134   -2.7547   -0.5686   C.3       1 RES1   0.0000
   176 C60      -6.4106   -1.7272   -1.5904   C.3       1 RES1   0.0000
   177 C61      -7.6730   -2.1761   -2.3131   C.3       1 RES1   0.0000
   178 C62      -4.4790   -2.4532   -0.1136   C.3       1 RES1   0.0000
   179 N5       -3.4118   -2.2973   -1.0994   N.am      1 RES1   0.0000
   180 C63      -2.6941   -3.5086   -1.5051   C.3       1 RES1   0.0000
   181 C64      -2.9288   -4.0085   -2.9512   C.3       1 RES1   0.0000
   182 C65      -2.9092   -2.8643   -3.9727   C.3       1 RES1   0.0000
   183 C66      -2.7195   -3.3699   -5.3998   C.3       1 RES1   0.0000
   184 C67      -4.1829   -4.8870   -3.0519   C.3       1 RES1   0.0000
   185 C68      -4.0078   -6.2794   -2.4196   C.3       1 RES1   0.0000
   186 C69      -4.8873   -6.5359   -1.1940   C.3       1 RES1   0.0000
   187 C70      -6.3628   -6.6811   -1.5456   C.3       1 RES1   0.0000
   188 C71      -2.7488   -1.1455   -1.2454   C.2       1 RES1   0.0000
   189 O4       -1.5371   -1.1224   -1.5602   O.2       1 RES1   0.0000
   190 C72      -3.4517    0.2077   -1.0975   C.3       1 RES1   0.0000
   191 N6       -2.6877    1.0488   -0.1540   N.4       1 RES1   0.0000
   192 C73      -2.5534    2.4731   -0.5253   C.3       1 RES1   0.0000
   193 C74      -1.4806    2.6083   -1.5980   C.2       1 RES1   0.0000
   194 O5       -1.2540    1.5766   -2.2592   O.2       1 RES1   0.0000
   195 N7       -0.8714    3.7720   -1.8259   N.am      1 RES1   0.0000
   196 C75      -0.8126    4.8291   -0.8240   C.3       1 RES1   0.0000
   197 C76       0.4912    5.6560   -0.7576   C.3       1 RES1   0.0000
   198 C77       1.7408    4.7492   -0.8479   C.3       1 RES1   0.0000
   199 C78       2.9241    5.0805    0.0638   C.3       1 RES1   0.0000
   200 C79       0.4078    6.4512    0.5587   C.3       1 RES1   0.0000
   201 C80       1.1480    7.7943    0.5402   C.3       1 RES1   0.0000
   202 C81       0.2479    8.9499    0.1120   C.3       1 RES1   0.0000
   203 C82       0.9878   10.2766    0.2061   C.3       1 RES1   0.0000
   204 C83      -0.3043    3.9426   -3.1583   C.3       1 RES1   0.0000
   205 C84      -1.1419    4.8295   -4.1056   C.3       1 RES1   0.0000
   206 C85      -2.6339    4.7982   -3.7441   C.3       1 RES1   0.0000
   207 C86      -3.5054    5.6668   -4.6488   C.3       1 RES1   0.0000
   208 C87      -0.9492    4.3587   -5.5554   C.3       1 RES1   0.0000
   209 C88       0.4905    4.0938   -5.9875   C.3       1 RES1   0.0000
   210 C89       0.5594    3.7177   -7.4674   C.3       1 RES1   0.0000
   211 C90       1.9949    3.4910   -7.9272   C.3       1 RES1   0.0000
   212 C91      -3.2672    1.0009    1.1860   C.3       1 RES1   0.0000
   213 C92      -2.1459    1.1767    2.1988   C.2       1 RES1   0.0000
   214 O6       -0.9624    1.0266    1.7977   O.2       1 RES1   0.0000
   215 N8       -2.4827    1.3888    3.4589   N.am      1 RES1   0.0000
   216 C93      -3.8067    1.8466    3.8780   C.3       1 RES1   0.0000
   217 C94      -3.9018    3.3959    3.8837   C.3       1 RES1   0.0000
   218 C95      -5.2138    3.9384    3.2882   C.3       1 RES1   0.0000
   219 C96      -5.2685    4.0750    1.7679   C.3       1 RES1   0.0000
   220 C97      -3.7717    3.9441    5.3185   C.3       1 RES1   0.0000
   221 C98      -3.1461    5.3408    5.3581   C.3       1 RES1   0.0000
   222 C99      -1.6184    5.3019    5.2668   C.3       1 RES1   0.0000
   223 C100     -0.9827    4.8269    6.5711   C.3       1 RES1   0.0000
   224 C101     -1.5134    1.1003    4.5016   C.3       1 RES1   0.0000
   225 C102     -1.8871   -0.1508    5.3334   C.3       1 RES1   0.0000
   226 C103     -2.4571   -1.2461    4.4195   C.3       1 RES1   0.0000
   227 C104     -2.9092   -2.5039    5.1526   C.3       1 RES1   0.0000
   228 C105     -0.6425   -0.5904    6.1243   C.3       1 RES1   0.0000
   229 C106     -0.9552   -1.1361    7.5187   C.3       1 RES1   0.0000
   230 C107      0.3100   -1.5792    8.2531   C.3       1 RES1   0.0000
   231 C108     -0.0301   -2.3747    9.5047   C.3       1 RES1   0.0000
   232 H109     -7.9680   -3.1324    4.6832   H         1 RES1   0.0000
   233 H110     -7.6879   -1.9889    3.3759   H         1 RES1   0.0000
   234 H111     -6.3192   -2.7626    4.1911   H         1 RES1   0.0000
   235 H112     -8.4056   -4.1884    2.4675   H         1 RES1   0.0000
   236 H113     -7.1322   -4.9924    3.3747   H         1 RES1   0.0000
   237 H114     -6.4039   -4.8726    1.1192   H         1 RES1   0.0000
   238 H115     -5.4210   -3.7551    2.0755   H         1 RES1   0.0000
   239 H116     -6.7501   -1.8429    1.2038   H         1 RES1   0.0000
   240 H117     -7.8363   -2.9589    0.3856   H         1 RES1   0.0000
   241 H118     -5.9431   -3.7407   -1.0347   H         1 RES1   0.0000
   242 H119     -5.6193   -1.5716   -2.3288   H         1 RES1   0.0000
   243 H120     -6.6063   -0.7752   -1.0914   H         1 RES1   0.0000
   244 H121     -7.5287   -3.1534   -2.7626   H         1 RES1   0.0000
   245 H122     -7.9235   -1.4781   -3.1054   H         1 RES1   0.0000
   246 H123     -8.5166   -2.2314   -1.6344   H         1 RES1   0.0000
   247 H124     -4.1618   -3.2803    0.5257   H         1 RES1   0.0000
   248 H125     -4.5121   -1.5563    0.5055   H         1 RES1   0.0000
   249 H126     -2.9772   -4.3118   -0.8278   H         1 RES1   0.0000
   250 H127     -1.6268   -3.2867   -1.3920   H         1 RES1   0.0000
   251 H128     -2.0626   -4.6433   -3.1785   H         1 RES1   0.0000
   252 H129     -2.0796   -2.1974   -3.7193   H         1 RES1   0.0000
   253 H130     -3.8382   -2.2927   -3.9148   H         1 RES1   0.0000
   254 H131     -1.8115   -3.9599   -5.4852   H         1 RES1   0.0000
   255 H132     -2.6531   -2.5339   -6.0872   H         1 RES1   0.0000
   256 H133     -3.5538   -3.9863   -5.7146   H         1 RES1   0.0000
   257 H134     -4.4421   -5.0049   -4.1010   H         1 RES1   0.0000
   258 H135     -5.0107   -4.3625   -2.5857   H         1 RES1   0.0000
   259 H136     -2.9604   -6.4167   -2.1386   H         1 RES1   0.0000
   260 H137     -4.2355   -7.0471   -3.1590   H         1 RES1   0.0000
   261 H138     -4.7587   -5.7305   -0.4661   H         1 RES1   0.0000
   262 H139     -4.5529   -7.4570   -0.7146   H         1 RES1   0.0000
   263 H140     -6.7421   -5.7998   -2.0576   H         1 RES1   0.0000
   264 H141     -6.9536   -6.8377   -0.6460   H         1 RES1   0.0000
   265 H142     -6.5119   -7.5353   -2.1998   H         1 RES1   0.0000
   266 H143     -4.5065    0.1064   -0.8324   H         1 RES1   0.0000
   267 H144     -3.3897    0.6542   -2.0952   H         1 RES1   0.0000
   268 H145     -2.3037    3.0281    0.3794   H         1 RES1   0.0000
   269 H146     -3.4893    2.8865   -0.9288   H         1 RES1   0.0000
   270 H147     -0.9121    4.3579    0.1588   H         1 RES1   0.0000
   271 H148     -1.6467    5.5296   -0.9512   H         1 RES1   0.0000
   272 H149      0.4977    6.3647   -1.5883   H         1 RES1   0.0000
   273 H150      1.4307    3.7168   -0.6526   H         1 RES1   0.0000
   274 H151      2.1275    4.7813   -1.8648   H         1 RES1   0.0000
   275 H152      2.7077    4.8935    1.1125   H         1 RES1   0.0000
   276 H153      3.2239    6.1183   -0.0366   H         1 RES1   0.0000
   277 H154      3.7790    4.4633   -0.2170   H         1 RES1   0.0000
   278 H155      0.7862    5.8214    1.3617   H         1 RES1   0.0000
   279 H156     -0.6409    6.6578    0.7908   H         1 RES1   0.0000
   280 H157      2.0037    7.7574   -0.1346   H         1 RES1   0.0000
   281 H158      1.5346    8.0030    1.5400   H         1 RES1   0.0000
   282 H159     -0.6253    8.9803    0.7648   H         1 RES1   0.0000
   283 H160     -0.0988    8.7910   -0.9106   H         1 RES1   0.0000
   284 H161      1.2994   10.4590    1.2325   H         1 RES1   0.0000
   285 H162      0.3487   11.0967   -0.1086   H         1 RES1   0.0000
   286 H163      1.8756   10.2724   -0.4225   H         1 RES1   0.0000
   287 H164     -0.2519    2.9362   -3.5725   H         1 RES1   0.0000
   288 H165      0.6998    4.3407   -3.0933   H         1 RES1   0.0000
   289 H166     -0.7951    5.8625   -4.0181   H         1 RES1   0.0000
   290 H167     -2.7620    5.1651   -2.7233   H         1 RES1   0.0000
   291 H168     -2.9866    3.7626   -3.7837   H         1 RES1   0.0000
   292 H169     -3.0843    6.6638   -4.7503   H         1 RES1   0.0000
   293 H170     -4.4982    5.7702   -4.2153   H         1 RES1   0.0000
   294 H171     -3.6114    5.2325   -5.6382   H         1 RES1   0.0000
   295 H172     -1.3542    5.1224   -6.2195   H         1 RES1   0.0000
   296 H173     -1.5354    3.4485   -5.6949   H         1 RES1   0.0000
   297 H174      0.9306    3.2800   -5.4074   H         1 RES1   0.0000
   298 H175      1.0935    4.9878   -5.8254   H         1 RES1   0.0000
   299 H176      0.1101    4.5131   -8.0634   H         1 RES1   0.0000
   300 H177     -0.0213    2.8105   -7.6432   H         1 RES1   0.0000
   301 H178      2.5851    4.3941   -7.7850   H         1 RES1   0.0000
   302 H179      2.0241    3.2255   -8.9817   H         1 RES1   0.0000
   303 H180      2.4624    2.6815   -7.3651   H         1 RES1   0.0000
   304 H181     -3.6809    0.0064    1.3765   H         1 RES1   0.0000
   305 H182     -4.0673    1.7415    1.2872   H         1 RES1   0.0000
   306 H183     -3.9751    1.4803    4.8910   H         1 RES1   0.0000
   307 H184     -4.5867    1.4074    3.2581   H         1 RES1   0.0000
   308 H185     -3.0660    3.7842    3.2895   H         1 RES1   0.0000
   309 H186     -5.3531    4.9384    3.6989   H         1 RES1   0.0000
   310 H187     -6.0503    3.3309    3.6372   H         1 RES1   0.0000
   311 H188     -4.3377    4.4873    1.3791   H         1 RES1   0.0000
   312 H189     -6.0676    4.7611    1.4989   H         1 RES1   0.0000
   313 H190     -5.4830    3.1303    1.2696   H         1 RES1   0.0000
   314 H191     -3.1681    3.2780    5.9328   H         1 RES1   0.0000
   315 H192     -4.7615    3.9762    5.7741   H         1 RES1   0.0000
   316 H193     -3.4177    5.8345    6.2921   H         1 RES1   0.0000
   317 H194     -3.5502    5.9439    4.5424   H         1 RES1   0.0000
   318 H195     -1.2537    6.3065    5.0454   H         1 RES1   0.0000
   319 H196     -1.3065    4.6493    4.4423   H         1 RES1   0.0000
   320 H197     -1.2755    5.4797    7.3902   H         1 RES1   0.0000
   321 H198      0.1032    4.8375    6.4993   H         1 RES1   0.0000
   322 H199     -1.2972    3.8146    6.8212   H         1 RES1   0.0000
   323 H200     -1.4061    1.9644    5.1572   H         1 RES1   0.0000
   324 H201     -0.5582    0.9229    4.0034   H         1 RES1   0.0000
   325 H202     -2.6629    0.1092    6.0572   H         1 RES1   0.0000
   326 H203     -1.7167   -1.5009    3.6549   H         1 RES1   0.0000
   327 H204     -3.3344   -0.8406    3.9087   H         1 RES1   0.0000
   328 H205     -2.0696   -3.0496    5.5702   H         1 RES1   0.0000
   329 H206     -3.4334   -3.1662    4.4670   H         1 RES1   0.0000
   330 H207     -3.5971   -2.2434    5.9523   H         1 RES1   0.0000
   331 H208      0.0234    0.2686    6.2445   H         1 RES1   0.0000
   332 H209     -0.0985   -1.3464    5.5534   H         1 RES1   0.0000
   333 H210     -1.6279   -1.9881    7.4488   H         1 RES1   0.0000
   334 H211     -1.4613   -0.3680    8.1060   H         1 RES1   0.0000
   335 H212      0.9040   -0.7062    8.5241   H         1 RES1   0.0000
   336 H213      0.9159   -2.1951    7.5856   H         1 RES1   0.0000
   337 H214     -0.6611   -1.7896   10.1661   H         1 RES1   0.0000
   338 H215      0.8706   -2.6521   10.0421   H         1 RES1   0.0000
   339 H216     -0.5638   -3.2834    9.2409   H         1 RES1   0.0000
   340 O7       -0.8115   -1.7820    1.0882   O.3       1 RES1   0.0000
   341 H217     -0.0687   -1.7298    1.7272   H         1 RES1   0.0000
   342 H218     -0.7714   -2.6865    0.7313   H         1 RES1   0.0000
@<TRIPOS>BOND
     1     1    20    1
     2     1    22    1
     3     1    25    1
     4     1    45    1
     5     1   189    1
     6     1   191    1
     7     1   194    1
     8     1   214    1
     9     1   340    1
    10     2     3    1
    11     2    63    1
    12     2    64    1
    13     2    65    1
    14     3     4    1
    15     3    66    1
    16     3    67    1
    17     4     5    1
    18     4    68    1
    19     4    69    1
    20     5     6    1
    21     5    70    1
    22     5    71    1
    23     6     7    1
    24     6     9    1
    25     6    72    1
    26     7     8    1
    27     7    73    1
    28     7    74    1
    29     8    75    1
    30     8    76    1
    31     8    77    1
    32     9    10    1
    33     9    78    1
    34     9    79    1
    35    10    11    1
    36    10    19    1
    37    11    12    1
    38    11    80    1
    39    11    81    1
    40    12    13    1
    41    12    15    1
    42    12    82    1
    43    13    14    1
    44    13    83    1
    45    13    84    1
    46    14    85    1
    47    14    86    1
    48    14    87    1
    49    15    16    1
    50    15    88    1
    51    15    89    1
    52    16    17    1
    53    16    90    1
    54    16    91    1
    55    17    18    1
    56    17    92    1
    57    17    93    1
    58    18    94    1
    59    18    95    1
    60    18    96    1
    61    19    20    2
    62    19    21    1
    63    21    22    1
    64    21    97    1
    65    21    98    1
    66    22    23    1
    67    22    43    1
    68    23    24    1
    69    23    99    1
    70    23   100    1
    71    24    25    2
    72    24    26    1
    73    26    27    1
    74    26    35    1
    75    27    28    1
    76    27   101    1
    77    27   102    1
    78    28    29    1
    79    28    31    1
    80    28   103    1
    81    29    30    1
    82    29   104    1
    83    29   105    1
    84    30   106    1
    85    30   107    1
    86    30   108    1
    87    31    32    1
    88    31   109    1
    89    31   110    1
    90    32    33    1
    91    32   111    1
    92    32   112    1
    93    33    34    1
    94    33   113    1
    95    33   114    1
    96    34   115    1
    97    34   116    1
    98    34   117    1
    99    35    36    1
   100    35   118    1
   101    35   119    1
   102    36    37    1
   103    36    39    1
   104    36   120    1
   105    37    38    1
   106    37   121    1
   107    37   122    1
   108    38   123    1
   109    38   124    1
   110    38   125    1
   111    39    40    1
   112    39   126    1
   113    39   127    1
   114    40    41    1
   115    40   128    1
   116    40   129    1
   117    41    42    1
   118    41   130    1
   119    41   131    1
   120    42   132    1
   121    42   133    1
   122    42   134    1
   123    43    44    1
   124    43   135    1
   125    43   136    1
   126    44    45    2
   127    44    46    1
   128    46    47    1
   129    46    55    1
   130    47    48    1
   131    47   137    1
   132    47   138    1
   133    48    49    1
   134    48    51    1
   135    48   139    1
   136    49    50    1
   137    49   140    1
   138    49   141    1
   139    50   142    1
   140    50   143    1
   141    50   144    1
   142    51    52    1
   143    51   145    1
   144    51   146    1
   145    52    53    1
   146    52   147    1
   147    52   148    1
   148    53    54    1
   149    53   149    1
   150    53   150    1
   151    54   151    1
   152    54   152    1
   153    54   153    1
   154    55    56    1
   155    55   154    1
   156    55   155    1
   157    56    57    1
   158    56    59    1
   159    56   156    1
   160    57    58    1
   161    57   157    1
   162    57   158    1
   163    58   159    1
   164    58   160    1
   165    58   161    1
   166    59    60    1
   167    59   162    1
   168    59   163    1
   169    60    61    1
   170    60   164    1
   171    60   165    1
   172    61    62    1
   173    61   166    1
   174    61   167    1
   175    62   168    1
   176    62   169    1
   177    62   170    1
   178   171   172    1
   179   171   232    1
   180   171   233    1
   181   171   234    1
   182   172   173    1
   183   172   235    1
   184   172   236    1
   185   173   174    1
   186   173   237    1
   187   173   238    1
   188   174   175    1
   189   174   239    1
   190   174   240    1
   191   175   176    1
   192   175   178    1
   193   175   241    1
   194   176   177    1
   195   176   242    1
   196   176   243    1
   197   177   244    1
   198   177   245    1
   199   177   246    1
   200   178   179    1
   201   178   247    1
   202   178   248    1
   203   179   180    1
   204   179   188    1
   205   180   181    1
   206   180   249    1
   207   180   250    1
   208   181   182    1
   209   181   184    1
   210   181   251    1
   211   182   183    1
   212   182   252    1
   213   182   253    1
   214   183   254    1
   215   183   255    1
   216   183   256    1
   217   184   185    1
   218   184   257    1
   219   184   258    1
   220   185   186    1
   221   185   259    1
   222   185   260    1
   223   186   187    1
   224   186   261    1
   225   186   262    1
   226   187   263    1
   227   187   264    1
   228   187   265    1
   229   188   189    2
   230   188   190    1
   231   190   191    1
   232   190   266    1
   233   190   267    1
   234   191   192    1
   235   191   212    1
   236   192   193    1
   237   192   268    1
   238   192   269    1
   239   193   194    2
   240   193   195    1
   241   195   196    1
   242   195   204    1
   243   196   197    1
   244   196   270    1
   245   196   271    1
   246   197   198    1
   247   197   200    1
   248   197   272    1
   249   198   199    1
   250   198   273    1
   251   198   274    1
   252   199   275    1
   253   199   276    1
   254   199   277    1
   255   200   201    1
   256   200   278    1
   257   200   279    1
   258   201   202    1
   259   201   280    1
   260   201   281    1
   261   202   203    1
   262   202   282    1
   263   202   283    1
   264   203   284    1
   265   203   285    1
   266   203   286    1
   267   204   205    1
   268   204   287    1
   269   204   288    1
   270   205   206    1
   271   205   208    1
   272   205   289    1
   273   206   207    1
   274   206   290    1
   275   206   291    1
   276   207   292    1
   277   207   293    1
   278   207   294    1
   279   208   209    1
   280   208   295    1
   281   208   296    1
   282   209   210    1
   283   209   297    1
   284   209   298    1
   285   210   211    1
   286   210   299    1
   287   210   300    1
   288   211   301    1
   289   211   302    1
   290   211   303    1
   291   212   213    1
   292   212   304    1
   293   212   305    1
   294   213   214    2
   295   213   215    1
   296   215   216    1
   297   215   224    1
   298   216   217    1
   299   216   306    1
   300   216   307    1
   301   217   218    1
   302   217   220    1
   303   217   308    1
   304   218   219    1
   305   218   309    1
   306   218   310    1
   307   219   311    1
   308   219   312    1
   309   219   313    1
   310   220   221    1
   311   220   314    1
   312   220   315    1
   313   221   222    1
   314   221   316    1
   315   221   317    1
   316   222   223    1
   317   222   318    1
   318   222   319    1
   319   223   320    1
   320   223   321    1
   321   223   322    1
   322   224   225    1
   323   224   323    1
   324   224   324    1
   325   225   226    1
   326   225   228    1
   327   225   325    1
   328   226   227    1
   329   226   326    1
   330   226   327    1
   331   227   328    1
   332   227   329    1
   333   227   330    1
   334   228   229    1
   335   228   331    1
   336   228   332    1
   337   229   230    1
   338   229   333    1
   339   229   334    1
   340   230   231    1
   341   230   335    1
   342   230   336    1
   343   231   337    1
   344   231   338    1
   345   231   339    1
   346   340   341    1
   347   340   342    1
@<TRIPOS>SUBSTRUCTURE
     1 RES1      342 GROUP             0 ****  ****    0  
