@<TRIPOS>MOLECULE
am_c3_9H2O_c0_0_nunpairedes_0_charge_3 Charge: 3 Unpaired_Electrons: 6 XTB_Unpaired_Electrons: 0 XTB_Charge: 3
   214   219     1     0     0
SMALL
NoCharges
****
Generated from Architector

@<TRIPOS>ATOM
     1 Eu1      -0.0739    0.0113   -0.1491   Eu        1 RES1   0.0000
     2 C1        1.5918    2.3906   -7.2979   C.3       1 RES1   0.0000
     3 C2        0.9091    3.1753   -6.1789   C.3       1 RES1   0.0000
     4 C3       -0.4911    3.6192   -6.5977   C.3       1 RES1   0.0000
     5 C4       -1.1401    4.6711   -5.6967   C.3       1 RES1   0.0000
     6 C5       -1.8294    4.1964   -4.4049   C.3       1 RES1   0.0000
     7 C6       -2.9166    3.1556   -4.6884   C.3       1 RES1   0.0000
     8 C7       -3.9109    2.9559   -3.5468   C.3       1 RES1   0.0000
     9 C8       -0.8265    3.7193   -3.3509   C.3       1 RES1   0.0000
    10 N1       -1.3467    3.7669   -1.9855   N.am      1 RES1   0.0000
    11 C9       -1.7851    5.0779   -1.5466   C.3       1 RES1   0.0000
    12 C10      -1.3080    2.6929   -1.2146   C.2       1 RES1   0.0000
    13 O1       -0.9185    1.5708   -1.5927   O.2       1 RES1   0.0000
    14 C11      -1.7885    2.8790    0.2405   C.3       1 RES1   0.0000
    15 O2       -1.5214    1.7396    1.0706   O.3       1 RES1   0.0000
    16 C12      -2.6852    1.1334    1.6269   C.3       1 RES1   0.0000
    17 C13      -3.1929    0.0167    0.7113   C.2       1 RES1   0.0000
    18 O3       -2.4941   -0.2776   -0.2729   O.2       1 RES1   0.0000
    19 N2       -4.2971   -0.6314    1.0537   N.am      1 RES1   0.0000
    20 C14      -5.1476   -0.3045    2.1783   C.3       1 RES1   0.0000
    21 C15      -4.6770   -1.8097    0.2885   C.3       1 RES1   0.0000
    22 C16      -6.0213   -1.7311   -0.4356   C.3       1 RES1   0.0000
    23 C17      -5.9962   -0.7475   -1.6086   C.3       1 RES1   0.0000
    24 C18      -5.8935    0.7204   -1.1988   C.3       1 RES1   0.0000
    25 C19      -6.4659   -3.1398   -0.8774   C.3       1 RES1   0.0000
    26 C20      -5.8413   -3.7317   -2.1441   C.3       1 RES1   0.0000
    27 C21      -4.3505   -4.0600   -2.0779   C.3       1 RES1   0.0000
    28 C22      -3.9267   -4.9445   -3.2483   C.3       1 RES1   0.0000
    29 H1        2.5788    2.0460   -6.9871   H         1 RES1   0.0000
    30 H2        1.7146    3.0202   -8.1761   H         1 RES1   0.0000
    31 H3        0.9942    1.5271   -7.5864   H         1 RES1   0.0000
    32 H4        1.5151    4.0535   -5.9486   H         1 RES1   0.0000
    33 H5        0.8703    2.5573   -5.2799   H         1 RES1   0.0000
    34 H6       -1.1402    2.7496   -6.6919   H         1 RES1   0.0000
    35 H7       -0.3994    4.0526   -7.5949   H         1 RES1   0.0000
    36 H8       -1.9046    5.1754   -6.2899   H         1 RES1   0.0000
    37 H9       -0.3920    5.4241   -5.4418   H         1 RES1   0.0000
    38 H10      -2.3213    5.0896   -4.0176   H         1 RES1   0.0000
    39 H11      -2.4674    2.1910   -4.9231   H         1 RES1   0.0000
    40 H12      -3.4797    3.4730   -5.5659   H         1 RES1   0.0000
    41 H13      -3.4484    2.4795   -2.6841   H         1 RES1   0.0000
    42 H14      -4.7255    2.3148   -3.8787   H         1 RES1   0.0000
    43 H15      -4.3439    3.9051   -3.2359   H         1 RES1   0.0000
    44 H16       0.0589    4.3577   -3.3822   H         1 RES1   0.0000
    45 H17      -0.5259    2.6938   -3.5504   H         1 RES1   0.0000
    46 H18      -2.7146    5.3658   -2.0401   H         1 RES1   0.0000
    47 H19      -1.0224    5.8116   -1.8137   H         1 RES1   0.0000
    48 H20      -1.9671    5.1238   -0.4791   H         1 RES1   0.0000
    49 H21      -2.8565    3.1194    0.2451   H         1 RES1   0.0000
    50 H22      -1.2326    3.7157    0.6773   H         1 RES1   0.0000
    51 H23      -3.4545    1.8825    1.8347   H         1 RES1   0.0000
    52 H24      -2.3654    0.6761    2.5703   H         1 RES1   0.0000
    53 H25      -4.6977    0.4324    2.8358   H         1 RES1   0.0000
    54 H26      -5.3451   -1.2115    2.7532   H         1 RES1   0.0000
    55 H27      -6.1081    0.0874    1.8358   H         1 RES1   0.0000
    56 H28      -4.6952   -2.6494    0.9869   H         1 RES1   0.0000
    57 H29      -3.8918   -1.9606   -0.4440   H         1 RES1   0.0000
    58 H30      -6.7716   -1.3896    0.2806   H         1 RES1   0.0000
    59 H31      -6.9189   -0.8692   -2.1759   H         1 RES1   0.0000
    60 H32      -5.1638   -0.9806   -2.2731   H         1 RES1   0.0000
    61 H33      -6.6363    0.9701   -0.4444   H         1 RES1   0.0000
    62 H34      -6.0718    1.3608   -2.0593   H         1 RES1   0.0000
    63 H35      -4.9054    0.9652   -0.8143   H         1 RES1   0.0000
    64 H36      -7.5413   -3.1042   -1.0543   H         1 RES1   0.0000
    65 H37      -6.3096   -3.8350   -0.0494   H         1 RES1   0.0000
    66 H38      -6.0191   -3.0721   -2.9919   H         1 RES1   0.0000
    67 H39      -6.3679   -4.6650   -2.3520   H         1 RES1   0.0000
    68 H40      -4.1328   -4.5811   -1.1402   H         1 RES1   0.0000
    69 H41      -3.7589   -3.1416   -2.1174   H         1 RES1   0.0000
    70 H42      -4.4659   -5.8881   -3.2299   H         1 RES1   0.0000
    71 H43      -2.8582   -5.1606   -3.2114   H         1 RES1   0.0000
    72 H44      -4.1457   -4.4524   -4.1931   H         1 RES1   0.0000
    73 C23      -0.4701   -0.4776   -5.4651   C.3       1 RES1   0.0000
    74 C24       0.9723   -0.4285   -4.9645   C.3       1 RES1   0.0000
    75 C25       1.6928   -1.7572   -5.1811   C.3       1 RES1   0.0000
    76 C26       3.2047   -1.7390   -4.9484   C.3       1 RES1   0.0000
    77 C27       3.6993   -1.6118   -3.5010   C.3       1 RES1   0.0000
    78 C28       5.0857   -2.2554   -3.3329   C.3       1 RES1   0.0000
    79 C29       5.1670   -3.7476   -3.6498   C.3       1 RES1   0.0000
    80 C30       3.7917   -0.1273   -3.1114   C.3       1 RES1   0.0000
    81 N3        3.9996    0.0926   -1.6818   N.am      1 RES1   0.0000
    82 C31       5.3463    0.2518   -1.1710   C.3       1 RES1   0.0000
    83 C32       2.9301    0.1867   -0.9041   C.2       1 RES1   0.0000
    84 O4        1.7719    0.1350   -1.3690   O.2       1 RES1   0.0000
    85 C33       3.1529    0.3464    0.6063   C.3       1 RES1   0.0000
    86 O5        1.9212    0.2719    1.3335   O.3       1 RES1   0.0000
    87 C34       1.7056    1.3382    2.2542   C.3       1 RES1   0.0000
    88 C35       1.3595    2.5822    1.4425   C.2       1 RES1   0.0000
    89 O6        0.9886    2.3847    0.2676   O.2       1 RES1   0.0000
    90 N4        1.5126    3.7985    1.9450   N.am      1 RES1   0.0000
    91 C36       1.5143    4.8954    0.9835   C.3       1 RES1   0.0000
    92 C37       1.8229    4.0938    3.3380   C.3       1 RES1   0.0000
    93 C38       0.7554    3.7763    4.4070   C.3       1 RES1   0.0000
    94 C39       1.4215    4.0843    5.7648   C.3       1 RES1   0.0000
    95 C40       0.6250    3.6292    6.9859   C.3       1 RES1   0.0000
    96 C41      -0.5442    4.5794    4.2293   C.3       1 RES1   0.0000
    97 C42      -1.7610    3.7024    3.9489   C.3       1 RES1   0.0000
    98 C43      -3.0662    4.4798    4.1215   C.3       1 RES1   0.0000
    99 C44      -4.3087    3.6687    3.7575   C.3       1 RES1   0.0000
   100 H45      -0.9457    0.4957   -5.3499   H         1 RES1   0.0000
   101 H46      -0.5042   -0.7461   -6.5195   H         1 RES1   0.0000
   102 H47      -1.0505   -1.2111   -4.9058   H         1 RES1   0.0000
   103 H48       1.5085    0.3408   -5.5183   H         1 RES1   0.0000
   104 H49       0.9553   -0.1390   -3.9061   H         1 RES1   0.0000
   105 H50       1.2279   -2.5382   -4.5754   H         1 RES1   0.0000
   106 H51       1.5353   -2.0331   -6.2259   H         1 RES1   0.0000
   107 H52       3.5845   -2.6694   -5.3630   H         1 RES1   0.0000
   108 H53       3.6437   -0.9313   -5.5304   H         1 RES1   0.0000
   109 H54       2.9990   -2.1071   -2.8231   H         1 RES1   0.0000
   110 H55       5.7921   -1.7344   -3.9797   H         1 RES1   0.0000
   111 H56       5.4149   -2.1244   -2.3012   H         1 RES1   0.0000
   112 H57       5.0415   -3.9502   -4.7098   H         1 RES1   0.0000
   113 H58       6.1452   -4.1289   -3.3619   H         1 RES1   0.0000
   114 H59       4.4155   -4.3116   -3.1055   H         1 RES1   0.0000
   115 H60       4.6136    0.3265   -3.6581   H         1 RES1   0.0000
   116 H61       2.8769    0.3945   -3.3788   H         1 RES1   0.0000
   117 H62       6.0518    0.1800   -1.9958   H         1 RES1   0.0000
   118 H63       5.4735    1.2324   -0.7039   H         1 RES1   0.0000
   119 H64       5.5883   -0.5200   -0.4350   H         1 RES1   0.0000
   120 H65       3.8128   -0.4581    0.9615   H         1 RES1   0.0000
   121 H66       3.6492    1.3038    0.7850   H         1 RES1   0.0000
   122 H67       0.8602    1.0155    2.8682   H         1 RES1   0.0000
   123 H68       2.5661    1.4899    2.9133   H         1 RES1   0.0000
   124 H69       0.5792    4.9401    0.4248   H         1 RES1   0.0000
   125 H70       1.6993    5.8372    1.4943   H         1 RES1   0.0000
   126 H71       2.3068    4.7323    0.2482   H         1 RES1   0.0000
   127 H72       2.7447    3.5703    3.6054   H         1 RES1   0.0000
   128 H73       2.0234    5.1649    3.3975   H         1 RES1   0.0000
   129 H74       0.5032    2.7122    4.3964   H         1 RES1   0.0000
   130 H75       2.3992    3.5968    5.8075   H         1 RES1   0.0000
   131 H76       1.5926    5.1590    5.8367   H         1 RES1   0.0000
   132 H77       0.5085    2.5482    6.9899   H         1 RES1   0.0000
   133 H78       1.1578    3.9117    7.8932   H         1 RES1   0.0000
   134 H79      -0.3629    4.0829    7.0219   H         1 RES1   0.0000
   135 H80      -0.7441    5.1410    5.1388   H         1 RES1   0.0000
   136 H81      -0.4346    5.3086    3.4285   H         1 RES1   0.0000
   137 H82      -1.6888    3.3032    2.9377   H         1 RES1   0.0000
   138 H83      -1.7659    2.8583    4.6405   H         1 RES1   0.0000
   139 H84      -3.1489    4.7832    5.1647   H         1 RES1   0.0000
   140 H85      -3.0483    5.3903    3.5193   H         1 RES1   0.0000
   141 H86      -4.3217    2.7165    4.2894   H         1 RES1   0.0000
   142 H87      -5.2093    4.2157    4.0310   H         1 RES1   0.0000
   143 H88      -4.3560    3.4787    2.6822   H         1 RES1   0.0000
   144 C45       3.1972   -1.0618    4.1202   C.3       1 RES1   0.0000
   145 C46       4.0768   -2.3009    4.2449   C.3       1 RES1   0.0000
   146 C47       4.2927   -3.0207    2.9124   C.3       1 RES1   0.0000
   147 C48       3.0693   -3.7851    2.4033   C.3       1 RES1   0.0000
   148 C49       3.4235   -4.7316    1.2465   C.3       1 RES1   0.0000
   149 C50       2.4590   -5.9185    1.1452   C.3       1 RES1   0.0000
   150 C51       2.5838   -6.8980    2.3101   C.3       1 RES1   0.0000
   151 C52       3.5402   -3.9769   -0.0961   C.3       1 RES1   0.0000
   152 N5        2.3354   -3.9287   -0.9236   N.am      1 RES1   0.0000
   153 C53       2.1270   -4.9464   -1.9347   C.3       1 RES1   0.0000
   154 C54       1.5129   -2.8975   -0.8118   C.2       1 RES1   0.0000
   155 O7        1.5915   -2.0489    0.0908   O.2       1 RES1   0.0000
   156 C55       0.3944   -2.6618   -1.8348   C.3       1 RES1   0.0000
   157 O8       -0.7236   -2.1596   -1.1138   O.3       1 RES1   0.0000
   158 C56      -1.2514   -3.1594   -0.2438   C.3       1 RES1   0.0000
   159 C57      -1.3575   -2.6530    1.1994   C.2       1 RES1   0.0000
   160 O9       -0.9304   -1.5191    1.5056   O.2       1 RES1   0.0000
   161 N6       -1.9502   -3.4618    2.0637   N.am      1 RES1   0.0000
   162 C58      -2.5019   -4.7619    1.7323   C.3       1 RES1   0.0000
   163 C59      -2.2527   -3.0006    3.4132   C.3       1 RES1   0.0000
   164 C60      -1.1284   -3.1293    4.4529   C.3       1 RES1   0.0000
   165 C61      -0.5695   -4.5542    4.4648   C.3       1 RES1   0.0000
   166 C62       0.5809   -4.7836    5.4394   C.3       1 RES1   0.0000
   167 C63      -1.7653   -2.7058    5.7862   C.3       1 RES1   0.0000
   168 C64      -0.8413   -2.2009    6.8973   C.3       1 RES1   0.0000
   169 C65       0.1589   -1.1265    6.4813   C.3       1 RES1   0.0000
   170 C66      -0.4908    0.1079    5.8662   C.3       1 RES1   0.0000
   171 H89       3.0521   -0.5971    5.0940   H         1 RES1   0.0000
   172 H90       2.2231   -1.3033    3.6949   H         1 RES1   0.0000
   173 H91       3.6876   -0.3375    3.4710   H         1 RES1   0.0000
   174 H92       3.6451   -2.9949    4.9672   H         1 RES1   0.0000
   175 H93       5.0458   -1.9877    4.6402   H         1 RES1   0.0000
   176 H94       5.1036   -3.7336    3.0576   H         1 RES1   0.0000
   177 H95       4.6258   -2.2915    2.1691   H         1 RES1   0.0000
   178 H96       2.2839   -3.0990    2.0863   H         1 RES1   0.0000
   179 H97       2.6871   -4.3696    3.2373   H         1 RES1   0.0000
   180 H98       4.4135   -5.1458    1.4567   H         1 RES1   0.0000
   181 H99       2.6780   -6.4771    0.2358   H         1 RES1   0.0000
   182 H100      1.4273   -5.5603    1.0803   H         1 RES1   0.0000
   183 H101      3.6205   -7.1970    2.4446   H         1 RES1   0.0000
   184 H102      2.0008   -7.7959    2.1110   H         1 RES1   0.0000
   185 H103      2.2319   -6.4694    3.2449   H         1 RES1   0.0000
   186 H104      4.3339   -4.4060   -0.7088   H         1 RES1   0.0000
   187 H105      3.7910   -2.9392    0.1157   H         1 RES1   0.0000
   188 H106      2.9045   -5.7010   -1.8524   H         1 RES1   0.0000
   189 H107      2.1485   -4.5101   -2.9355   H         1 RES1   0.0000
   190 H108      1.1681   -5.4472   -1.7917   H         1 RES1   0.0000
   191 H109      0.1177   -3.5316   -2.4347   H         1 RES1   0.0000
   192 H110      0.7055   -1.8438   -2.4973   H         1 RES1   0.0000
   193 H111     -0.6150   -4.0513   -0.2591   H         1 RES1   0.0000
   194 H112     -2.2459   -3.4342   -0.6129   H         1 RES1   0.0000
   195 H113     -2.1825   -5.1172    0.7579   H         1 RES1   0.0000
   196 H114     -3.5948   -4.7017    1.7519   H         1 RES1   0.0000
   197 H115     -2.1743   -5.4865    2.4787   H         1 RES1   0.0000
   198 H116     -3.1104   -3.5781    3.7563   H         1 RES1   0.0000
   199 H117     -2.5441   -1.9528    3.3279   H         1 RES1   0.0000
   200 H118     -0.3264   -2.4429    4.1805   H         1 RES1   0.0000
   201 H119     -0.2043   -4.7910    3.4630   H         1 RES1   0.0000
   202 H120     -1.3709   -5.2531    4.7077   H         1 RES1   0.0000
   203 H121      1.3423   -4.0136    5.3413   H         1 RES1   0.0000
   204 H122      1.0436   -5.7499    5.2480   H         1 RES1   0.0000
   205 H123      0.2361   -4.7965    6.4667   H         1 RES1   0.0000
   206 H124     -2.3252   -3.5538    6.1783   H         1 RES1   0.0000
   207 H125     -2.4887   -1.9129    5.5878   H         1 RES1   0.0000
   208 H126     -0.2848   -3.0242    7.3361   H         1 RES1   0.0000
   209 H127     -1.4739   -1.7920    7.6877   H         1 RES1   0.0000
   210 H128      0.8841   -1.5432    5.7816   H         1 RES1   0.0000
   211 H129      0.7087   -0.8166    7.3715   H         1 RES1   0.0000
   212 H130     -1.0154   -0.1354    4.9421   H         1 RES1   0.0000
   213 H131      0.2729    0.8502    5.6389   H         1 RES1   0.0000
   214 H132     -1.2009    0.5501    6.5621   H         1 RES1   0.0000
@<TRIPOS>BOND
     1     1    13    1
     2     1    15    1
     3     1    18    1
     4     1    84    1
     5     1    86    1
     6     1    89    1
     7     1   155    1
     8     1   157    1
     9     1   160    1
    10     2     3    1
    11     2    29    1
    12     2    30    1
    13     2    31    1
    14     3     4    1
    15     3    32    1
    16     3    33    1
    17     4     5    1
    18     4    34    1
    19     4    35    1
    20     5     6    1
    21     5    36    1
    22     5    37    1
    23     6     7    1
    24     6     9    1
    25     6    38    1
    26     7     8    1
    27     7    39    1
    28     7    40    1
    29     8    41    1
    30     8    42    1
    31     8    43    1
    32     9    10    1
    33     9    44    1
    34     9    45    1
    35    10    11    1
    36    10    12    1
    37    11    46    1
    38    11    47    1
    39    11    48    1
    40    12    13    2
    41    12    14    1
    42    14    15    1
    43    14    49    1
    44    14    50    1
    45    15    16    1
    46    16    17    1
    47    16    51    1
    48    16    52    1
    49    17    18    2
    50    17    19    1
    51    19    20    1
    52    19    21    1
    53    20    53    1
    54    20    54    1
    55    20    55    1
    56    21    22    1
    57    21    56    1
    58    21    57    1
    59    22    23    1
    60    22    25    1
    61    22    58    1
    62    23    24    1
    63    23    59    1
    64    23    60    1
    65    24    61    1
    66    24    62    1
    67    24    63    1
    68    25    26    1
    69    25    64    1
    70    25    65    1
    71    26    27    1
    72    26    66    1
    73    26    67    1
    74    27    28    1
    75    27    68    1
    76    27    69    1
    77    28    70    1
    78    28    71    1
    79    28    72    1
    80    73    74    1
    81    73   100    1
    82    73   101    1
    83    73   102    1
    84    74    75    1
    85    74   103    1
    86    74   104    1
    87    75    76    1
    88    75   105    1
    89    75   106    1
    90    76    77    1
    91    76   107    1
    92    76   108    1
    93    77    78    1
    94    77    80    1
    95    77   109    1
    96    78    79    1
    97    78   110    1
    98    78   111    1
    99    79   112    1
   100    79   113    1
   101    79   114    1
   102    80    81    1
   103    80   115    1
   104    80   116    1
   105    81    82    1
   106    81    83    1
   107    82   117    1
   108    82   118    1
   109    82   119    1
   110    83    84    2
   111    83    85    1
   112    85    86    1
   113    85   120    1
   114    85   121    1
   115    86    87    1
   116    87    88    1
   117    87   122    1
   118    87   123    1
   119    88    89    2
   120    88    90    1
   121    90    91    1
   122    90    92    1
   123    91   124    1
   124    91   125    1
   125    91   126    1
   126    92    93    1
   127    92   127    1
   128    92   128    1
   129    93    94    1
   130    93    96    1
   131    93   129    1
   132    94    95    1
   133    94   130    1
   134    94   131    1
   135    95   132    1
   136    95   133    1
   137    95   134    1
   138    96    97    1
   139    96   135    1
   140    96   136    1
   141    97    98    1
   142    97   137    1
   143    97   138    1
   144    98    99    1
   145    98   139    1
   146    98   140    1
   147    99   141    1
   148    99   142    1
   149    99   143    1
   150   144   145    1
   151   144   171    1
   152   144   172    1
   153   144   173    1
   154   145   146    1
   155   145   174    1
   156   145   175    1
   157   146   147    1
   158   146   176    1
   159   146   177    1
   160   147   148    1
   161   147   178    1
   162   147   179    1
   163   148   149    1
   164   148   151    1
   165   148   180    1
   166   149   150    1
   167   149   181    1
   168   149   182    1
   169   150   183    1
   170   150   184    1
   171   150   185    1
   172   151   152    1
   173   151   186    1
   174   151   187    1
   175   152   153    1
   176   152   154    1
   177   153   188    1
   178   153   189    1
   179   153   190    1
   180   154   155    2
   181   154   156    1
   182   156   157    1
   183   156   191    1
   184   156   192    1
   185   157   158    1
   186   158   159    1
   187   158   193    1
   188   158   194    1
   189   159   160    2
   190   159   161    1
   191   161   162    1
   192   161   163    1
   193   162   195    1
   194   162   196    1
   195   162   197    1
   196   163   164    1
   197   163   198    1
   198   163   199    1
   199   164   165    1
   200   164   167    1
   201   164   200    1
   202   165   166    1
   203   165   201    1
   204   165   202    1
   205   166   203    1
   206   166   204    1
   207   166   205    1
   208   167   168    1
   209   167   206    1
   210   167   207    1
   211   168   169    1
   212   168   208    1
   213   168   209    1
   214   169   170    1
   215   169   210    1
   216   169   211    1
   217   170   212    1
   218   170   213    1
   219   170   214    1
@<TRIPOS>SUBSTRUCTURE
     1 RES1      214 GROUP             0 ****  ****    0  
