@<TRIPOS>MOLECULE
am_c3_9H2O_c0_0_nunpairedes_0_charge_3 Charge: 3 Unpaired_Electrons: 6 XTB_Unpaired_Electrons: 0 XTB_Charge: 3
   343   348     1     0     0
SMALL
NoCharges
****
Generated from Architector

@<TRIPOS>ATOM
     1 Eu1      -0.0425   -0.0612   -0.1576   Eu        1 RES1   0.0000
     2 C1       -2.4871    6.2383    4.0011   C.3       1 RES1   0.0000
     3 C2       -3.0660    4.8903    4.4220   C.3       1 RES1   0.0000
     4 C3       -4.4617    4.6857    3.8336   C.3       1 RES1   0.0000
     5 C4       -5.1665    3.4207    4.3308   C.3       1 RES1   0.0000
     6 C5       -6.4907    3.1861    3.5848   C.3       1 RES1   0.0000
     7 C6       -6.8678    1.7177    3.3603   C.3       1 RES1   0.0000
     8 C7       -5.8885    0.8831    2.5200   C.3       1 RES1   0.0000
     9 C8       -5.5256    1.5188    1.1651   C.3       1 RES1   0.0000
    10 N1       -4.4242    0.8037    0.5337   N.am      1 RES1   0.0000
    11 C9       -4.7401   -0.2599   -0.4187   C.3       1 RES1   0.0000
    12 C10      -4.1314   -0.0909   -1.8116   C.3       1 RES1   0.0000
    13 C11      -4.7905    0.9656   -2.6997   C.3       1 RES1   0.0000
    14 C12      -4.5412    0.7119   -4.1984   C.3       1 RES1   0.0000
    15 C13      -3.1008    0.3515   -4.5677   C.3       1 RES1   0.0000
    16 C14      -2.9141    0.1810   -6.0777   C.3       1 RES1   0.0000
    17 C15      -1.4739   -0.2012   -6.4185   C.3       1 RES1   0.0000
    18 C16      -1.2550   -0.3472   -7.9175   C.3       1 RES1   0.0000
    19 C17      -3.1706    0.8521    0.9628   C.2       1 RES1   0.0000
    20 O1       -2.2902    0.0779    0.5280   O.2       1 RES1   0.0000
    21 C18      -2.7297    1.8437    2.0207   C.3       1 RES1   0.0000
    22 N2       -1.4694    2.4437    1.5844   N.4       1 RES1   0.0000
    23 C19      -1.6842    3.5644    0.6711   C.3       1 RES1   0.0000
    24 C20      -1.4095    3.2019   -0.7943   C.2       1 RES1   0.0000
    25 O2       -1.0815    2.0360   -1.1090   O.2       1 RES1   0.0000
    26 N3       -1.4613    4.2082   -1.6619   N.am      1 RES1   0.0000
    27 C21      -1.2239    3.9448   -3.0779   C.3       1 RES1   0.0000
    28 C22      -2.5375    3.9281   -3.8577   C.3       1 RES1   0.0000
    29 C23      -2.3551    3.7359   -5.3626   C.3       1 RES1   0.0000
    30 C24      -1.9256    5.0013   -6.1016   C.3       1 RES1   0.0000
    31 C25      -1.8397    4.7349   -7.6048   C.3       1 RES1   0.0000
    32 C26      -1.3750    5.9503   -8.4148   C.3       1 RES1   0.0000
    33 C27       0.1096    5.9413   -8.7808   C.3       1 RES1   0.0000
    34 C28       1.0555    6.0467   -7.5892   C.3       1 RES1   0.0000
    35 C29      -2.0062    5.5120   -1.2866   C.3       1 RES1   0.0000
    36 C30      -1.5029    6.7182   -2.0775   C.3       1 RES1   0.0000
    37 C31      -1.9258    8.0071   -1.3510   C.3       1 RES1   0.0000
    38 C32      -3.3956    8.1327   -0.9215   C.3       1 RES1   0.0000
    39 C33      -4.4442    8.3196   -2.0253   C.3       1 RES1   0.0000
    40 C34      -4.7451    7.0855   -2.8747   C.3       1 RES1   0.0000
    41 C35      -5.9776    7.2564   -3.7659   C.3       1 RES1   0.0000
    42 C36      -7.2954    7.1759   -3.0058   C.3       1 RES1   0.0000
    43 H1       -1.4845    6.3766    4.4012   H         1 RES1   0.0000
    44 H2       -3.1143    7.0442    4.3765   H         1 RES1   0.0000
    45 H3       -2.4489    6.3215    2.9132   H         1 RES1   0.0000
    46 H4       -3.1161    4.8434    5.5100   H         1 RES1   0.0000
    47 H5       -2.4027    4.0809    4.0927   H         1 RES1   0.0000
    48 H6       -4.3784    4.6578    2.7398   H         1 RES1   0.0000
    49 H7       -5.0744    5.5550    4.0757   H         1 RES1   0.0000
    50 H8       -5.3516    3.5189    5.3995   H         1 RES1   0.0000
    51 H9       -4.5038    2.5626    4.2072   H         1 RES1   0.0000
    52 H10      -6.4592    3.6971    2.6202   H         1 RES1   0.0000
    53 H11      -7.3010    3.6480    4.1485   H         1 RES1   0.0000
    54 H12      -7.8482    1.6975    2.8800   H         1 RES1   0.0000
    55 H13      -6.9709    1.2246    4.3269   H         1 RES1   0.0000
    56 H14      -6.3472   -0.0927    2.3453   H         1 RES1   0.0000
    57 H15      -4.9718    0.7082    3.0872   H         1 RES1   0.0000
    58 H16      -5.2513    2.5643    1.3128   H         1 RES1   0.0000
    59 H17      -6.3869    1.4958    0.4961   H         1 RES1   0.0000
    60 H18      -5.8238   -0.3292   -0.4973   H         1 RES1   0.0000
    61 H19      -4.3598   -1.1958    0.0058   H         1 RES1   0.0000
    62 H20      -4.2562   -1.0596   -2.2921   H         1 RES1   0.0000
    63 H21      -3.0589    0.1114   -1.7214   H         1 RES1   0.0000
    64 H22      -4.4378    1.9617   -2.4275   H         1 RES1   0.0000
    65 H23      -5.8706    0.9518   -2.5417   H         1 RES1   0.0000
    66 H24      -4.8420    1.5998   -4.7580   H         1 RES1   0.0000
    67 H25      -5.1906   -0.1011   -4.5307   H         1 RES1   0.0000
    68 H26      -2.8257   -0.5881   -4.0864   H         1 RES1   0.0000
    69 H27      -2.4125    1.1128   -4.1962   H         1 RES1   0.0000
    70 H28      -3.1764    1.1055   -6.5963   H         1 RES1   0.0000
    71 H29      -3.5897   -0.6001   -6.4343   H         1 RES1   0.0000
    72 H30      -1.2269   -1.1412   -5.9165   H         1 RES1   0.0000
    73 H31      -0.7983    0.5652   -6.0289   H         1 RES1   0.0000
    74 H32      -1.8988   -1.1207   -8.3235   H         1 RES1   0.0000
    75 H33      -0.2237   -0.6141   -8.1270   H         1 RES1   0.0000
    76 H34      -1.4759    0.5824   -8.4340   H         1 RES1   0.0000
    77 H35      -2.5358    1.2728    2.9340   H         1 RES1   0.0000
    78 H36      -3.4848    2.6009    2.2289   H         1 RES1   0.0000
    79 H37      -0.9909    2.7877    2.4111   H         1 RES1   0.0000
    80 H38      -1.0185    4.3868    0.9504   H         1 RES1   0.0000
    81 H39      -2.7133    3.9388    0.7386   H         1 RES1   0.0000
    82 H40      -0.7358    2.9698   -3.1450   H         1 RES1   0.0000
    83 H41      -0.5550    4.7154   -3.4641   H         1 RES1   0.0000
    84 H42      -3.0769    4.8577   -3.6912   H         1 RES1   0.0000
    85 H43      -3.1450    3.1136   -3.4657   H         1 RES1   0.0000
    86 H44      -3.3138    3.4168   -5.7758   H         1 RES1   0.0000
    87 H45      -1.6350    2.9400   -5.5554   H         1 RES1   0.0000
    88 H46      -0.9625    5.3547   -5.7297   H         1 RES1   0.0000
    89 H47      -2.6645    5.7867   -5.9213   H         1 RES1   0.0000
    90 H48      -2.8343    4.4365   -7.9393   H         1 RES1   0.0000
    91 H49      -1.1696    3.8922   -7.7880   H         1 RES1   0.0000
    92 H50      -1.6072    6.8640   -7.8648   H         1 RES1   0.0000
    93 H51      -1.9371    5.9853   -9.3474   H         1 RES1   0.0000
    94 H52       0.2960    6.7848   -9.4466   H         1 RES1   0.0000
    95 H53       0.3362    5.0292   -9.3359   H         1 RES1   0.0000
    96 H54       0.8144    6.9193   -6.9832   H         1 RES1   0.0000
    97 H55       2.0811    6.1496   -7.9401   H         1 RES1   0.0000
    98 H56       1.0013    5.1570   -6.9624   H         1 RES1   0.0000
    99 H57      -1.7525    5.7234   -0.2499   H         1 RES1   0.0000
   100 H58      -3.0954    5.4712   -1.3734   H         1 RES1   0.0000
   101 H59      -1.8771    6.7164   -3.0970   H         1 RES1   0.0000
   102 H60      -0.4113    6.7016   -2.1220   H         1 RES1   0.0000
   103 H61      -1.6780    8.8562   -1.9872   H         1 RES1   0.0000
   104 H62      -1.3185    8.0943   -0.4442   H         1 RES1   0.0000
   105 H63      -3.4448    9.0238   -0.2910   H         1 RES1   0.0000
   106 H64      -3.6835    7.2882   -0.2880   H         1 RES1   0.0000
   107 H65      -4.1373    9.1380   -2.6787   H         1 RES1   0.0000
   108 H66      -5.3677    8.6275   -1.5323   H         1 RES1   0.0000
   109 H67      -4.9083    6.2182   -2.2257   H         1 RES1   0.0000
   110 H68      -3.8947    6.8800   -3.5242   H         1 RES1   0.0000
   111 H69      -5.9695    6.4713   -4.5255   H         1 RES1   0.0000
   112 H70      -5.9156    8.2136   -4.2832   H         1 RES1   0.0000
   113 H71      -7.3894    6.2191   -2.4936   H         1 RES1   0.0000
   114 H72      -8.1285    7.2734   -3.6966   H         1 RES1   0.0000
   115 H73      -7.3809    7.9697   -2.2688   H         1 RES1   0.0000
   116 C37       7.4966    1.9772    2.4618   C.3       1 RES1   0.0000
   117 C38       7.6327    3.4924    2.3352   C.3       1 RES1   0.0000
   118 C39       6.8961    4.0900    1.1313   C.3       1 RES1   0.0000
   119 C40       7.5454    3.7433   -0.2061   C.3       1 RES1   0.0000
   120 C41       6.8425    4.3805   -1.4099   C.3       1 RES1   0.0000
   121 C42       5.3646    3.9711   -1.5551   C.3       1 RES1   0.0000
   122 C43       4.9345    3.8250   -3.0165   C.3       1 RES1   0.0000
   123 C44       3.4233    3.6019   -3.2082   C.3       1 RES1   0.0000
   124 N4        2.9194    2.2657   -2.8950   N.am      1 RES1   0.0000
   125 C45       3.1845    1.2171   -3.8736   C.3       1 RES1   0.0000
   126 C46       2.0301    0.9662   -4.8408   C.3       1 RES1   0.0000
   127 C47       2.4490   -0.1040   -5.8564   C.3       1 RES1   0.0000
   128 C48       3.2818    0.4734   -7.0060   C.3       1 RES1   0.0000
   129 C49       4.0217   -0.5975   -7.8278   C.3       1 RES1   0.0000
   130 C50       5.5073   -0.7414   -7.4837   C.3       1 RES1   0.0000
   131 C51       5.7881   -1.3935   -6.1324   C.3       1 RES1   0.0000
   132 C52       7.2847   -1.5698   -5.9037   C.3       1 RES1   0.0000
   133 C53       2.1428    1.9634   -1.8659   C.2       1 RES1   0.0000
   134 O3        1.5779    0.8524   -1.7374   O.2       1 RES1   0.0000
   135 C54       1.9858    2.9966   -0.7480   C.3       1 RES1   0.0000
   136 N5        1.3283    2.3345    0.3758   N.4       1 RES1   0.0000
   137 C55       1.8947    2.5975    1.6827   C.3       1 RES1   0.0000
   138 C56       1.7241    1.3633    2.5674   C.2       1 RES1   0.0000
   139 O4        1.1462    0.3508    2.1046   O.2       1 RES1   0.0000
   140 N6        2.2480    1.4393    3.7852   N.am      1 RES1   0.0000
   141 C57       2.4918    0.2307    4.5675   C.3       1 RES1   0.0000
   142 C58       1.8137    0.1948    5.9354   C.3       1 RES1   0.0000
   143 C59       2.1993   -1.0775    6.6961   C.3       1 RES1   0.0000
   144 C60       1.4573   -2.3453    6.2706   C.3       1 RES1   0.0000
   145 C61      -0.0343   -2.3443    6.6474   C.3       1 RES1   0.0000
   146 C62      -0.9557   -2.0083    5.4743   C.3       1 RES1   0.0000
   147 C63      -2.4259   -1.9780    5.8836   C.3       1 RES1   0.0000
   148 C64      -3.3184   -1.4523    4.7659   C.3       1 RES1   0.0000
   149 C65       2.6801    2.7053    4.3774   C.3       1 RES1   0.0000
   150 C66       4.0360    3.2620    3.8918   C.3       1 RES1   0.0000
   151 C67       3.9709    4.7394    3.4616   C.3       1 RES1   0.0000
   152 C68       4.2464    5.7358    4.5936   C.3       1 RES1   0.0000
   153 C69       3.3057    5.6685    5.7966   C.3       1 RES1   0.0000
   154 C70       1.8803    6.1284    5.4974   C.3       1 RES1   0.0000
   155 C71       0.9798    6.1288    6.7349   C.3       1 RES1   0.0000
   156 C72       0.6153    4.7335    7.2338   C.3       1 RES1   0.0000
   157 H74       7.9978    1.6347    3.3648   H         1 RES1   0.0000
   158 H75       7.9500    1.4651    1.6170   H         1 RES1   0.0000
   159 H76       6.4484    1.6804    2.5240   H         1 RES1   0.0000
   160 H77       8.6912    3.7420    2.2661   H         1 RES1   0.0000
   161 H78       7.2454    3.9550    3.2459   H         1 RES1   0.0000
   162 H79       6.8832    5.1780    1.2362   H         1 RES1   0.0000
   163 H80       5.8572    3.7387    1.1357   H         1 RES1   0.0000
   164 H81       7.5692    2.6613   -0.3348   H         1 RES1   0.0000
   165 H82       8.5776    4.0912   -0.1902   H         1 RES1   0.0000
   166 H83       7.3859    4.0876   -2.3077   H         1 RES1   0.0000
   167 H84       6.9135    5.4679   -1.3380   H         1 RES1   0.0000
   168 H85       4.7446    4.7324   -1.0753   H         1 RES1   0.0000
   169 H86       5.2069    3.0207   -1.0485   H         1 RES1   0.0000
   170 H87       5.4958    3.0173   -3.4826   H         1 RES1   0.0000
   171 H88       5.1884    4.7455   -3.5453   H         1 RES1   0.0000
   172 H89       3.1833    3.7802   -4.2615   H         1 RES1   0.0000
   173 H90       2.8895    4.3447   -2.6155   H         1 RES1   0.0000
   174 H91       3.3687    0.2975   -3.3180   H         1 RES1   0.0000
   175 H92       4.0885    1.4859   -4.4244   H         1 RES1   0.0000
   176 H93       1.7664    1.8920   -5.3550   H         1 RES1   0.0000
   177 H94       1.1636    0.6258   -4.2664   H         1 RES1   0.0000
   178 H95       1.5594   -0.5770   -6.2719   H         1 RES1   0.0000
   179 H96       3.0155   -0.8783   -5.3363   H         1 RES1   0.0000
   180 H97       4.0139    1.1852   -6.6178   H         1 RES1   0.0000
   181 H98       2.6079    1.0293   -7.6626   H         1 RES1   0.0000
   182 H99       3.9580   -0.3337   -8.8839   H         1 RES1   0.0000
   183 H100      3.5277   -1.5655   -7.7099   H         1 RES1   0.0000
   184 H101      5.9815    0.2424   -7.5104   H         1 RES1   0.0000
   185 H102      5.9776   -1.3468   -8.2605   H         1 RES1   0.0000
   186 H103      5.2979   -2.3693   -6.0949   H         1 RES1   0.0000
   187 H104      5.3713   -0.7801   -5.3308   H         1 RES1   0.0000
   188 H105      7.7257   -2.1373   -6.7173   H         1 RES1   0.0000
   189 H106      7.4745   -2.1033   -4.9764   H         1 RES1   0.0000
   190 H107      7.7853   -0.6062   -5.8565   H         1 RES1   0.0000
   191 H108      1.4228    3.8671   -1.1078   H         1 RES1   0.0000
   192 H109      2.9817    3.3364   -0.4499   H         1 RES1   0.0000
   193 H110      0.3439    2.5828    0.4017   H         1 RES1   0.0000
   194 H111      1.4563    3.4821    2.1649   H         1 RES1   0.0000
   195 H112      2.9678    2.7654    1.5757   H         1 RES1   0.0000
   196 H113      3.5765    0.1578    4.7090   H         1 RES1   0.0000
   197 H114      2.1652   -0.6122    3.9587   H         1 RES1   0.0000
   198 H115      0.7321    0.2635    5.8246   H         1 RES1   0.0000
   199 H116      2.1407    1.0427    6.5318   H         1 RES1   0.0000
   200 H117      2.0134   -0.9183    7.7573   H         1 RES1   0.0000
   201 H118      3.2743   -1.2401    6.5858   H         1 RES1   0.0000
   202 H119      1.9446   -3.1862    6.7637   H         1 RES1   0.0000
   203 H120      1.5710   -2.4923    5.1922   H         1 RES1   0.0000
   204 H121     -0.2046   -1.6353    7.4600   H         1 RES1   0.0000
   205 H122     -0.3160   -3.3283    7.0247   H         1 RES1   0.0000
   206 H123     -0.8257   -2.7672    4.6962   H         1 RES1   0.0000
   207 H124     -0.6833   -1.0392    5.0440   H         1 RES1   0.0000
   208 H125     -2.5511   -1.3474    6.7635   H         1 RES1   0.0000
   209 H126     -2.7388   -2.9851    6.1584   H         1 RES1   0.0000
   210 H127     -3.0706   -0.4152    4.5339   H         1 RES1   0.0000
   211 H128     -4.3615   -1.4918    5.0652   H         1 RES1   0.0000
   212 H129     -3.2000   -2.0476    3.8597   H         1 RES1   0.0000
   213 H130      2.7177    2.5482    5.4508   H         1 RES1   0.0000
   214 H131      1.8995    3.4479    4.1981   H         1 RES1   0.0000
   215 H132      4.4001    2.6434    3.0689   H         1 RES1   0.0000
   216 H133      4.7776    3.1678    4.6866   H         1 RES1   0.0000
   217 H134      2.9995    4.9649    3.0151   H         1 RES1   0.0000
   218 H135      4.7279    4.9152    2.6972   H         1 RES1   0.0000
   219 H136      4.2096    6.7448    4.1759   H         1 RES1   0.0000
   220 H137      5.2660    5.5733    4.9481   H         1 RES1   0.0000
   221 H138      3.7100    6.3236    6.5683   H         1 RES1   0.0000
   222 H139      3.2981    4.6605    6.2096   H         1 RES1   0.0000
   223 H140      1.4222    5.4963    4.7302   H         1 RES1   0.0000
   224 H141      1.9220    7.1440    5.1012   H         1 RES1   0.0000
   225 H142      0.0576    6.6668    6.5027   H         1 RES1   0.0000
   226 H143      1.4777    6.6711    7.5387   H         1 RES1   0.0000
   227 H144      0.1367    4.1507    6.4459   H         1 RES1   0.0000
   228 H145     -0.0757    4.8112    8.0693   H         1 RES1   0.0000
   229 H146      1.4934    4.1948    7.5804   H         1 RES1   0.0000
   230 C73       5.2357    0.4792   -0.2202   C.3       1 RES1   0.0000
   231 C74       6.3558    0.2435   -1.2377   C.3       1 RES1   0.0000
   232 C75       6.0406   -0.8327   -2.2865   C.3       1 RES1   0.0000
   233 C76       5.2828   -1.9906   -1.6532   C.3       1 RES1   0.0000
   234 C77       5.0659   -3.2340   -2.5063   C.3       1 RES1   0.0000
   235 C78       4.5500   -4.4067   -1.6621   C.3       1 RES1   0.0000
   236 C79       3.2895   -4.1122   -0.8315   C.3       1 RES1   0.0000
   237 C80       3.6052   -3.4390    0.5090   C.3       1 RES1   0.0000
   238 N7        2.4671   -3.4248    1.4293   N.am      1 RES1   0.0000
   239 C81       2.7204   -3.8447    2.8086   C.3       1 RES1   0.0000
   240 C82       3.4156   -5.1955    2.9872   C.3       1 RES1   0.0000
   241 C83       2.7068   -6.3416    2.2715   C.3       1 RES1   0.0000
   242 C84       3.4259   -7.6879    2.4320   C.3       1 RES1   0.0000
   243 C85       4.5125   -7.9776    1.3888   C.3       1 RES1   0.0000
   244 C86       5.7248   -7.0455    1.3671   C.3       1 RES1   0.0000
   245 C87       6.5140   -7.0130    2.6741   C.3       1 RES1   0.0000
   246 C88       7.5535   -5.8960    2.6810   C.3       1 RES1   0.0000
   247 C89       1.4101   -2.6954    1.0995   C.2       1 RES1   0.0000
   248 O5        1.3495   -2.0037    0.0618   O.2       1 RES1   0.0000
   249 C90       0.2054   -2.7053    2.0428   C.3       1 RES1   0.0000
   250 N8       -0.9497   -2.1346    1.3534   N.4       1 RES1   0.0000
   251 C91      -1.7756   -3.1294    0.6627   C.3       1 RES1   0.0000
   252 C92      -1.9249   -2.8357   -0.8415   C.2       1 RES1   0.0000
   253 O6       -1.3336   -1.8547   -1.3395   O.2       1 RES1   0.0000
   254 N9       -2.7216   -3.6666   -1.5192   N.am      1 RES1   0.0000
   255 C93      -2.8873   -3.5031   -2.9727   C.3       1 RES1   0.0000
   256 C94      -4.1947   -4.0048   -3.6117   C.3       1 RES1   0.0000
   257 C95      -5.4990   -3.2221   -3.4210   C.3       1 RES1   0.0000
   258 C96      -6.1722   -3.3455   -2.0516   C.3       1 RES1   0.0000
   259 C97      -7.4555   -2.5099   -1.9990   C.3       1 RES1   0.0000
   260 C98      -8.3636   -2.8190   -0.8053   C.3       1 RES1   0.0000
   261 C99      -7.7242   -2.5971    0.5653   C.3       1 RES1   0.0000
   262 C100     -8.7847   -2.5174    1.6583   C.3       1 RES1   0.0000
   263 C101     -3.1451   -4.9481   -0.9609   C.3       1 RES1   0.0000
   264 C102     -2.0725   -6.0341   -1.1177   C.3       1 RES1   0.0000
   265 C103     -2.5559   -7.4129   -0.6512   C.3       1 RES1   0.0000
   266 C104     -3.5328   -8.1438   -1.5792   C.3       1 RES1   0.0000
   267 C105     -3.0060   -8.4878   -2.9833   C.3       1 RES1   0.0000
   268 C106     -3.3977   -7.4506   -4.0331   C.3       1 RES1   0.0000
   269 C107     -2.8938   -7.7637   -5.4392   C.3       1 RES1   0.0000
   270 C108     -3.1558   -6.5932   -6.3832   C.3       1 RES1   0.0000
   271 H147      5.4472    1.3707    0.3650   H         1 RES1   0.0000
   272 H148      5.1708   -0.3522    0.4784   H         1 RES1   0.0000
   273 H149      4.2649    0.5986   -0.7026   H         1 RES1   0.0000
   274 H150      7.2536   -0.0502   -0.6909   H         1 RES1   0.0000
   275 H151      6.5826    1.1751   -1.7575   H         1 RES1   0.0000
   276 H152      6.9763   -1.1793   -2.7217   H         1 RES1   0.0000
   277 H153      5.4502   -0.3981   -3.0941   H         1 RES1   0.0000
   278 H154      4.3013   -1.6090   -1.3725   H         1 RES1   0.0000
   279 H155      5.8331   -2.2882   -0.7577   H         1 RES1   0.0000
   280 H156      6.0032   -3.5381   -2.9732   H         1 RES1   0.0000
   281 H157      4.3551   -3.0164   -3.3056   H         1 RES1   0.0000
   282 H158      5.3475   -4.7417   -0.9927   H         1 RES1   0.0000
   283 H159      4.3301   -5.2334   -2.3387   H         1 RES1   0.0000
   284 H160      2.7914   -5.0599   -0.6170   H         1 RES1   0.0000
   285 H161      2.5995   -3.4914   -1.4058   H         1 RES1   0.0000
   286 H162      3.9058   -2.4034    0.3602   H         1 RES1   0.0000
   287 H163      4.4117   -3.9823    0.9947   H         1 RES1   0.0000
   288 H164      1.7799   -3.8878    3.3511   H         1 RES1   0.0000
   289 H165      3.3428   -3.0688    3.2760   H         1 RES1   0.0000
   290 H166      3.4202   -5.3905    4.0612   H         1 RES1   0.0000
   291 H167      4.4529   -5.1417    2.6761   H         1 RES1   0.0000
   292 H168      2.6153   -6.1135    1.2081   H         1 RES1   0.0000
   293 H169      1.6958   -6.4287    2.6796   H         1 RES1   0.0000
   294 H170      2.6822   -8.4821    2.3375   H         1 RES1   0.0000
   295 H171      3.8394   -7.7657    3.4379   H         1 RES1   0.0000
   296 H172      4.0513   -7.9612    0.3980   H         1 RES1   0.0000
   297 H173      4.8674   -8.9947    1.5631   H         1 RES1   0.0000
   298 H174      5.4074   -6.0353    1.1005   H         1 RES1   0.0000
   299 H175      6.3885   -7.3813    0.5682   H         1 RES1   0.0000
   300 H176      7.0126   -7.9717    2.8155   H         1 RES1   0.0000
   301 H177      5.8380   -6.8699    3.5175   H         1 RES1   0.0000
   302 H178      8.2676   -6.0233    1.8698   H         1 RES1   0.0000
   303 H179      8.0997   -5.8946    3.6211   H         1 RES1   0.0000
   304 H180      7.0792   -4.9193    2.5660   H         1 RES1   0.0000
   305 H181      0.4429   -2.0707    2.9006   H         1 RES1   0.0000
   306 H182      0.0143   -3.7294    2.3937   H         1 RES1   0.0000
   307 H183     -1.5310   -1.6479    2.0272   H         1 RES1   0.0000
   308 H184     -2.7695   -3.1652    1.1180   H         1 RES1   0.0000
   309 H185     -1.3228   -4.1194    0.7666   H         1 RES1   0.0000
   310 H186     -2.0696   -4.0527   -3.4548   H         1 RES1   0.0000
   311 H187     -2.7343   -2.4453   -3.1893   H         1 RES1   0.0000
   312 H188     -4.3833   -5.0392   -3.3341   H         1 RES1   0.0000
   313 H189     -3.9891   -4.0215   -4.6842   H         1 RES1   0.0000
   314 H190     -6.1970   -3.6190   -4.1631   H         1 RES1   0.0000
   315 H191     -5.3507   -2.1697   -3.6665   H         1 RES1   0.0000
   316 H192     -5.4885   -3.0259   -1.2598   H         1 RES1   0.0000
   317 H193     -6.4362   -4.3900   -1.8732   H         1 RES1   0.0000
   318 H194     -8.0317   -2.6977   -2.9078   H         1 RES1   0.0000
   319 H195     -7.1989   -1.4484   -2.0024   H         1 RES1   0.0000
   320 H196     -8.7086   -3.8541   -0.8691   H         1 RES1   0.0000
   321 H197     -9.2470   -2.1797   -0.8799   H         1 RES1   0.0000
   322 H198     -7.1512   -1.6658    0.5554   H         1 RES1   0.0000
   323 H199     -7.0336   -3.4126    0.7893   H         1 RES1   0.0000
   324 H200     -9.4322   -1.6568    1.5027   H         1 RES1   0.0000
   325 H201     -8.3264   -2.4299    2.6406   H         1 RES1   0.0000
   326 H202     -9.4041   -3.4096    1.6501   H         1 RES1   0.0000
   327 H203     -4.0488   -5.2604   -1.4745   H         1 RES1   0.0000
   328 H204     -3.4016   -4.8295    0.0890   H         1 RES1   0.0000
   329 H205     -1.1885   -5.7652   -0.5322   H         1 RES1   0.0000
   330 H206     -1.7528   -6.1002   -2.1570   H         1 RES1   0.0000
   331 H207     -3.0328   -7.3082    0.3265   H         1 RES1   0.0000
   332 H208     -1.6776   -8.0458   -0.5117   H         1 RES1   0.0000
   333 H209     -4.4601   -7.5744   -1.6759   H         1 RES1   0.0000
   334 H210     -3.7876   -9.0732   -1.0700   H         1 RES1   0.0000
   335 H211     -3.4212   -9.4485   -3.2881   H         1 RES1   0.0000
   336 H212     -1.9206   -8.5980   -2.9616   H         1 RES1   0.0000
   337 H213     -2.9953   -6.4795   -3.7490   H         1 RES1   0.0000
   338 H214     -4.4877   -7.3734   -4.0662   H         1 RES1   0.0000
   339 H215     -3.3909   -8.6557   -5.8194   H         1 RES1   0.0000
   340 H216     -1.8222   -7.9681   -5.4078   H         1 RES1   0.0000
   341 H217     -4.2146   -6.3402   -6.3965   H         1 RES1   0.0000
   342 H218     -2.8551   -6.8428   -7.3968   H         1 RES1   0.0000
   343 H219     -2.5935   -5.7127   -6.0693   H         1 RES1   0.0000
@<TRIPOS>BOND
     1     1    20    1
     2     1    22    1
     3     1    25    1
     4     1   134    1
     5     1   136    1
     6     1   139    1
     7     1   248    1
     8     1   250    1
     9     1   253    1
    10     2     3    1
    11     2    43    1
    12     2    44    1
    13     2    45    1
    14     3     4    1
    15     3    46    1
    16     3    47    1
    17     4     5    1
    18     4    48    1
    19     4    49    1
    20     5     6    1
    21     5    50    1
    22     5    51    1
    23     6     7    1
    24     6    52    1
    25     6    53    1
    26     7     8    1
    27     7    54    1
    28     7    55    1
    29     8     9    1
    30     8    56    1
    31     8    57    1
    32     9    10    1
    33     9    58    1
    34     9    59    1
    35    10    11    1
    36    10    19    1
    37    11    12    1
    38    11    60    1
    39    11    61    1
    40    12    13    1
    41    12    62    1
    42    12    63    1
    43    13    14    1
    44    13    64    1
    45    13    65    1
    46    14    15    1
    47    14    66    1
    48    14    67    1
    49    15    16    1
    50    15    68    1
    51    15    69    1
    52    16    17    1
    53    16    70    1
    54    16    71    1
    55    17    18    1
    56    17    72    1
    57    17    73    1
    58    18    74    1
    59    18    75    1
    60    18    76    1
    61    19    20    2
    62    19    21    1
    63    21    22    1
    64    21    77    1
    65    21    78    1
    66    22    23    1
    67    22    79    1
    68    23    24    1
    69    23    80    1
    70    23    81    1
    71    24    25    2
    72    24    26    1
    73    26    27    1
    74    26    35    1
    75    27    28    1
    76    27    82    1
    77    27    83    1
    78    28    29    1
    79    28    84    1
    80    28    85    1
    81    29    30    1
    82    29    86    1
    83    29    87    1
    84    30    31    1
    85    30    88    1
    86    30    89    1
    87    31    32    1
    88    31    90    1
    89    31    91    1
    90    32    33    1
    91    32    92    1
    92    32    93    1
    93    33    34    1
    94    33    94    1
    95    33    95    1
    96    34    96    1
    97    34    97    1
    98    34    98    1
    99    35    36    1
   100    35    99    1
   101    35   100    1
   102    36    37    1
   103    36   101    1
   104    36   102    1
   105    37    38    1
   106    37   103    1
   107    37   104    1
   108    38    39    1
   109    38   105    1
   110    38   106    1
   111    39    40    1
   112    39   107    1
   113    39   108    1
   114    40    41    1
   115    40   109    1
   116    40   110    1
   117    41    42    1
   118    41   111    1
   119    41   112    1
   120    42   113    1
   121    42   114    1
   122    42   115    1
   123   116   117    1
   124   116   157    1
   125   116   158    1
   126   116   159    1
   127   117   118    1
   128   117   160    1
   129   117   161    1
   130   118   119    1
   131   118   162    1
   132   118   163    1
   133   119   120    1
   134   119   164    1
   135   119   165    1
   136   120   121    1
   137   120   166    1
   138   120   167    1
   139   121   122    1
   140   121   168    1
   141   121   169    1
   142   122   123    1
   143   122   170    1
   144   122   171    1
   145   123   124    1
   146   123   172    1
   147   123   173    1
   148   124   125    1
   149   124   133    1
   150   125   126    1
   151   125   174    1
   152   125   175    1
   153   126   127    1
   154   126   176    1
   155   126   177    1
   156   127   128    1
   157   127   178    1
   158   127   179    1
   159   128   129    1
   160   128   180    1
   161   128   181    1
   162   129   130    1
   163   129   182    1
   164   129   183    1
   165   130   131    1
   166   130   184    1
   167   130   185    1
   168   131   132    1
   169   131   186    1
   170   131   187    1
   171   132   188    1
   172   132   189    1
   173   132   190    1
   174   133   134    2
   175   133   135    1
   176   135   136    1
   177   135   191    1
   178   135   192    1
   179   136   137    1
   180   136   193    1
   181   137   138    1
   182   137   194    1
   183   137   195    1
   184   138   139    2
   185   138   140    1
   186   140   141    1
   187   140   149    1
   188   141   142    1
   189   141   196    1
   190   141   197    1
   191   142   143    1
   192   142   198    1
   193   142   199    1
   194   143   144    1
   195   143   200    1
   196   143   201    1
   197   144   145    1
   198   144   202    1
   199   144   203    1
   200   145   146    1
   201   145   204    1
   202   145   205    1
   203   146   147    1
   204   146   206    1
   205   146   207    1
   206   147   148    1
   207   147   208    1
   208   147   209    1
   209   148   210    1
   210   148   211    1
   211   148   212    1
   212   149   150    1
   213   149   213    1
   214   149   214    1
   215   150   151    1
   216   150   215    1
   217   150   216    1
   218   151   152    1
   219   151   217    1
   220   151   218    1
   221   152   153    1
   222   152   219    1
   223   152   220    1
   224   153   154    1
   225   153   221    1
   226   153   222    1
   227   154   155    1
   228   154   223    1
   229   154   224    1
   230   155   156    1
   231   155   225    1
   232   155   226    1
   233   156   227    1
   234   156   228    1
   235   156   229    1
   236   230   231    1
   237   230   271    1
   238   230   272    1
   239   230   273    1
   240   231   232    1
   241   231   274    1
   242   231   275    1
   243   232   233    1
   244   232   276    1
   245   232   277    1
   246   233   234    1
   247   233   278    1
   248   233   279    1
   249   234   235    1
   250   234   280    1
   251   234   281    1
   252   235   236    1
   253   235   282    1
   254   235   283    1
   255   236   237    1
   256   236   284    1
   257   236   285    1
   258   237   238    1
   259   237   286    1
   260   237   287    1
   261   238   239    1
   262   238   247    1
   263   239   240    1
   264   239   288    1
   265   239   289    1
   266   240   241    1
   267   240   290    1
   268   240   291    1
   269   241   242    1
   270   241   292    1
   271   241   293    1
   272   242   243    1
   273   242   294    1
   274   242   295    1
   275   243   244    1
   276   243   296    1
   277   243   297    1
   278   244   245    1
   279   244   298    1
   280   244   299    1
   281   245   246    1
   282   245   300    1
   283   245   301    1
   284   246   302    1
   285   246   303    1
   286   246   304    1
   287   247   248    2
   288   247   249    1
   289   249   250    1
   290   249   305    1
   291   249   306    1
   292   250   251    1
   293   250   307    1
   294   251   252    1
   295   251   308    1
   296   251   309    1
   297   252   253    2
   298   252   254    1
   299   254   255    1
   300   254   263    1
   301   255   256    1
   302   255   310    1
   303   255   311    1
   304   256   257    1
   305   256   312    1
   306   256   313    1
   307   257   258    1
   308   257   314    1
   309   257   315    1
   310   258   259    1
   311   258   316    1
   312   258   317    1
   313   259   260    1
   314   259   318    1
   315   259   319    1
   316   260   261    1
   317   260   320    1
   318   260   321    1
   319   261   262    1
   320   261   322    1
   321   261   323    1
   322   262   324    1
   323   262   325    1
   324   262   326    1
   325   263   264    1
   326   263   327    1
   327   263   328    1
   328   264   265    1
   329   264   329    1
   330   264   330    1
   331   265   266    1
   332   265   331    1
   333   265   332    1
   334   266   267    1
   335   266   333    1
   336   266   334    1
   337   267   268    1
   338   267   335    1
   339   267   336    1
   340   268   269    1
   341   268   337    1
   342   268   338    1
   343   269   270    1
   344   269   339    1
   345   269   340    1
   346   270   341    1
   347   270   342    1
   348   270   343    1
@<TRIPOS>SUBSTRUCTURE
     1 RES1      343 GROUP             0 ****  ****    0  
