@<TRIPOS>MOLECULE
cn9_YICLED_0_nunpairedes_0_charge_2 Charge: 2 Unpaired_Electrons: 6 XTB_Unpaired_Electrons: 0 XTB_Charge: 2
    72    78     1     0     0
SMALL
NoCharges
****
Generated from Architector

@<TRIPOS>ATOM
     1 Eu1      -0.3425   -0.0222   -0.0187   Eu        1 RES1   0.0000
     2 C1       -0.4907    6.7827    2.5170   C.3       1 RES1   0.0000
     3 C2        0.4572    5.6690    2.0929   C.3       1 RES1   0.0000
     4 C3       -0.3281    4.4516    1.5917   C.3       1 RES1   0.0000
     5 C4        0.5947    3.2905    1.2552   C.3       1 RES1   0.0000
     6 O1       -0.0570    2.2970    0.3830   O.3       1 RES1   0.0000
     7 P1       -0.0405    2.7729   -1.2125   P.3       1 RES1   0.0000
     8 S1       -1.8032    1.5576   -1.7890   S.3       1 RES1   0.0000
     9 C5       -3.0064    1.9956   -0.4720   C.3       1 RES1   0.0000
    10 O2       -2.7374    1.2383    0.6912   O.3       1 RES1   0.0000
    11 C6       -3.5606    0.1241    0.9721   C.3       1 RES1   0.0000
    12 P2       -1.3939   -1.7075    2.3087   P.3       1 RES1   0.0000
    13 S2       -2.6585   -1.4382    0.5443   S.3       1 RES1   0.0000
    14 O3       -0.8394   -0.1119    2.3476   O.3       1 RES1   0.0000
    15 C7       -0.3200    0.3494    3.6438   C.3       1 RES1   0.0000
    16 C8       -1.4251    0.6269    4.6538   C.3       1 RES1   0.0000
    17 C9       -2.0341    2.0231    4.5092   C.3       1 RES1   0.0000
    18 C10      -1.0910    3.1068    5.0263   C.3       1 RES1   0.0000
    19 O4       -0.1758   -2.2697    1.3669   O.3       1 RES1   0.0000
    20 C11       1.0151   -2.6994    2.1245   C.3       1 RES1   0.0000
    21 C12       1.7158   -3.8664    1.4522   C.3       1 RES1   0.0000
    22 C13       3.1243   -4.0227    2.0340   C.3       1 RES1   0.0000
    23 C14       3.1168   -4.4104    3.5051   C.3       1 RES1   0.0000
    24 O5        1.0138    1.6193   -1.6447   O.3       1 RES1   0.0000
    25 C15       1.6132    1.6354   -2.9845   C.3       1 RES1   0.0000
    26 C16       3.0532    1.1514   -2.8930   C.3       1 RES1   0.0000
    27 C17       3.5048    0.4882   -4.1975   C.3       1 RES1   0.0000
    28 C18       2.7665   -0.8100   -4.4948   C.3       1 RES1   0.0000
    29 H1        0.0705    7.6601    2.8194   H         1 RES1   0.0000
    30 H2       -1.1062    6.4695    3.3558   H         1 RES1   0.0000
    31 H3       -1.1456    7.0736    1.7004   H         1 RES1   0.0000
    32 H4        1.0829    5.3830    2.9413   H         1 RES1   0.0000
    33 H5        1.1100    6.0319    1.2963   H         1 RES1   0.0000
    34 H6       -0.8791    4.7293    0.6857   H         1 RES1   0.0000
    35 H7       -1.0484    4.1480    2.3528   H         1 RES1   0.0000
    36 H8        0.9017    2.7477    2.1519   H         1 RES1   0.0000
    37 H9        1.4990    3.6440    0.7527   H         1 RES1   0.0000
    38 H10      -3.9886    1.7736   -0.8895   H         1 RES1   0.0000
    39 H11      -2.9356    3.0640   -0.2296   H         1 RES1   0.0000
    40 H12      -4.4980    0.1095    0.4027   H         1 RES1   0.0000
    41 H13      -3.7995    0.1508    2.0407   H         1 RES1   0.0000
    42 H14       0.2178    1.2661    3.3972   H         1 RES1   0.0000
    43 H15       0.3918   -0.3888    4.0236   H         1 RES1   0.0000
    44 H16      -1.0074    0.5405    5.6577   H         1 RES1   0.0000
    45 H17      -2.1876   -0.1507    4.5471   H         1 RES1   0.0000
    46 H18      -2.9501    2.0594    5.0977   H         1 RES1   0.0000
    47 H19      -2.2986    2.2002    3.4621   H         1 RES1   0.0000
    48 H20      -0.8200    2.9074    6.0605   H         1 RES1   0.0000
    49 H21      -1.5738    4.0802    5.0009   H         1 RES1   0.0000
    50 H22      -0.1742    3.1648    4.4419   H         1 RES1   0.0000
    51 H23       0.7082   -2.9779    3.1376   H         1 RES1   0.0000
    52 H24       1.6944   -1.8369    2.1711   H         1 RES1   0.0000
    53 H25       1.7877   -3.6862    0.3777   H         1 RES1   0.0000
    54 H26       1.1421   -4.7814    1.5997   H         1 RES1   0.0000
    55 H27       3.6675   -3.0855    1.9030   H         1 RES1   0.0000
    56 H28       3.6474   -4.7874    1.4633   H         1 RES1   0.0000
    57 H29       2.7003   -3.6273    4.1311   H         1 RES1   0.0000
    58 H30       4.1297   -4.5927    3.8446   H         1 RES1   0.0000
    59 H31       2.5422   -5.3170    3.6615   H         1 RES1   0.0000
    60 H32       1.5551    2.6451   -3.3986   H         1 RES1   0.0000
    61 H33       1.0149    0.9681   -3.6105   H         1 RES1   0.0000
    62 H34       3.1301    0.4214   -2.0830   H         1 RES1   0.0000
    63 H35       3.7105    1.9890   -2.6517   H         1 RES1   0.0000
    64 H36       4.5685    0.2758   -4.1059   H         1 RES1   0.0000
    65 H37       3.3740    1.1882   -5.0225   H         1 RES1   0.0000
    66 H38       2.8851   -1.5167   -3.6775   H         1 RES1   0.0000
    67 H39       3.1701   -1.2602   -5.3959   H         1 RES1   0.0000
    68 H40       1.7038   -0.6494   -4.6608   H         1 RES1   0.0000
    69 N1        1.6130   -1.1873   -0.7589   N.3       1 RES1   0.0000
    70 O6        2.5695   -1.7923   -1.0780   O.2       1 RES1   0.0000
    71 O7        1.6239   -0.4049    0.2253   O.co2     1 RES1   0.0000
    72 O8        0.5212   -1.2787   -1.3579   O.co2     1 RES1   0.0000
@<TRIPOS>BOND
     1     1     6    1
     2     1     8    1
     3     1    10    1
     4     1    13    1
     5     1    14    1
     6     1    19    1
     7     1    24    1
     8     1    71    1
     9     1    72    1
    10     2     3    1
    11     2    29    1
    12     2    30    1
    13     2    31    1
    14     3     4    1
    15     3    32    1
    16     3    33    1
    17     4     5    1
    18     4    34    1
    19     4    35    1
    20     5     6    1
    21     5    36    1
    22     5    37    1
    23     6     7    1
    24     7     8    2
    25     7     9    1
    26     7    24    1
    27     9    10    1
    28     9    38    1
    29     9    39    1
    30    10    11    1
    31    11    12    1
    32    11    40    1
    33    11    41    1
    34    12    13    2
    35    12    14    1
    36    12    19    1
    37    14    15    1
    38    15    16    1
    39    15    42    1
    40    15    43    1
    41    16    17    1
    42    16    44    1
    43    16    45    1
    44    17    18    1
    45    17    46    1
    46    17    47    1
    47    18    48    1
    48    18    49    1
    49    18    50    1
    50    19    20    1
    51    20    21    1
    52    20    51    1
    53    20    52    1
    54    21    22    1
    55    21    53    1
    56    21    54    1
    57    22    23    1
    58    22    55    1
    59    22    56    1
    60    23    57    1
    61    23    58    1
    62    23    59    1
    63    24    25    1
    64    25    26    1
    65    25    60    1
    66    25    61    1
    67    26    27    1
    68    26    62    1
    69    26    63    1
    70    27    28    1
    71    27    64    1
    72    27    65    1
    73    28    66    1
    74    28    67    1
    75    28    68    1
    76    69    70    2
    77    69    71    1
    78    69    72    1
@<TRIPOS>SUBSTRUCTURE
     1 RES1       72 GROUP             0 ****  ****    0  
