@<TRIPOS>MOLECULE
tri_tri_mer_capped_0_nunpairedes_0_charge_1 Charge: 1 Unpaired_Electrons: 6 XTB_Unpaired_Electrons: 0 XTB_Charge: 1
    46    54     1     0     0
SMALL
NoCharges
****
Generated from Architector

@<TRIPOS>ATOM
     1 Eu1       0.8950    0.5993   -0.7225   Eu        1 RES1   0.0000
     2 C1        3.6389    1.4343    1.3387   C.3       1 RES1   0.0000
     3 C2        2.5581    2.4420    1.5247   C.ar      1 RES1   0.0000
     4 C3        2.4076    3.4943    2.4474   C.ar      1 RES1   0.0000
     5 C4        1.1756    4.0593    2.1916   C.ar      1 RES1   0.0000
     6 C5        0.4971    5.1431    2.9365   C.3       1 RES1   0.0000
     7 N1        0.6348    3.3692    1.1410   N.ar      1 RES1   0.0000
     8 C6       -0.5860    3.4532    0.4727   C.ar      1 RES1   0.0000
     9 C7       -1.5352    4.4626    0.6345   C.ar      1 RES1   0.0000
    10 C8       -2.6690    4.4171   -0.1630   C.ar      1 RES1   0.0000
    11 C9       -2.8581    3.3898   -1.0781   C.ar      1 RES1   0.0000
    12 C10      -1.8866    2.3961   -1.1352   C.ar      1 RES1   0.0000
    13 N2       -1.9511    1.2598   -1.9494   N.ar      1 RES1   0.0000
    14 N3       -0.7820    0.7113   -2.3875   N.ar      1 RES1   0.0000
    15 C11      -1.0792   -0.4961   -2.8718   C.ar      1 RES1   0.0000
    16 C12      -0.0037   -1.3672   -3.4346   C.3       1 RES1   0.0000
    17 C13      -2.4564   -0.7409   -2.7139   C.ar      1 RES1   0.0000
    18 C14      -2.9907    0.3940   -2.1405   C.ar      1 RES1   0.0000
    19 C15      -4.3992    0.6911   -1.7901   C.3       1 RES1   0.0000
    20 N4       -0.7734    2.4481   -0.3958   N.ar      1 RES1   0.0000
    21 N5        1.4883    2.3868    0.7386   N.ar      1 RES1   0.0000
    22 H1        4.2598    1.3739    2.2290   H         1 RES1   0.0000
    23 H2        4.2861    1.6874    0.4923   H         1 RES1   0.0000
    24 H3        3.2000    0.4389    1.1544   H         1 RES1   0.0000
    25 H4        3.1020    3.7947    3.2069   H         1 RES1   0.0000
    26 H5        0.3537    6.0428    2.3361   H         1 RES1   0.0000
    27 H6        1.1070    5.4058    3.7969   H         1 RES1   0.0000
    28 H7       -0.4749    4.7993    3.2903   H         1 RES1   0.0000
    29 H8       -1.4146    5.2776    1.3271   H         1 RES1   0.0000
    30 H9       -3.4052    5.2044   -0.0810   H         1 RES1   0.0000
    31 H10      -3.7103    3.3848   -1.7366   H         1 RES1   0.0000
    32 H11       0.7723   -0.7599   -3.9131   H         1 RES1   0.0000
    33 H12      -0.4175   -2.0584   -4.1688   H         1 RES1   0.0000
    34 H13       0.4566   -1.9568   -2.6273   H         1 RES1   0.0000
    35 H14      -2.9803   -1.6505   -2.9364   H         1 RES1   0.0000
    36 H15      -5.0007   -0.2089   -1.8891   H         1 RES1   0.0000
    37 H16      -4.8120    1.4463   -2.4595   H         1 RES1   0.0000
    38 H17      -4.4972    1.0558   -0.7690   H         1 RES1   0.0000
    39 N6        3.0195    0.4971   -1.7861   N.3       1 RES1   0.0000
    40 O1        4.1987    0.5772   -1.8427   O.2       1 RES1   0.0000
    41 O2        2.2742    1.4577   -2.0597   O.co2     1 RES1   0.0000
    42 O3        2.4500   -0.5446   -1.4050   O.co2     1 RES1   0.0000
    43 N7       -0.2853   -0.1483    0.9901   N.3       1 RES1   0.0000
    44 O4       -0.8492    0.6430    1.6934   O.2       1 RES1   0.0000
    45 O5        0.8963   -0.4437    1.1713   O.co2     1 RES1   0.0000
    46 O6       -0.8189   -0.5955   -0.0275   O.co2     1 RES1   0.0000
@<TRIPOS>BOND
     1     1     7    1
     2     1    13    1
     3     1    14    1
     4     1    20    1
     5     1    21    1
     6     1    41    1
     7     1    42    1
     8     1    45    1
     9     1    46    1
    10     2     3    1
    11     2    22    1
    12     2    23    1
    13     2    24    1
    14     3     4    1
    15     3    21    2
    16     4     5    2
    17     4    25    1
    18     5     6    1
    19     5     7    1
    20     6    26    1
    21     6    27    1
    22     6    28    1
    23     7     8    1
    24     7    21    1
    25     8     9    1
    26     8    20    2
    27     9    10    2
    28     9    29    1
    29    10    11    1
    30    10    30    1
    31    11    12    2
    32    11    31    1
    33    12    13    1
    34    12    20    1
    35    13    14    1
    36    13    18    1
    37    14    15    2
    38    15    16    1
    39    15    17    1
    40    16    32    1
    41    16    33    1
    42    16    34    1
    43    17    18    2
    44    17    35    1
    45    18    19    1
    46    19    36    1
    47    19    37    1
    48    19    38    1
    49    39    40    2
    50    39    41    1
    51    39    42    1
    52    43    44    2
    53    43    45    1
    54    43    46    1
@<TRIPOS>SUBSTRUCTURE
     1 RES1       46 GROUP             0 ****  ****    0  
