@<TRIPOS>MOLECULE
am_c3_9H2O_c0_0_nunpairedes_0_charge_1 Charge: 1 Unpaired_Electrons: 6 XTB_Unpaired_Electrons: 0 XTB_Charge: 1
    34    42     1     0     0
SMALL
NoCharges
****
Generated from Architector

@<TRIPOS>ATOM
     1 Eu1       1.3664    0.8836    0.1873   Eu        1 RES1   0.0000
     2 C1        0.6906    4.5567    3.0716   C.ar      1 RES1   0.0000
     3 C2        1.0510    4.8797    1.7708   C.ar      1 RES1   0.0000
     4 C3        1.7436    3.9263    1.0308   C.ar      1 RES1   0.0000
     5 N1        2.0884    4.0359   -0.3156   N.ar      1 RES1   0.0000
     6 C4        2.3390    5.1366   -1.0621   C.ar      1 RES1   0.0000
     7 C5        2.7458    4.7109   -2.2976   C.ar      1 RES1   0.0000
     8 C6        2.7178    3.3083   -2.2302   C.ar      1 RES1   0.0000
     9 N2        2.3367    2.9062   -1.0261   N.ar      1 RES1   0.0000
    10 N3        2.1366    2.7687    1.5660   N.ar      1 RES1   0.0000
    11 C7        1.8420    2.4933    2.8435   C.ar      1 RES1   0.0000
    12 N4        2.3896    1.2686    3.2398   N.ar      1 RES1   0.0000
    13 C8        2.9996    0.9562    4.4062   C.ar      1 RES1   0.0000
    14 C9        3.6060   -0.2625    4.2400   C.ar      1 RES1   0.0000
    15 C10       3.3363   -0.6220    2.9123   C.ar      1 RES1   0.0000
    16 N5        2.6078    0.3066    2.3025   N.ar      1 RES1   0.0000
    17 C11       1.0859    3.3483    3.6369   C.ar      1 RES1   0.0000
    18 H1        0.0714    5.2444    3.6306   H         1 RES1   0.0000
    19 H2        0.7430    5.8073    1.3193   H         1 RES1   0.0000
    20 H3        2.2572    6.1244   -0.6602   H         1 RES1   0.0000
    21 H4        3.0367    5.3217   -3.1268   H         1 RES1   0.0000
    22 H5        2.9610    2.5955   -3.0024   H         1 RES1   0.0000
    23 H6        2.9660    1.6255    5.2401   H         1 RES1   0.0000
    24 H7        4.1769   -0.8240    4.9540   H         1 RES1   0.0000
    25 H8        3.6380   -1.5106    2.3855   H         1 RES1   0.0000
    26 H9        0.7647    3.0752    4.6310   H         1 RES1   0.0000
    27 N6       -0.0173    0.4864   -1.7043   N.3       1 RES1   0.0000
    28 O1       -0.9223    0.0174   -2.2936   O.2       1 RES1   0.0000
    29 O2        1.1083   -0.0651   -1.6434   O.co2     1 RES1   0.0000
    30 O3       -0.1087    1.5831   -1.1079   O.co2     1 RES1   0.0000
    31 N7       -0.1678    0.2653    1.8778   N.3       1 RES1   0.0000
    32 O4       -0.2683   -0.0588    3.0168   O.2       1 RES1   0.0000
    33 O5        0.0521   -0.5445    0.9640   O.co2     1 RES1   0.0000
    34 O6       -0.2127    1.4673    1.5437   O.co2     1 RES1   0.0000
@<TRIPOS>BOND
     1     1     5    1
     2     1     9    1
     3     1    10    1
     4     1    12    1
     5     1    16    1
     6     1    29    1
     7     1    30    1
     8     1    33    1
     9     1    34    1
    10     2     3    1
    11     2    17    2
    12     2    18    1
    13     3     4    2
    14     3    19    1
    15     4     5    1
    16     4    10    1
    17     5     6    1
    18     5     9    1
    19     6     7    2
    20     6    20    1
    21     7     8    1
    22     7    21    1
    23     8     9    2
    24     8    22    1
    25    10    11    2
    26    11    12    1
    27    11    17    1
    28    12    13    1
    29    12    16    1
    30    13    14    2
    31    13    23    1
    32    14    15    1
    33    14    24    1
    34    15    16    2
    35    15    25    1
    36    17    26    1
    37    27    28    2
    38    27    29    1
    39    27    30    1
    40    31    32    2
    41    31    33    1
    42    31    34    1
@<TRIPOS>SUBSTRUCTURE
     1 RES1       34 GROUP             0 ****  ****    0  
