@<TRIPOS>MOLECULE
am_c3_9H2O_c0_0_nunpairedes_0_charge_3 Charge: 3 Unpaired_Electrons: 6 XTB_Unpaired_Electrons: 0 XTB_Charge: 3
   187   201     1     0     0
SMALL
NoCharges
****
Generated from Architector

@<TRIPOS>ATOM
     1 Eu1       0.0502    0.0430    0.0224   Eu        1 RES1   0.0000
     2 C1       -4.6139    8.2157    2.5701   C.3       1 RES1   0.0000
     3 C2       -5.8461    7.3520    2.8024   C.3       1 RES1   0.0000
     4 C3       -5.7075    5.9508    2.2042   C.3       1 RES1   0.0000
     5 C4       -4.8124    5.0196    3.0214   C.3       1 RES1   0.0000
     6 C5       -4.9014    3.5874    2.4979   C.3       1 RES1   0.0000
     7 C6       -4.0629    2.5843    3.3106   C.3       1 RES1   0.0000
     8 N1       -2.6973    2.3753    2.8376   N.am      1 RES1   0.0000
     9 C7       -1.6231    2.8913    3.7017   C.3       1 RES1   0.0000
    10 C8       -0.5691    3.7848    3.0403   C.3       1 RES1   0.0000
    11 C9       -1.0197    5.1416    2.4995   C.3       1 RES1   0.0000
    12 C10      -1.5799    5.0763    1.0788   C.3       1 RES1   0.0000
    13 C11      -2.0167    6.4283    0.5066   C.3       1 RES1   0.0000
    14 C12      -0.9390    7.5052    0.5227   C.3       1 RES1   0.0000
    15 C13      -2.3019    1.5992    1.8212   C.2       1 RES1   0.0000
    16 O1       -1.0801    1.4196    1.6157   O.2       1 RES1   0.0000
    17 C14      -3.2120    0.7967    0.9171   C.ar      1 RES1   0.0000
    18 C15      -4.6118    0.7698    0.9313   C.ar      1 RES1   0.0000
    19 C16      -5.2744   -0.1525    0.1604   C.ar      1 RES1   0.0000
    20 C17      -4.5704   -1.0105   -0.6880   C.ar      1 RES1   0.0000
    21 C18      -5.2427   -1.9464   -1.5255   C.ar      1 RES1   0.0000
    22 C19      -4.5385   -2.7145   -2.3852   C.ar      1 RES1   0.0000
    23 C20      -3.1224   -2.5880   -2.4828   C.ar      1 RES1   0.0000
    24 C21      -2.4002   -3.3286   -3.4408   C.ar      1 RES1   0.0000
    25 C22      -1.0540   -3.0880   -3.5986   C.ar      1 RES1   0.0000
    26 C23      -0.4572   -2.1396   -2.7578   C.ar      1 RES1   0.0000
    27 N2       -1.0892   -1.4808   -1.7989   N.ar      1 RES1   0.0000
    28 C24      -2.4212   -1.6744   -1.6591   C.ar      1 RES1   0.0000
    29 C25      -3.1612   -0.8709   -0.7084   C.ar      1 RES1   0.0000
    30 N3       -2.5194   -0.0062    0.0991   N.ar      1 RES1   0.0000
    31 H1       -4.7738    9.2141    2.9615   H         1 RES1   0.0000
    32 H2       -4.4122    8.3060    1.5047   H         1 RES1   0.0000
    33 H3       -3.7392    7.8014    3.0656   H         1 RES1   0.0000
    34 H4       -6.7047    7.8346    2.3335   H         1 RES1   0.0000
    35 H5       -6.0495    7.2771    3.8726   H         1 RES1   0.0000
    36 H6       -5.3126    6.0362    1.1898   H         1 RES1   0.0000
    37 H7       -6.6982    5.4988    2.1310   H         1 RES1   0.0000
    38 H8       -5.1418    5.0462    4.0603   H         1 RES1   0.0000
    39 H9       -3.7818    5.3632    2.9899   H         1 RES1   0.0000
    40 H10      -4.6189    3.5754    1.4421   H         1 RES1   0.0000
    41 H11      -5.9451    3.2818    2.5823   H         1 RES1   0.0000
    42 H12      -4.5759    1.6199    3.3781   H         1 RES1   0.0000
    43 H13      -3.9904    2.9704    4.3279   H         1 RES1   0.0000
    44 H14      -1.0921    2.0150    4.0964   H         1 RES1   0.0000
    45 H15      -2.0858    3.4229    4.5317   H         1 RES1   0.0000
    46 H16      -0.1194    3.2167    2.2330   H         1 RES1   0.0000
    47 H17       0.1956    3.9495    3.8014   H         1 RES1   0.0000
    48 H18      -0.1436    5.7902    2.4810   H         1 RES1   0.0000
    49 H19      -1.7384    5.5956    3.1790   H         1 RES1   0.0000
    50 H20      -2.4288    4.3902    1.0293   H         1 RES1   0.0000
    51 H21      -0.8093    4.6667    0.4250   H         1 RES1   0.0000
    52 H22      -2.8803    6.7909    1.0577   H         1 RES1   0.0000
    53 H23      -2.3372    6.2615   -0.5256   H         1 RES1   0.0000
    54 H24      -0.7552    7.8668    1.5296   H         1 RES1   0.0000
    55 H25      -1.2580    8.3522   -0.0777   H         1 RES1   0.0000
    56 H26      -0.0089    7.1261    0.1084   H         1 RES1   0.0000
    57 H27      -5.1907    1.4613    1.5064   H         1 RES1   0.0000
    58 H28      -6.3482   -0.2247    0.1795   H         1 RES1   0.0000
    59 H29      -6.3208   -2.0092   -1.4677   H         1 RES1   0.0000
    60 H30      -5.0168   -3.4203   -3.0467   H         1 RES1   0.0000
    61 H31      -2.9319   -4.0485   -4.0453   H         1 RES1   0.0000
    62 H32      -0.4638   -3.5984   -4.3490   H         1 RES1   0.0000
    63 H33       0.5919   -1.9013   -2.8953   H         1 RES1   0.0000
    64 C26       8.4866   -0.8600    2.6225   C.3       1 RES1   0.0000
    65 C27       8.6469    0.6330    2.8692   C.3       1 RES1   0.0000
    66 C28       7.4181    1.4399    2.4499   C.3       1 RES1   0.0000
    67 C29       6.1876    1.1894    3.3188   C.3       1 RES1   0.0000
    68 C30       5.0987    2.2183    3.0280   C.3       1 RES1   0.0000
    69 C31       3.8299    1.9509    3.8445   C.3       1 RES1   0.0000
    70 N4        2.9710    0.9300    3.2545   N.am      1 RES1   0.0000
    71 C32       2.6643   -0.2275    4.1197   C.3       1 RES1   0.0000
    72 C33       2.6651   -1.6479    3.5413   C.3       1 RES1   0.0000
    73 C34       4.0474   -2.2429    3.2574   C.3       1 RES1   0.0000
    74 C35       4.4585   -2.1153    1.7925   C.3       1 RES1   0.0000
    75 C36       5.7044   -2.9257    1.4275   C.3       1 RES1   0.0000
    76 C37       5.4963   -4.4337    1.4803   C.3       1 RES1   0.0000
    77 C38       2.2832    1.0813    2.1177   C.2       1 RES1   0.0000
    78 O2        1.6256    0.1257    1.6528   O.2       1 RES1   0.0000
    79 C39       2.1254    2.3777    1.3296   C.ar      1 RES1   0.0000
    80 C40       2.6344    3.6570    1.5987   C.ar      1 RES1   0.0000
    81 C41       2.3307    4.7018    0.7557   C.ar      1 RES1   0.0000
    82 C42       1.5318    4.4952   -0.3713   C.ar      1 RES1   0.0000
    83 C43       1.2832    5.5078   -1.3413   C.ar      1 RES1   0.0000
    84 C44       0.4164    5.2904   -2.3567   C.ar      1 RES1   0.0000
    85 C45      -0.2837    4.0540   -2.4720   C.ar      1 RES1   0.0000
    86 C46      -1.2147    3.8304   -3.5053   C.ar      1 RES1   0.0000
    87 C47      -1.8443    2.6108   -3.5874   C.ar      1 RES1   0.0000
    88 C48      -1.5514    1.6485   -2.6181   C.ar      1 RES1   0.0000
    89 N5       -0.6818    1.8238   -1.6344   N.ar      1 RES1   0.0000
    90 C49      -0.0311    3.0055   -1.5540   C.ar      1 RES1   0.0000
    91 C50       0.9479    3.2119   -0.5017   C.ar      1 RES1   0.0000
    92 N6        1.2664    2.2022    0.3193   N.ar      1 RES1   0.0000
    93 H34       9.4270   -1.3748    2.7890   H         1 RES1   0.0000
    94 H35       8.1787   -1.0413    1.5948   H         1 RES1   0.0000
    95 H36       7.7501   -1.2872    3.2979   H         1 RES1   0.0000
    96 H37       9.5009    0.9978    2.2965   H         1 RES1   0.0000
    97 H38       8.8550    0.8085    3.9260   H         1 RES1   0.0000
    98 H39       7.1751    1.2086    1.4089   H         1 RES1   0.0000
    99 H40       7.6640    2.5022    2.5027   H         1 RES1   0.0000
   100 H41       6.4759    1.2564    4.3679   H         1 RES1   0.0000
   101 H42       5.7994    0.1883    3.1393   H         1 RES1   0.0000
   102 H43       4.8815    2.2103    1.9588   H         1 RES1   0.0000
   103 H44       5.4781    3.2062    3.2927   H         1 RES1   0.0000
   104 H45       3.2506    2.8619    4.0109   H         1 RES1   0.0000
   105 H46       4.1371    1.6066    4.8316   H         1 RES1   0.0000
   106 H47       1.6641   -0.0429    4.5278   H         1 RES1   0.0000
   107 H48       3.3745   -0.2031    4.9469   H         1 RES1   0.0000
   108 H49       2.0559   -1.6800    2.6404   H         1 RES1   0.0000
   109 H50       2.1622   -2.2636    4.2891   H         1 RES1   0.0000
   110 H51       4.0315   -3.3022    3.5109   H         1 RES1   0.0000
   111 H52       4.7933   -1.7716    3.8968   H         1 RES1   0.0000
   112 H53       4.6277   -1.0652    1.5367   H         1 RES1   0.0000
   113 H54       3.6317   -2.4665    1.1748   H         1 RES1   0.0000
   114 H55       6.5187   -2.6623    2.0975   H         1 RES1   0.0000
   115 H56       6.0076   -2.6478    0.4145   H         1 RES1   0.0000
   116 H57       5.4158   -4.7884    2.5026   H         1 RES1   0.0000
   117 H58       6.3397   -4.9407    1.0217   H         1 RES1   0.0000
   118 H59       4.5932   -4.7146    0.9444   H         1 RES1   0.0000
   119 H60       3.2805    3.8576    2.4283   H         1 RES1   0.0000
   120 H61       2.7049    5.6929    0.9452   H         1 RES1   0.0000
   121 H62       1.8215    6.4394   -1.2575   H         1 RES1   0.0000
   122 H63       0.2204    6.0446   -3.1029   H         1 RES1   0.0000
   123 H64      -1.4138    4.6161   -4.2206   H         1 RES1   0.0000
   124 H65      -2.5469    2.3762   -4.3743   H         1 RES1   0.0000
   125 H66      -2.0614    0.6908   -2.6592   H         1 RES1   0.0000
   126 C51       8.7444    2.0604   -2.2860   C.3       1 RES1   0.0000
   127 C52       9.0785    0.5847   -2.4472   C.3       1 RES1   0.0000
   128 C53       7.9399   -0.3356   -2.0058   C.3       1 RES1   0.0000
   129 C54       6.7324   -0.2968   -2.9407   C.3       1 RES1   0.0000
   130 C55       5.7261   -1.3896   -2.5848   C.3       1 RES1   0.0000
   131 C56       4.4577   -1.3115   -3.4446   C.3       1 RES1   0.0000
   132 N7        3.4406   -0.4118   -2.9091   N.am      1 RES1   0.0000
   133 C57       3.1691    0.7845   -3.7338   C.3       1 RES1   0.0000
   134 C58       2.9329    2.1367   -3.0511   C.3       1 RES1   0.0000
   135 C59       4.1939    2.9092   -2.6645   C.3       1 RES1   0.0000
   136 C60       4.7028    2.5978   -1.2580   C.3       1 RES1   0.0000
   137 C61       5.8462    3.5300   -0.8387   C.3       1 RES1   0.0000
   138 C62       5.3982    4.9025   -0.3544   C.3       1 RES1   0.0000
   139 C63       2.6007   -0.7105   -1.9123   C.2       1 RES1   0.0000
   140 O3        1.7054    0.0999   -1.5803   O.2       1 RES1   0.0000
   141 C64       2.5156   -2.0435   -1.1801   C.ar      1 RES1   0.0000
   142 C65       3.2551   -3.2166   -1.3940   C.ar      1 RES1   0.0000
   143 C66       2.8473   -4.3887   -0.7978   C.ar      1 RES1   0.0000
   144 C67       1.7777   -4.3959    0.1045   C.ar      1 RES1   0.0000
   145 C68       1.3692   -5.5653    0.8044   C.ar      1 RES1   0.0000
   146 C69       0.3885   -5.5019    1.7355   C.ar      1 RES1   0.0000
   147 C70      -0.2789   -4.2742    2.0182   C.ar      1 RES1   0.0000
   148 C71      -1.2911   -4.1889    2.9948   C.ar      1 RES1   0.0000
   149 C72      -1.8706   -2.9684    3.2557   C.ar      1 RES1   0.0000
   150 C73      -1.4431   -1.8600    2.5186   C.ar      1 RES1   0.0000
   151 N8       -0.5295   -1.9133    1.5627   N.ar      1 RES1   0.0000
   152 C74       0.0729   -3.0980    1.3137   C.ar      1 RES1   0.0000
   153 C75       1.1352   -3.1562    0.3317   C.ar      1 RES1   0.0000
   154 N9        1.4795   -2.0443   -0.3353   N.ar      1 RES1   0.0000
   155 H67       9.6058    2.6724   -2.5317   H         1 RES1   0.0000
   156 H68       8.4610    2.2716   -1.2579   H         1 RES1   0.0000
   157 H69       7.9317    2.3509   -2.9465   H         1 RES1   0.0000
   158 H70       9.9550    0.3549   -1.8401   H         1 RES1   0.0000
   159 H71       9.3299    0.3770   -3.4889   H         1 RES1   0.0000
   160 H72       7.6246   -0.0619   -0.9955   H         1 RES1   0.0000
   161 H73       8.3144   -1.3602   -1.9648   H         1 RES1   0.0000
   162 H74       7.0782   -0.4404   -3.9651   H         1 RES1   0.0000
   163 H75       6.2482    0.6767   -2.8874   H         1 RES1   0.0000
   164 H76       5.4698   -1.3135   -1.5255   H         1 RES1   0.0000
   165 H77       6.2011   -2.3566   -2.7548   H         1 RES1   0.0000
   166 H78       4.0150   -2.2954   -3.6111   H         1 RES1   0.0000
   167 H79       4.7425   -0.9448   -4.4298   H         1 RES1   0.0000
   168 H80       2.2823    0.5495   -4.3332   H         1 RES1   0.0000
   169 H81       4.0088    0.9040   -4.4179   H         1 RES1   0.0000
   170 H82       2.3151    1.9926   -2.1722   H         1 RES1   0.0000
   171 H83       2.3570    2.7357   -3.7591   H         1 RES1   0.0000
   172 H84       3.9789    3.9771   -2.7214   H         1 RES1   0.0000
   173 H85       4.9830    2.7051   -3.3879   H         1 RES1   0.0000
   174 H86       5.0532    1.5644   -1.2087   H         1 RES1   0.0000
   175 H87       3.8795    2.6861   -0.5462   H         1 RES1   0.0000
   176 H88       6.5154    3.6647   -1.6868   H         1 RES1   0.0000
   177 H89       6.4108    3.0563   -0.0332   H         1 RES1   0.0000
   178 H90       4.7375    5.3836   -1.0703   H         1 RES1   0.0000
   179 H91       6.2640    5.5428   -0.2166   H         1 RES1   0.0000
   180 H92       4.8904    4.8210    0.6017   H         1 RES1   0.0000
   181 H93       4.1490   -3.2364   -1.9830   H         1 RES1   0.0000
   182 H94       3.3578   -5.3130   -1.0062   H         1 RES1   0.0000
   183 H95       1.8700   -6.4953    0.5863   H         1 RES1   0.0000
   184 H96       0.0867   -6.3754    2.2913   H         1 RES1   0.0000
   185 H97      -1.5768   -5.0767    3.5418   H         1 RES1   0.0000
   186 H98      -2.6306   -2.8459    4.0145   H         1 RES1   0.0000
   187 H99      -1.8599   -0.8794    2.7323   H         1 RES1   0.0000
@<TRIPOS>BOND
     1     1    16    1
     2     1    27    1
     3     1    30    1
     4     1    78    1
     5     1    89    1
     6     1    92    1
     7     1   140    1
     8     1   151    1
     9     1   154    1
    10     2     3    1
    11     2    31    1
    12     2    32    1
    13     2    33    1
    14     3     4    1
    15     3    34    1
    16     3    35    1
    17     4     5    1
    18     4    36    1
    19     4    37    1
    20     5     6    1
    21     5    38    1
    22     5    39    1
    23     6     7    1
    24     6    40    1
    25     6    41    1
    26     7     8    1
    27     7    42    1
    28     7    43    1
    29     8     9    1
    30     8    15    1
    31     9    10    1
    32     9    44    1
    33     9    45    1
    34    10    11    1
    35    10    46    1
    36    10    47    1
    37    11    12    1
    38    11    48    1
    39    11    49    1
    40    12    13    1
    41    12    50    1
    42    12    51    1
    43    13    14    1
    44    13    52    1
    45    13    53    1
    46    14    54    1
    47    14    55    1
    48    14    56    1
    49    15    16    2
    50    15    17    1
    51    17    18    1
    52    17    30    2
    53    18    19    2
    54    18    57    1
    55    19    20    1
    56    19    58    1
    57    20    21    1
    58    20    29    2
    59    21    22    2
    60    21    59    1
    61    22    23    1
    62    22    60    1
    63    23    24    1
    64    23    28    2
    65    24    25    2
    66    24    61    1
    67    25    26    1
    68    25    62    1
    69    26    27    2
    70    26    63    1
    71    27    28    1
    72    28    29    1
    73    29    30    1
    74    64    65    1
    75    64    93    1
    76    64    94    1
    77    64    95    1
    78    65    66    1
    79    65    96    1
    80    65    97    1
    81    66    67    1
    82    66    98    1
    83    66    99    1
    84    67    68    1
    85    67   100    1
    86    67   101    1
    87    68    69    1
    88    68   102    1
    89    68   103    1
    90    69    70    1
    91    69   104    1
    92    69   105    1
    93    70    71    1
    94    70    77    1
    95    71    72    1
    96    71   106    1
    97    71   107    1
    98    72    73    1
    99    72   108    1
   100    72   109    1
   101    73    74    1
   102    73   110    1
   103    73   111    1
   104    74    75    1
   105    74   112    1
   106    74   113    1
   107    75    76    1
   108    75   114    1
   109    75   115    1
   110    76   116    1
   111    76   117    1
   112    76   118    1
   113    77    78    2
   114    77    79    1
   115    79    80    1
   116    79    92    2
   117    80    81    2
   118    80   119    1
   119    81    82    1
   120    81   120    1
   121    82    83    1
   122    82    91    2
   123    83    84    2
   124    83   121    1
   125    84    85    1
   126    84   122    1
   127    85    86    1
   128    85    90    2
   129    86    87    2
   130    86   123    1
   131    87    88    1
   132    87   124    1
   133    88    89    2
   134    88   125    1
   135    89    90    1
   136    90    91    1
   137    91    92    1
   138   126   127    1
   139   126   155    1
   140   126   156    1
   141   126   157    1
   142   127   128    1
   143   127   158    1
   144   127   159    1
   145   128   129    1
   146   128   160    1
   147   128   161    1
   148   129   130    1
   149   129   162    1
   150   129   163    1
   151   130   131    1
   152   130   164    1
   153   130   165    1
   154   131   132    1
   155   131   166    1
   156   131   167    1
   157   132   133    1
   158   132   139    1
   159   133   134    1
   160   133   168    1
   161   133   169    1
   162   134   135    1
   163   134   170    1
   164   134   171    1
   165   135   136    1
   166   135   172    1
   167   135   173    1
   168   136   137    1
   169   136   174    1
   170   136   175    1
   171   137   138    1
   172   137   176    1
   173   137   177    1
   174   138   178    1
   175   138   179    1
   176   138   180    1
   177   139   140    2
   178   139   141    1
   179   141   142    1
   180   141   154    2
   181   142   143    2
   182   142   181    1
   183   143   144    1
   184   143   182    1
   185   144   145    1
   186   144   153    2
   187   145   146    2
   188   145   183    1
   189   146   147    1
   190   146   184    1
   191   147   148    1
   192   147   152    2
   193   148   149    2
   194   148   185    1
   195   149   150    1
   196   149   186    1
   197   150   151    2
   198   150   187    1
   199   151   152    1
   200   152   153    1
   201   153   154    1
@<TRIPOS>SUBSTRUCTURE
     1 RES1      187 GROUP             0 ****  ****    0  
