@<TRIPOS>MOLECULE
tri_tri_mer_capped_0_nunpairedes_0_charge_3 Charge: 3 Unpaired_Electrons: 6 XTB_Unpaired_Electrons: 0 XTB_Charge: 3
   235   243     1     0     0
SMALL
NoCharges
****
Generated from Architector

@<TRIPOS>ATOM
     1 Eu1       0.1804    0.2888    0.1561   Eu        1 RES1   0.0000
     2 C1       -2.5517    7.7604    2.8309   C.3       1 RES1   0.0000
     3 C2       -1.8125    7.0924    3.9852   C.3       1 RES1   0.0000
     4 C3       -0.4564    7.7490    4.2535   C.3       1 RES1   0.0000
     5 C4        0.3658    7.0174    5.3240   C.3       1 RES1   0.0000
     6 C5        1.1489    5.8105    4.7853   C.3       1 RES1   0.0000
     7 C6        1.3514    4.7583    5.8789   C.3       1 RES1   0.0000
     8 C7        2.0025    3.4537    5.4023   C.3       1 RES1   0.0000
     9 C8        1.1432    2.7727    4.3288   C.3       1 RES1   0.0000
    10 N1        0.9725    1.3176    4.3974   N.am      1 RES1   0.0000
    11 C9        0.3661    0.8153    5.6260   C.3       1 RES1   0.0000
    12 C10      -1.1518    1.0595    5.6562   C.3       1 RES1   0.0000
    13 C11      -1.7842    0.5337    6.9507   C.3       1 RES1   0.0000
    14 C12      -3.0897    1.2547    7.3376   C.3       1 RES1   0.0000
    15 C13      -4.3633    0.4317    7.1319   C.3       1 RES1   0.0000
    16 C14      -4.8685    0.2702    5.6952   C.3       1 RES1   0.0000
    17 C15      -5.4560    1.5407    5.0629   C.3       1 RES1   0.0000
    18 C16      -4.4485    2.3037    4.2139   C.3       1 RES1   0.0000
    19 C17       0.9826    0.6247    3.2642   C.2       1 RES1   0.0000
    20 O1        1.1535    1.1254    2.1311   O.2       1 RES1   0.0000
    21 C18       0.7925   -0.9000    3.3474   C.3       1 RES1   0.0000
    22 O2        0.6917   -1.4359    2.0307   O.3       1 RES1   0.0000
    23 C19       1.6641   -2.3945    1.6429   C.3       1 RES1   0.0000
    24 C20       2.5875   -1.8236    0.5383   C.2       1 RES1   0.0000
    25 O3        2.2936   -0.7352    0.0116   O.2       1 RES1   0.0000
    26 N2        3.6446   -2.5381    0.1745   N.am      1 RES1   0.0000
    27 C21       4.5729   -2.0294   -0.8321   C.3       1 RES1   0.0000
    28 C22       4.8140   -3.0587   -1.9346   C.3       1 RES1   0.0000
    29 C23       5.3456   -4.3512   -1.3267   C.3       1 RES1   0.0000
    30 C24       4.3540   -4.8596   -0.2894   C.3       1 RES1   0.0000
    31 C25       4.0831   -3.7911    0.7721   C.3       1 RES1   0.0000
    32 H1       -3.4895    7.2468    2.6312   H         1 RES1   0.0000
    33 H2       -2.7683    8.7995    3.0650   H         1 RES1   0.0000
    34 H3       -1.9506    7.7376    1.9239   H         1 RES1   0.0000
    35 H4       -2.4194    7.1640    4.8909   H         1 RES1   0.0000
    36 H5       -1.6769    6.0309    3.7608   H         1 RES1   0.0000
    37 H6        0.1169    7.8137    3.3244   H         1 RES1   0.0000
    38 H7       -0.6417    8.7695    4.5919   H         1 RES1   0.0000
    39 H8        1.0623    7.7212    5.7819   H         1 RES1   0.0000
    40 H9       -0.3157    6.6795    6.1093   H         1 RES1   0.0000
    41 H10       0.5927    5.3691    3.9594   H         1 RES1   0.0000
    42 H11       2.1109    6.1429    4.3883   H         1 RES1   0.0000
    43 H12       1.9698    5.1813    6.6711   H         1 RES1   0.0000
    44 H13       0.3742    4.5166    6.3069   H         1 RES1   0.0000
    45 H14       2.9933    3.6605    5.0020   H         1 RES1   0.0000
    46 H15       2.1436    2.7983    6.2594   H         1 RES1   0.0000
    47 H16       0.1393    3.1946    4.3785   H         1 RES1   0.0000
    48 H17       1.5722    2.9682    3.3493   H         1 RES1   0.0000
    49 H18       0.5817   -0.2438    5.7448   H         1 RES1   0.0000
    50 H19       0.7966    1.3448    6.4785   H         1 RES1   0.0000
    51 H20      -1.3186    2.1368    5.6210   H         1 RES1   0.0000
    52 H21      -1.6352    0.6125    4.7830   H         1 RES1   0.0000
    53 H22      -1.9724   -0.5400    6.8914   H         1 RES1   0.0000
    54 H23      -1.0674    0.6796    7.7581   H         1 RES1   0.0000
    55 H24      -3.0485    1.5042    8.3982   H         1 RES1   0.0000
    56 H25      -3.1639    2.2024    6.8091   H         1 RES1   0.0000
    57 H26      -4.1911   -0.5634    7.5502   H         1 RES1   0.0000
    58 H27      -5.1628    0.8870    7.7186   H         1 RES1   0.0000
    59 H28      -4.0630   -0.1061    5.0598   H         1 RES1   0.0000
    60 H29      -5.6520   -0.4931    5.7280   H         1 RES1   0.0000
    61 H30      -6.2866    1.2584    4.4126   H         1 RES1   0.0000
    62 H31      -5.8653    2.1835    5.8426   H         1 RES1   0.0000
    63 H32      -4.0265    1.6344    3.4651   H         1 RES1   0.0000
    64 H33      -4.9356    3.1304    3.7039   H         1 RES1   0.0000
    65 H34      -3.6399    2.7085    4.8142   H         1 RES1   0.0000
    66 H35       1.6170   -1.3778    3.8880   H         1 RES1   0.0000
    67 H36      -0.1485   -1.1081    3.8680   H         1 RES1   0.0000
    68 H37       2.2453   -2.7314    2.5092   H         1 RES1   0.0000
    69 H38       1.1108   -3.2460    1.2156   H         1 RES1   0.0000
    70 H39       4.1487   -1.1084   -1.2318   H         1 RES1   0.0000
    71 H40       5.5231   -1.8011   -0.3389   H         1 RES1   0.0000
    72 H41       3.8772   -3.2505   -2.4623   H         1 RES1   0.0000
    73 H42       5.5275   -2.6492   -2.6510   H         1 RES1   0.0000
    74 H43       5.5049   -5.0994   -2.1028   H         1 RES1   0.0000
    75 H44       6.3046   -4.1552   -0.8483   H         1 RES1   0.0000
    76 H45       3.4190   -5.1340   -0.7773   H         1 RES1   0.0000
    77 H46       4.7464   -5.7484    0.2031   H         1 RES1   0.0000
    78 H47       3.3289   -4.1601    1.4607   H         1 RES1   0.0000
    79 H48       5.0108   -3.6034    1.3224   H         1 RES1   0.0000
    80 C26       6.6307    0.2239    1.9352   C.3       1 RES1   0.0000
    81 C27       5.1813    0.6700    2.0964   C.3       1 RES1   0.0000
    82 C28       4.7528    1.6831    1.0286   C.3       1 RES1   0.0000
    83 C29       5.4933    3.0173    1.1634   C.3       1 RES1   0.0000
    84 C30       4.8935    4.1758    0.3604   C.3       1 RES1   0.0000
    85 C31       5.1154    4.0944   -1.1532   C.3       1 RES1   0.0000
    86 C32       4.0564    3.3103   -1.9288   C.3       1 RES1   0.0000
    87 C33       2.7008    4.0258   -2.0200   C.3       1 RES1   0.0000
    88 N3        1.7962    3.1908   -2.8211   N.am      1 RES1   0.0000
    89 C34       1.4554    3.6147   -4.1820   C.3       1 RES1   0.0000
    90 C35       0.7355    4.9826   -4.2896   C.3       1 RES1   0.0000
    91 C36      -0.1475    5.0444   -5.5515   C.3       1 RES1   0.0000
    92 C37      -1.0629    6.2789   -5.7108   C.3       1 RES1   0.0000
    93 C38      -2.4520    6.3587   -5.0400   C.3       1 RES1   0.0000
    94 C39      -3.5070    5.3179   -5.4320   C.3       1 RES1   0.0000
    95 C40      -4.9383    5.7219   -5.0317   C.3       1 RES1   0.0000
    96 C41      -5.2638    5.7140   -3.5398   C.3       1 RES1   0.0000
    97 C42       1.4619    2.0255   -2.2560   C.2       1 RES1   0.0000
    98 O4        1.4250    1.8654   -1.0215   O.2       1 RES1   0.0000
    99 C43       1.2187    0.7698   -3.1052   C.3       1 RES1   0.0000
   100 O5        0.0769    0.1158   -2.5584   O.3       1 RES1   0.0000
   101 C44      -0.2502   -1.1069   -3.2115   C.3       1 RES1   0.0000
   102 C45       0.0519   -2.2740   -2.2639   C.2       1 RES1   0.0000
   103 O6        0.2056   -2.0167   -1.0530   O.2       1 RES1   0.0000
   104 N4        0.1378   -3.5052   -2.7576   N.am      1 RES1   0.0000
   105 C46      -0.1041   -3.9251   -4.1317   C.3       1 RES1   0.0000
   106 C47      -1.1250   -5.0666   -4.1829   C.3       1 RES1   0.0000
   107 C48      -0.6500   -6.2523   -3.3547   C.3       1 RES1   0.0000
   108 C49      -0.3881   -5.7861   -1.9281   C.3       1 RES1   0.0000
   109 C50       0.5971   -4.6170   -1.9304   C.3       1 RES1   0.0000
   110 H49       6.8635   -0.5828    2.6250   H         1 RES1   0.0000
   111 H50       7.3116    1.0433    2.1432   H         1 RES1   0.0000
   112 H51       6.8120   -0.1222    0.9193   H         1 RES1   0.0000
   113 H52       5.0431    1.1087    3.0883   H         1 RES1   0.0000
   114 H53       4.5172   -0.2007    2.0269   H         1 RES1   0.0000
   115 H54       3.6704    1.8542    1.1147   H         1 RES1   0.0000
   116 H55       4.9447    1.2433    0.0452   H         1 RES1   0.0000
   117 H56       6.5358    2.8920    0.8661   H         1 RES1   0.0000
   118 H57       5.4901    3.3018    2.2195   H         1 RES1   0.0000
   119 H58       5.3697    5.0904    0.7159   H         1 RES1   0.0000
   120 H59       3.8291    4.2577    0.5840   H         1 RES1   0.0000
   121 H60       6.0874    3.6321   -1.3364   H         1 RES1   0.0000
   122 H61       5.1555    5.1031   -1.5665   H         1 RES1   0.0000
   123 H62       3.9101    2.3321   -1.4684   H         1 RES1   0.0000
   124 H63       4.4209    3.1555   -2.9465   H         1 RES1   0.0000
   125 H64       2.8144    4.9974   -2.4992   H         1 RES1   0.0000
   126 H65       2.2792    4.1513   -1.0215   H         1 RES1   0.0000
   127 H66       0.7703    2.8733   -4.5830   H         1 RES1   0.0000
   128 H67       2.3529    3.6293   -4.8042   H         1 RES1   0.0000
   129 H68       1.4532    5.8003   -4.3161   H         1 RES1   0.0000
   130 H69       0.1056    5.1356   -3.4260   H         1 RES1   0.0000
   131 H70      -0.7697    4.1524   -5.6002   H         1 RES1   0.0000
   132 H71       0.5071    5.0197   -6.4253   H         1 RES1   0.0000
   133 H72      -1.2406    6.3961   -6.7811   H         1 RES1   0.0000
   134 H73      -0.5098    7.1605   -5.3846   H         1 RES1   0.0000
   135 H74      -2.8437    7.3374   -5.3302   H         1 RES1   0.0000
   136 H75      -2.3698    6.3632   -3.9595   H         1 RES1   0.0000
   137 H76      -3.2827    4.3500   -4.9808   H         1 RES1   0.0000
   138 H77      -3.4970    5.1837   -6.5159   H         1 RES1   0.0000
   139 H78      -5.6337    5.0432   -5.5302   H         1 RES1   0.0000
   140 H79      -5.1390    6.7191   -5.4201   H         1 RES1   0.0000
   141 H80      -5.0876    4.7342   -3.0960   H         1 RES1   0.0000
   142 H81      -6.3169    5.9422   -3.3970   H         1 RES1   0.0000
   143 H82      -4.6954    6.4675   -3.0002   H         1 RES1   0.0000
   144 H83       2.1084    0.1304   -2.9738   H         1 RES1   0.0000
   145 H84       1.1082    0.9584   -4.1806   H         1 RES1   0.0000
   146 H85       0.2929   -1.1878   -4.1569   H         1 RES1   0.0000
   147 H86      -1.3248   -1.0795   -3.4244   H         1 RES1   0.0000
   148 H87       0.8401   -4.2816   -4.5589   H         1 RES1   0.0000
   149 H88      -0.4672   -3.0897   -4.7215   H         1 RES1   0.0000
   150 H89      -1.2703   -5.3637   -5.2208   H         1 RES1   0.0000
   151 H90      -2.0813   -4.7132   -3.7986   H         1 RES1   0.0000
   152 H91       0.2700   -6.6496   -3.7810   H         1 RES1   0.0000
   153 H92      -1.3964   -7.0456   -3.3565   H         1 RES1   0.0000
   154 H93       0.0272   -6.5954   -1.3250   H         1 RES1   0.0000
   155 H94      -1.3232   -5.4676   -1.4658   H         1 RES1   0.0000
   156 H95       1.5520   -4.9618   -2.3460   H         1 RES1   0.0000
   157 H96       0.7571   -4.2329   -0.9228   H         1 RES1   0.0000
   158 C51      -1.8225    2.7267    2.2784   C.3       1 RES1   0.0000
   159 C52      -0.7551    3.7884    2.0682   C.3       1 RES1   0.0000
   160 C53      -1.0532    4.5806    0.8188   C.3       1 RES1   0.0000
   161 C54      -0.0677    5.6936    0.5043   C.3       1 RES1   0.0000
   162 C55      -0.1143    5.9422   -0.9959   C.3       1 RES1   0.0000
   163 C56      -1.5275    6.0282   -1.5802   C.3       1 RES1   0.0000
   164 C57      -2.3542    4.7468   -1.8443   C.3       1 RES1   0.0000
   165 C58      -1.6616    3.6256   -2.6329   C.3       1 RES1   0.0000
   166 N5       -2.4446    2.3832   -2.5909   N.am      1 RES1   0.0000
   167 C59      -3.0423    1.9098   -3.8348   C.3       1 RES1   0.0000
   168 C60      -1.9342    1.6970   -4.8742   C.3       1 RES1   0.0000
   169 C61      -2.3262    0.8228   -6.0648   C.3       1 RES1   0.0000
   170 C62      -1.3513    0.9862   -7.2415   C.3       1 RES1   0.0000
   171 C63       0.0798    0.4879   -7.0077   C.3       1 RES1   0.0000
   172 C64       0.2006   -1.0373   -7.0024   C.3       1 RES1   0.0000
   173 C65       1.6475   -1.5432   -7.0519   C.3       1 RES1   0.0000
   174 C66       2.5026   -1.2359   -5.8257   C.3       1 RES1   0.0000
   175 C67      -2.2627    1.6098   -1.5315   C.2       1 RES1   0.0000
   176 O7       -1.3331    1.7956   -0.7152   O.2       1 RES1   0.0000
   177 C68      -3.1979    0.4523   -1.1970   C.3       1 RES1   0.0000
   178 O8       -2.3275   -0.6697   -1.0662   O.3       1 RES1   0.0000
   179 C69      -2.8648   -1.7452   -0.3204   C.3       1 RES1   0.0000
   180 C70      -2.5688   -1.5273    1.1733   C.2       1 RES1   0.0000
   181 O9       -1.7948   -0.5958    1.4826   O.2       1 RES1   0.0000
   182 N6       -3.1639   -2.3151    2.0533   N.am      1 RES1   0.0000
   183 C71      -3.9989   -3.4690    1.7574   C.3       1 RES1   0.0000
   184 C72      -3.3606   -4.7436    2.3170   C.3       1 RES1   0.0000
   185 C73      -3.1306   -4.6097    3.8173   C.3       1 RES1   0.0000
   186 C74      -2.2912   -3.3676    4.0947   C.3       1 RES1   0.0000
   187 C75      -2.9690   -2.1415    3.4853   C.3       1 RES1   0.0000
   188 H97      -1.6910    2.2173    3.2254   H         1 RES1   0.0000
   189 H98      -2.7963    3.2099    2.2806   H         1 RES1   0.0000
   190 H99      -1.7913    1.9759    1.4813   H         1 RES1   0.0000
   191 H100     -0.7401    4.4583    2.9272   H         1 RES1   0.0000
   192 H101      0.2229    3.3242    1.9369   H         1 RES1   0.0000
   193 H102     -1.0239    3.8660   -0.0023   H         1 RES1   0.0000
   194 H103     -2.0449    5.0281    0.8995   H         1 RES1   0.0000
   195 H104     -0.3217    6.5971    1.0552   H         1 RES1   0.0000
   196 H105      0.9452    5.4167    0.8017   H         1 RES1   0.0000
   197 H106      0.3923    6.8809   -1.2223   H         1 RES1   0.0000
   198 H107      0.4224    5.1346   -1.4855   H         1 RES1   0.0000
   199 H108     -2.1402    6.6558   -0.9344   H         1 RES1   0.0000
   200 H109     -1.4315    6.5648   -2.5231   H         1 RES1   0.0000
   201 H110     -2.7503    4.3239   -0.9244   H         1 RES1   0.0000
   202 H111     -3.2142    5.0646   -2.4264   H         1 RES1   0.0000
   203 H112     -1.5732    3.9325   -3.6669   H         1 RES1   0.0000
   204 H113     -0.6770    3.4008   -2.2137   H         1 RES1   0.0000
   205 H114     -3.5496    0.9615   -3.6776   H         1 RES1   0.0000
   206 H115     -3.7766    2.6265   -4.2043   H         1 RES1   0.0000
   207 H116     -1.6345    2.6548   -5.2904   H         1 RES1   0.0000
   208 H117     -1.0778    1.2691   -4.3581   H         1 RES1   0.0000
   209 H118     -2.3870   -0.2267   -5.7734   H         1 RES1   0.0000
   210 H119     -3.3099    1.1273   -6.4231   H         1 RES1   0.0000
   211 H120     -1.7543    0.4602   -8.1093   H         1 RES1   0.0000
   212 H121     -1.3037    2.0448   -7.5072   H         1 RES1   0.0000
   213 H122      0.7078    0.8705   -7.8154   H         1 RES1   0.0000
   214 H123      0.4719    0.9070   -6.0768   H         1 RES1   0.0000
   215 H124     -0.3233   -1.4531   -6.1349   H         1 RES1   0.0000
   216 H125     -0.3084   -1.4161   -7.8918   H         1 RES1   0.0000
   217 H126      1.6257   -2.6241   -7.2002   H         1 RES1   0.0000
   218 H127      2.1278   -1.1078   -7.9290   H         1 RES1   0.0000
   219 H128      2.0964   -1.7017   -4.9272   H         1 RES1   0.0000
   220 H129      3.5021   -1.6344   -5.9757   H         1 RES1   0.0000
   221 H130      2.5913   -0.1638   -5.6685   H         1 RES1   0.0000
   222 H131     -3.6518    0.7044   -0.2258   H         1 RES1   0.0000
   223 H132     -3.9996    0.2598   -1.9226   H         1 RES1   0.0000
   224 H133     -3.9348   -1.8700   -0.5347   H         1 RES1   0.0000
   225 H134     -2.3155   -2.6280   -0.6608   H         1 RES1   0.0000
   226 H135     -4.9702   -3.3226    2.2406   H         1 RES1   0.0000
   227 H136     -4.1463   -3.5653    0.6858   H         1 RES1   0.0000
   228 H137     -4.0182   -5.5860    2.1101   H         1 RES1   0.0000
   229 H138     -2.4125   -4.9297    1.8120   H         1 RES1   0.0000
   230 H139     -4.0916   -4.5121    4.3197   H         1 RES1   0.0000
   231 H140     -2.6338   -5.4972    4.2086   H         1 RES1   0.0000
   232 H141     -2.1743   -3.2173    5.1683   H         1 RES1   0.0000
   233 H142     -1.2992   -3.4849    3.6556   H         1 RES1   0.0000
   234 H143     -3.9526   -2.0103    3.9465   H         1 RES1   0.0000
   235 H144     -2.3781   -1.2371    3.6312   H         1 RES1   0.0000
@<TRIPOS>BOND
     1     1    20    1
     2     1    22    1
     3     1    25    1
     4     1    98    1
     5     1   100    1
     6     1   103    1
     7     1   176    1
     8     1   178    1
     9     1   181    1
    10     2     3    1
    11     2    32    1
    12     2    33    1
    13     2    34    1
    14     3     4    1
    15     3    35    1
    16     3    36    1
    17     4     5    1
    18     4    37    1
    19     4    38    1
    20     5     6    1
    21     5    39    1
    22     5    40    1
    23     6     7    1
    24     6    41    1
    25     6    42    1
    26     7     8    1
    27     7    43    1
    28     7    44    1
    29     8     9    1
    30     8    45    1
    31     8    46    1
    32     9    10    1
    33     9    47    1
    34     9    48    1
    35    10    11    1
    36    10    19    1
    37    11    12    1
    38    11    49    1
    39    11    50    1
    40    12    13    1
    41    12    51    1
    42    12    52    1
    43    13    14    1
    44    13    53    1
    45    13    54    1
    46    14    15    1
    47    14    55    1
    48    14    56    1
    49    15    16    1
    50    15    57    1
    51    15    58    1
    52    16    17    1
    53    16    59    1
    54    16    60    1
    55    17    18    1
    56    17    61    1
    57    17    62    1
    58    18    63    1
    59    18    64    1
    60    18    65    1
    61    19    20    2
    62    19    21    1
    63    21    22    1
    64    21    66    1
    65    21    67    1
    66    22    23    1
    67    23    24    1
    68    23    68    1
    69    23    69    1
    70    24    25    2
    71    24    26    1
    72    26    27    1
    73    26    31    1
    74    27    28    1
    75    27    70    1
    76    27    71    1
    77    28    29    1
    78    28    72    1
    79    28    73    1
    80    29    30    1
    81    29    74    1
    82    29    75    1
    83    30    31    1
    84    30    76    1
    85    30    77    1
    86    31    78    1
    87    31    79    1
    88    80    81    1
    89    80   110    1
    90    80   111    1
    91    80   112    1
    92    81    82    1
    93    81   113    1
    94    81   114    1
    95    82    83    1
    96    82   115    1
    97    82   116    1
    98    83    84    1
    99    83   117    1
   100    83   118    1
   101    84    85    1
   102    84   119    1
   103    84   120    1
   104    85    86    1
   105    85   121    1
   106    85   122    1
   107    86    87    1
   108    86   123    1
   109    86   124    1
   110    87    88    1
   111    87   125    1
   112    87   126    1
   113    88    89    1
   114    88    97    1
   115    89    90    1
   116    89   127    1
   117    89   128    1
   118    90    91    1
   119    90   129    1
   120    90   130    1
   121    91    92    1
   122    91   131    1
   123    91   132    1
   124    92    93    1
   125    92   133    1
   126    92   134    1
   127    93    94    1
   128    93   135    1
   129    93   136    1
   130    94    95    1
   131    94   137    1
   132    94   138    1
   133    95    96    1
   134    95   139    1
   135    95   140    1
   136    96   141    1
   137    96   142    1
   138    96   143    1
   139    97    98    2
   140    97    99    1
   141    99   100    1
   142    99   144    1
   143    99   145    1
   144   100   101    1
   145   101   102    1
   146   101   146    1
   147   101   147    1
   148   102   103    2
   149   102   104    1
   150   104   105    1
   151   104   109    1
   152   105   106    1
   153   105   148    1
   154   105   149    1
   155   106   107    1
   156   106   150    1
   157   106   151    1
   158   107   108    1
   159   107   152    1
   160   107   153    1
   161   108   109    1
   162   108   154    1
   163   108   155    1
   164   109   156    1
   165   109   157    1
   166   158   159    1
   167   158   188    1
   168   158   189    1
   169   158   190    1
   170   159   160    1
   171   159   191    1
   172   159   192    1
   173   160   161    1
   174   160   193    1
   175   160   194    1
   176   161   162    1
   177   161   195    1
   178   161   196    1
   179   162   163    1
   180   162   197    1
   181   162   198    1
   182   163   164    1
   183   163   199    1
   184   163   200    1
   185   164   165    1
   186   164   201    1
   187   164   202    1
   188   165   166    1
   189   165   203    1
   190   165   204    1
   191   166   167    1
   192   166   175    1
   193   167   168    1
   194   167   205    1
   195   167   206    1
   196   168   169    1
   197   168   207    1
   198   168   208    1
   199   169   170    1
   200   169   209    1
   201   169   210    1
   202   170   171    1
   203   170   211    1
   204   170   212    1
   205   171   172    1
   206   171   213    1
   207   171   214    1
   208   172   173    1
   209   172   215    1
   210   172   216    1
   211   173   174    1
   212   173   217    1
   213   173   218    1
   214   174   219    1
   215   174   220    1
   216   174   221    1
   217   175   176    2
   218   175   177    1
   219   177   178    1
   220   177   222    1
   221   177   223    1
   222   178   179    1
   223   179   180    1
   224   179   224    1
   225   179   225    1
   226   180   181    2
   227   180   182    1
   228   182   183    1
   229   182   187    1
   230   183   184    1
   231   183   226    1
   232   183   227    1
   233   184   185    1
   234   184   228    1
   235   184   229    1
   236   185   186    1
   237   185   230    1
   238   185   231    1
   239   186   187    1
   240   186   232    1
   241   186   233    1
   242   187   234    1
   243   187   235    1
@<TRIPOS>SUBSTRUCTURE
     1 RES1      235 GROUP             0 ****  ****    0  
