@<TRIPOS>MOLECULE
cn9_YICLED_0_nunpairedes_0_charge_3 Charge: 3 Unpaired_Electrons: 6 XTB_Unpaired_Electrons: 0 XTB_Charge: 3
   180   191     1     0     0
SMALL
NoCharges
****
Generated from Architector

@<TRIPOS>ATOM
     1 Eu1      -0.1066    0.2803   -0.2340   Eu        1 RES1   0.0000
     2 C1        3.9142   -7.6290   -1.2357   C.3       1 RES1   0.0000
     3 C2        4.3627   -6.1754   -1.3133   C.3       1 RES1   0.0000
     4 C3        4.7420   -5.6557    0.0724   C.3       1 RES1   0.0000
     5 C4        5.3522   -4.2533    0.0783   C.3       1 RES1   0.0000
     6 C5        4.3936   -3.1781   -0.4752   C.3       1 RES1   0.0000
     7 C6        4.7066   -2.8472   -1.9410   C.3       1 RES1   0.0000
     8 C7        3.6471   -2.0921   -2.7610   C.3       1 RES1   0.0000
     9 C8        2.4310   -2.9315   -3.1966   C.3       1 RES1   0.0000
    10 O1        1.4494   -3.1570   -2.1634   O.3       1 RES1   0.0000
    11 C9        0.2971   -2.5103   -2.0787   C.ar      1 RES1   0.0000
    12 C10      -0.1887   -1.5470   -2.9850   C.ar      1 RES1   0.0000
    13 C11      -1.3315   -0.8296   -2.6412   C.ar      1 RES1   0.0000
    14 C12      -1.5132    0.5854   -3.1089   C.2       1 RES1   0.0000
    15 O2       -0.8841    1.3414   -2.3026   O.2       1 RES1   0.0000
    16 N1       -2.1727    1.0226   -4.1537   N.am      1 RES1   0.0000
    17 C13      -3.1885    0.4416   -4.9538   C.ar      1 RES1   0.0000
    18 C14      -3.6345    1.1768   -6.0524   C.ar      1 RES1   0.0000
    19 C15      -4.7120    0.7334   -6.7889   C.ar      1 RES1   0.0000
    20 C16      -5.4037   -0.4400   -6.4723   C.ar      1 RES1   0.0000
    21 C17      -6.5936   -0.8668   -7.3155   C.3       1 RES1   0.0000
    22 C18      -7.2994   -2.1201   -6.7884   C.3       1 RES1   0.0000
    23 C19      -7.6268    0.2714   -7.3552   C.3       1 RES1   0.0000
    24 C20      -6.0909   -1.1687   -8.7376   C.3       1 RES1   0.0000
    25 C21      -4.9294   -1.1624   -5.3774   C.ar      1 RES1   0.0000
    26 C22      -3.8415   -0.7423   -4.6298   C.ar      1 RES1   0.0000
    27 N2       -1.9930   -1.0235   -1.5064   N.ar      1 RES1   0.0000
    28 C23      -1.5796   -1.9630   -0.6404   C.ar      1 RES1   0.0000
    29 C24      -2.2120   -1.6027    0.6890   C.2       1 RES1   0.0000
    30 O3       -2.0110   -0.3902    0.9646   O.2       1 RES1   0.0000
    31 N3       -2.9195   -2.4415    1.4169   N.am      1 RES1   0.0000
    32 C25      -3.6027   -2.1244    2.6266   C.ar      1 RES1   0.0000
    33 C26      -3.0937   -1.1897    3.5200   C.ar      1 RES1   0.0000
    34 C27      -3.8134   -0.8262    4.6431   C.ar      1 RES1   0.0000
    35 C28      -5.0909   -1.3295    4.8815   C.ar      1 RES1   0.0000
    36 C29      -5.9906   -0.7844    5.9770   C.3       1 RES1   0.0000
    37 C30      -5.3381    0.3269    6.8112   C.3       1 RES1   0.0000
    38 C31      -6.4320   -1.9111    6.9228   C.3       1 RES1   0.0000
    39 C32      -7.2358   -0.1847    5.2977   C.3       1 RES1   0.0000
    40 C33      -5.5511   -2.3268    4.0131   C.ar      1 RES1   0.0000
    41 C34      -4.8176   -2.7422    2.9173   C.ar      1 RES1   0.0000
    42 C35      -0.4591   -2.7430   -0.8858   C.ar      1 RES1   0.0000
    43 H1        3.6122   -7.9931   -2.2134   H         1 RES1   0.0000
    44 H2        3.0755   -7.7267   -0.5501   H         1 RES1   0.0000
    45 H3        4.7268   -8.2530   -0.8737   H         1 RES1   0.0000
    46 H4        3.5546   -5.5661   -1.7299   H         1 RES1   0.0000
    47 H5        5.2254   -6.1010   -1.9781   H         1 RES1   0.0000
    48 H6        5.4578   -6.3510    0.5156   H         1 RES1   0.0000
    49 H7        3.8519   -5.6590    0.7089   H         1 RES1   0.0000
    50 H8        6.2842   -4.2665   -0.4884   H         1 RES1   0.0000
    51 H9        5.6176   -4.0131    1.1090   H         1 RES1   0.0000
    52 H10       4.5097   -2.2715    0.1316   H         1 RES1   0.0000
    53 H11       3.3747   -3.5611   -0.3664   H         1 RES1   0.0000
    54 H12       4.9204   -3.7654   -2.4846   H         1 RES1   0.0000
    55 H13       5.6222   -2.2522   -1.9511   H         1 RES1   0.0000
    56 H14       4.1390   -1.7933   -3.6895   H         1 RES1   0.0000
    57 H15       3.3333   -1.1535   -2.2928   H         1 RES1   0.0000
    58 H16       2.7876   -3.9237   -3.4808   H         1 RES1   0.0000
    59 H17       1.9700   -2.4839   -4.0762   H         1 RES1   0.0000
    60 H18       0.3211   -1.2869   -3.8977   H         1 RES1   0.0000
    61 H19      -2.0369    2.0137   -4.3562   H         1 RES1   0.0000
    62 H20      -3.1380    2.0952   -6.3325   H         1 RES1   0.0000
    63 H21      -5.0355    1.3236   -7.6273   H         1 RES1   0.0000
    64 H22      -7.6819   -1.9707   -5.7817   H         1 RES1   0.0000
    65 H23      -6.6461   -2.9886   -6.8110   H         1 RES1   0.0000
    66 H24      -8.1475   -2.3372   -7.4321   H         1 RES1   0.0000
    67 H25      -7.9682    0.5129   -6.3505   H         1 RES1   0.0000
    68 H26      -8.4862   -0.0487   -7.9367   H         1 RES1   0.0000
    69 H27      -7.2351    1.1724   -7.8175   H         1 RES1   0.0000
    70 H28      -5.3748   -1.9879   -8.7224   H         1 RES1   0.0000
    71 H29      -5.6244   -0.3031   -9.1989   H         1 RES1   0.0000
    72 H30      -6.9292   -1.4668   -9.3597   H         1 RES1   0.0000
    73 H31      -5.4215   -2.0711   -5.0786   H         1 RES1   0.0000
    74 H32      -3.5158   -1.3168   -3.7750   H         1 RES1   0.0000
    75 H33      -3.1274   -3.3562    1.0327   H         1 RES1   0.0000
    76 H34      -2.1322   -0.7465    3.3288   H         1 RES1   0.0000
    77 H35      -3.3723   -0.1265    5.3351   H         1 RES1   0.0000
    78 H36      -4.4740   -0.0348    7.3666   H         1 RES1   0.0000
    79 H37      -6.0622    0.6851    7.5406   H         1 RES1   0.0000
    80 H38      -5.0555    1.1773    6.1912   H         1 RES1   0.0000
    81 H39      -5.5774   -2.3385    7.4429   H         1 RES1   0.0000
    82 H40      -6.9484   -2.7028    6.3868   H         1 RES1   0.0000
    83 H41      -7.1174   -1.5147    7.6681   H         1 RES1   0.0000
    84 H42      -6.9528    0.5278    4.5254   H         1 RES1   0.0000
    85 H43      -7.8326    0.3416    6.0376   H         1 RES1   0.0000
    86 H44      -7.8602   -0.9546    4.8547   H         1 RES1   0.0000
    87 H45      -6.5116   -2.7843    4.1957   H         1 RES1   0.0000
    88 H46      -5.2078   -3.5197    2.2729   H         1 RES1   0.0000
    89 H47      -0.0868   -3.4600   -0.1633   H         1 RES1   0.0000
    90 C36      -7.7045    4.5012    1.5222   C.3       1 RES1   0.0000
    91 C37      -6.5552    4.0828    0.6099   C.3       1 RES1   0.0000
    92 C38      -6.4404    2.5582    0.5764   C.3       1 RES1   0.0000
    93 C39      -5.5304    1.9702   -0.5073   C.3       1 RES1   0.0000
    94 C40      -4.0429    2.3181   -0.3339   C.3       1 RES1   0.0000
    95 C41      -3.6351    3.5253   -1.1824   C.3       1 RES1   0.0000
    96 C42      -2.2149    4.0128   -0.8925   C.3       1 RES1   0.0000
    97 C43      -2.0739    4.6790    0.4838   C.3       1 RES1   0.0000
    98 O4       -1.9095    3.7131    1.5248   O.3       1 RES1   0.0000
    99 C44      -0.8133    2.9882    1.5650   C.ar      1 RES1   0.0000
   100 C45       0.3505    3.2108    0.7900   C.ar      1 RES1   0.0000
   101 C46       1.4098    2.3165    0.9360   C.ar      1 RES1   0.0000
   102 C47       2.4247    2.0979   -0.1527   C.2       1 RES1   0.0000
   103 O5        1.9114    1.3696   -1.0570   O.2       1 RES1   0.0000
   104 N4        3.6818    2.4755   -0.1691   N.am      1 RES1   0.0000
   105 C48       4.5385    3.1473    0.7365   C.ar      1 RES1   0.0000
   106 C49       5.8141    3.4602    0.2650   C.ar      1 RES1   0.0000
   107 C50       6.7369    4.0697    1.0897   C.ar      1 RES1   0.0000
   108 C51       6.4531    4.3814    2.4225   C.ar      1 RES1   0.0000
   109 C52       7.5093    5.0380    3.2954   C.3       1 RES1   0.0000
   110 C53       7.0499    5.2434    4.7409   C.3       1 RES1   0.0000
   111 C54       8.7652    4.1504    3.3216   C.3       1 RES1   0.0000
   112 C55       7.8582    6.4172    2.7102   C.3       1 RES1   0.0000
   113 C56       5.1761    4.0460    2.8743   C.ar      1 RES1   0.0000
   114 C57       4.2297    3.4453    2.0570   C.ar      1 RES1   0.0000
   115 N5        1.3550    1.2412    1.7214   N.ar      1 RES1   0.0000
   116 C58       0.2446    1.0060    2.4404   C.ar      1 RES1   0.0000
   117 C59       0.2490   -0.4582    2.7920   C.2       1 RES1   0.0000
   118 O6        0.2981   -1.1631    1.7516   O.2       1 RES1   0.0000
   119 N6        0.2387   -0.9190    4.0223   N.am      1 RES1   0.0000
   120 C60       0.2566   -2.2713    4.4429   C.ar      1 RES1   0.0000
   121 C61       0.0375   -3.3546    3.5967   C.ar      1 RES1   0.0000
   122 C62       0.0478   -4.6363    4.1200   C.ar      1 RES1   0.0000
   123 C63       0.2841   -4.8840    5.4702   C.ar      1 RES1   0.0000
   124 C64       0.2637   -6.2689    6.0877   C.3       1 RES1   0.0000
   125 C65      -0.0395   -7.4006    5.1013   C.3       1 RES1   0.0000
   126 C66      -0.8372   -6.2810    7.1618   C.3       1 RES1   0.0000
   127 C67       1.6378   -6.5555    6.7140   C.3       1 RES1   0.0000
   128 C68       0.5337   -3.7805    6.2931   C.ar      1 RES1   0.0000
   129 C69       0.5099   -2.4982    5.7940   C.ar      1 RES1   0.0000
   130 C70      -0.8480    1.8500    2.4135   C.ar      1 RES1   0.0000
   131 H48      -7.7609    5.5820    1.6046   H         1 RES1   0.0000
   132 H49      -7.5703    4.0867    2.5187   H         1 RES1   0.0000
   133 H50      -8.6508    4.1403    1.1277   H         1 RES1   0.0000
   134 H51      -5.6233    4.5214    0.9784   H         1 RES1   0.0000
   135 H52      -6.7422    4.4586   -0.3984   H         1 RES1   0.0000
   136 H53      -7.4420    2.1518    0.4222   H         1 RES1   0.0000
   137 H54      -6.0980    2.2116    1.5540   H         1 RES1   0.0000
   138 H55      -5.8825    2.3077   -1.4835   H         1 RES1   0.0000
   139 H56      -5.6495    0.8859   -0.4829   H         1 RES1   0.0000
   140 H57      -3.4093    1.4570   -0.6213   H         1 RES1   0.0000
   141 H58      -3.8550    2.5218    0.7229   H         1 RES1   0.0000
   142 H59      -4.3218    4.3565   -1.0260   H         1 RES1   0.0000
   143 H60      -3.7066    3.2415   -2.2349   H         1 RES1   0.0000
   144 H61      -1.9312    4.7404   -1.6521   H         1 RES1   0.0000
   145 H62      -1.5280    3.1540   -0.9726   H         1 RES1   0.0000
   146 H63      -2.9904    5.2111    0.7391   H         1 RES1   0.0000
   147 H64      -1.2406    5.3865    0.5050   H         1 RES1   0.0000
   148 H65       0.4231    4.0343    0.0917   H         1 RES1   0.0000
   149 H66       4.1766    2.2004   -1.0159   H         1 RES1   0.0000
   150 H67       6.0871    3.2195   -0.7527   H         1 RES1   0.0000
   151 H68       7.7055    4.3012    0.6824   H         1 RES1   0.0000
   152 H69       6.7960    4.2999    5.2162   H         1 RES1   0.0000
   153 H70       6.2048    5.9234    4.7995   H         1 RES1   0.0000
   154 H71       7.8650    5.6867    5.3048   H         1 RES1   0.0000
   155 H72       8.5209    3.1520    3.6789   H         1 RES1   0.0000
   156 H73       9.4938    4.5829    4.0010   H         1 RES1   0.0000
   157 H74       9.2350    4.0671    2.3460   H         1 RES1   0.0000
   158 H75       6.9839    7.0647    2.7082   H         1 RES1   0.0000
   159 H76       8.2446    6.3512    1.6972   H         1 RES1   0.0000
   160 H77       8.6205    6.8848    3.3267   H         1 RES1   0.0000
   161 H78       4.8946    4.2459    3.8930   H         1 RES1   0.0000
   162 H79       3.2598    3.1838    2.4534   H         1 RES1   0.0000
   163 H80       0.2788   -0.2546    4.7881   H         1 RES1   0.0000
   164 H81      -0.1525   -3.2156    2.5429   H         1 RES1   0.0000
   165 H82      -0.1356   -5.4625    3.4531   H         1 RES1   0.0000
   166 H83      -1.0204   -7.2886    4.6453   H         1 RES1   0.0000
   167 H84      -0.0469   -8.3397    5.6495   H         1 RES1   0.0000
   168 H85       0.7247   -7.4873    4.3326   H         1 RES1   0.0000
   169 H86      -1.7978   -6.0409    6.7095   H         1 RES1   0.0000
   170 H87      -0.6374   -5.5705    7.9576   H         1 RES1   0.0000
   171 H88      -0.9127   -7.2675    7.6087   H         1 RES1   0.0000
   172 H89       2.4138   -6.5204    5.9517   H         1 RES1   0.0000
   173 H90       1.6397   -7.5511    7.1467   H         1 RES1   0.0000
   174 H91       1.8887   -5.8519    7.5019   H         1 RES1   0.0000
   175 H92       0.7467   -3.9218    7.3408   H         1 RES1   0.0000
   176 H93       0.6874   -1.6592    6.4511   H         1 RES1   0.0000
   177 H94      -1.7634    1.6631    2.9581   H         1 RES1   0.0000
   178 O7        1.9528   -1.2021   -0.1766   O.3       1 RES1   0.0000
   179 H95       2.1348   -1.5528    0.7170   H         1 RES1   0.0000
   180 H96       2.6783   -1.5633   -0.7271   H         1 RES1   0.0000
@<TRIPOS>BOND
     1     1    10    1
     2     1    15    1
     3     1    27    1
     4     1    30    1
     5     1    98    1
     6     1   103    1
     7     1   115    1
     8     1   118    1
     9     1   178    1
    10     2     3    1
    11     2    43    1
    12     2    44    1
    13     2    45    1
    14     3     4    1
    15     3    46    1
    16     3    47    1
    17     4     5    1
    18     4    48    1
    19     4    49    1
    20     5     6    1
    21     5    50    1
    22     5    51    1
    23     6     7    1
    24     6    52    1
    25     6    53    1
    26     7     8    1
    27     7    54    1
    28     7    55    1
    29     8     9    1
    30     8    56    1
    31     8    57    1
    32     9    10    1
    33     9    58    1
    34     9    59    1
    35    10    11    1
    36    11    12    1
    37    11    42    2
    38    12    13    2
    39    12    60    1
    40    13    14    1
    41    13    27    1
    42    14    15    2
    43    14    16    1
    44    16    17    1
    45    16    61    1
    46    17    18    1
    47    17    26    2
    48    18    19    2
    49    18    62    1
    50    19    20    1
    51    19    63    1
    52    20    21    1
    53    20    25    2
    54    21    22    1
    55    21    23    1
    56    21    24    1
    57    22    64    1
    58    22    65    1
    59    22    66    1
    60    23    67    1
    61    23    68    1
    62    23    69    1
    63    24    70    1
    64    24    71    1
    65    24    72    1
    66    25    26    1
    67    25    73    1
    68    26    74    1
    69    27    28    2
    70    28    29    1
    71    28    42    1
    72    29    30    2
    73    29    31    1
    74    31    32    1
    75    31    75    1
    76    32    33    1
    77    32    41    2
    78    33    34    2
    79    33    76    1
    80    34    35    1
    81    34    77    1
    82    35    36    1
    83    35    40    2
    84    36    37    1
    85    36    38    1
    86    36    39    1
    87    37    78    1
    88    37    79    1
    89    37    80    1
    90    38    81    1
    91    38    82    1
    92    38    83    1
    93    39    84    1
    94    39    85    1
    95    39    86    1
    96    40    41    1
    97    40    87    1
    98    41    88    1
    99    42    89    1
   100    90    91    1
   101    90   131    1
   102    90   132    1
   103    90   133    1
   104    91    92    1
   105    91   134    1
   106    91   135    1
   107    92    93    1
   108    92   136    1
   109    92   137    1
   110    93    94    1
   111    93   138    1
   112    93   139    1
   113    94    95    1
   114    94   140    1
   115    94   141    1
   116    95    96    1
   117    95   142    1
   118    95   143    1
   119    96    97    1
   120    96   144    1
   121    96   145    1
   122    97    98    1
   123    97   146    1
   124    97   147    1
   125    98    99    1
   126    99   100    1
   127    99   130    2
   128   100   101    2
   129   100   148    1
   130   101   102    1
   131   101   115    1
   132   102   103    2
   133   102   104    1
   134   104   105    1
   135   104   149    1
   136   105   106    1
   137   105   114    2
   138   106   107    2
   139   106   150    1
   140   107   108    1
   141   107   151    1
   142   108   109    1
   143   108   113    2
   144   109   110    1
   145   109   111    1
   146   109   112    1
   147   110   152    1
   148   110   153    1
   149   110   154    1
   150   111   155    1
   151   111   156    1
   152   111   157    1
   153   112   158    1
   154   112   159    1
   155   112   160    1
   156   113   114    1
   157   113   161    1
   158   114   162    1
   159   115   116    2
   160   116   117    1
   161   116   130    1
   162   117   118    2
   163   117   119    1
   164   119   120    1
   165   119   163    1
   166   120   121    1
   167   120   129    2
   168   121   122    2
   169   121   164    1
   170   122   123    1
   171   122   165    1
   172   123   124    1
   173   123   128    2
   174   124   125    1
   175   124   126    1
   176   124   127    1
   177   125   166    1
   178   125   167    1
   179   125   168    1
   180   126   169    1
   181   126   170    1
   182   126   171    1
   183   127   172    1
   184   127   173    1
   185   127   174    1
   186   128   129    1
   187   128   175    1
   188   129   176    1
   189   130   177    1
   190   178   179    1
   191   178   180    1
@<TRIPOS>SUBSTRUCTURE
     1 RES1      180 GROUP             0 ****  ****    0  
