@<TRIPOS>MOLECULE
am_c3_9H2O_c0_0_nunpairedes_0_charge_3 Charge: 3 Unpaired_Electrons: 6 XTB_Unpaired_Electrons: 0 XTB_Charge: 3
   346   354     1     0     0
SMALL
NoCharges
****
Generated from Architector

@<TRIPOS>ATOM
     1 Eu1       0.1599   -0.0771    0.0832   Eu        1 RES1   0.0000
     2 C1        7.1140   -3.5663    0.8310   C.3       1 RES1   0.0000
     3 C2        6.5332   -4.7735    1.5586   C.3       1 RES1   0.0000
     4 C3        5.7583   -5.7453    0.6623   C.3       1 RES1   0.0000
     5 C4        4.3375   -5.2763    0.3270   C.3       1 RES1   0.0000
     6 C5        4.2377   -4.4185   -0.9396   C.3       1 RES1   0.0000
     7 C6        4.2454   -5.2203   -2.2457   C.3       1 RES1   0.0000
     8 O1        4.3661   -4.3467   -3.3598   O.3       1 RES1   0.0000
     9 C7        3.3145   -3.6191   -3.7789   C.ar      1 RES1   0.0000
    10 C8        1.9887   -3.8087   -3.3849   C.ar      1 RES1   0.0000
    11 C9        0.9828   -2.9470   -3.8195   C.ar      1 RES1   0.0000
    12 C10      -0.4286   -3.2640   -3.3759   C.3       1 RES1   0.0000
    13 N1       -1.3512   -2.2062   -2.9823   N.am      1 RES1   0.0000
    14 C11      -1.4604   -1.8213   -1.7228   C.2       1 RES1   0.0000
    15 O2       -0.5509   -2.0431   -0.9097   O.2       1 RES1   0.0000
    16 C12      -2.7249   -1.1136   -1.2116   C.3       1 RES1   0.0000
    17 O3       -2.3215   -0.1689   -0.2177   O.3       1 RES1   0.0000
    18 C13      -3.2517    0.1553    0.8258   C.3       1 RES1   0.0000
    19 C14      -2.4263    0.9882    1.8285   C.2       1 RES1   0.0000
    20 O4       -1.2191    1.0785    1.5663   O.2       1 RES1   0.0000
    21 N2       -2.9128    1.5320    2.9475   N.am      1 RES1   0.0000
    22 C15      -4.3104    1.8493    3.2024   C.3       1 RES1   0.0000
    23 C16      -5.1012    0.8738    4.0870   C.3       1 RES1   0.0000
    24 C17      -4.6348    0.8212    5.5427   C.3       1 RES1   0.0000
    25 C18      -5.6918    0.2344    6.4686   C.3       1 RES1   0.0000
    26 C19      -1.9281    1.8568    4.0037   C.3       1 RES1   0.0000
    27 C20      -1.8689    3.2911    4.5378   C.3       1 RES1   0.0000
    28 C21      -1.0890    4.2665    3.6529   C.3       1 RES1   0.0000
    29 C22       0.4122    4.1540    3.8938   C.3       1 RES1   0.0000
    30 C23       1.2973   -1.9632   -4.7497   C.ar      1 RES1   0.0000
    31 C24       2.6009   -1.8041   -5.2330   C.ar      1 RES1   0.0000
    32 C25       2.9031   -0.8833   -6.4046   C.3       1 RES1   0.0000
    33 N3        3.1367    0.5216   -6.0930   N.am      1 RES1   0.0000
    34 C26       4.3692    1.0944   -6.2426   C.2       1 RES1   0.0000
    35 O5        5.3651    0.4619   -6.4646   O.2       1 RES1   0.0000
    36 C27       4.4255    2.6207   -6.0070   C.3       1 RES1   0.0000
    37 O6        4.8233    2.7625   -4.6540   O.3       1 RES1   0.0000
    38 C28       4.8680    4.0739   -4.1149   C.3       1 RES1   0.0000
    39 C29       5.3164    3.8283   -2.6590   C.2       1 RES1   0.0000
    40 O7        4.4699    3.5569   -1.8169   O.2       1 RES1   0.0000
    41 N4        6.6482    3.8078   -2.4264   N.am      1 RES1   0.0000
    42 C30       7.4242    4.9676   -2.8688   C.3       1 RES1   0.0000
    43 C31       6.9099    6.1982   -2.1003   C.3       1 RES1   0.0000
    44 C32       7.4713    7.5325   -2.5683   C.3       1 RES1   0.0000
    45 C33       6.7901    8.6736   -1.8255   C.3       1 RES1   0.0000
    46 C34       7.1366    3.1786   -1.1955   C.3       1 RES1   0.0000
    47 C35       6.6909    1.7261   -0.9896   C.3       1 RES1   0.0000
    48 C36       7.2997    0.6970   -1.9453   C.3       1 RES1   0.0000
    49 C37       6.6491    0.6830   -3.3213   C.3       1 RES1   0.0000
    50 C38       3.5996   -2.5952   -4.6939   C.ar      1 RES1   0.0000
    51 H1        7.7880   -3.0266    1.4914   H         1 RES1   0.0000
    52 H2        6.3336   -2.8780    0.5170   H         1 RES1   0.0000
    53 H3        7.6818   -3.8845   -0.0404   H         1 RES1   0.0000
    54 H4        5.8841   -4.4364    2.3720   H         1 RES1   0.0000
    55 H5        7.3558   -5.3241    2.0109   H         1 RES1   0.0000
    56 H6        5.6912   -6.7056    1.1760   H         1 RES1   0.0000
    57 H7        6.3114   -5.9106   -0.2611   H         1 RES1   0.0000
    58 H8        3.9751   -4.6983    1.1856   H         1 RES1   0.0000
    59 H9        3.6709   -6.1358    0.2127   H         1 RES1   0.0000
    60 H10       5.0666   -3.7094   -0.9675   H         1 RES1   0.0000
    61 H11       3.3078   -3.8502   -0.9063   H         1 RES1   0.0000
    62 H12       3.3502   -5.8432   -2.3332   H         1 RES1   0.0000
    63 H13       5.1290   -5.8553   -2.2960   H         1 RES1   0.0000
    64 H14       1.7087   -4.6595   -2.7852   H         1 RES1   0.0000
    65 H15      -0.3713   -3.9897   -2.5629   H         1 RES1   0.0000
    66 H16      -0.9229   -3.7537   -4.2060   H         1 RES1   0.0000
    67 H17      -2.1259   -2.0766   -3.6157   H         1 RES1   0.0000
    68 H18      -3.3443   -1.9209   -0.8042   H         1 RES1   0.0000
    69 H19      -3.2916   -0.6252   -2.0080   H         1 RES1   0.0000
    70 H20      -3.5711   -0.7604    1.3438   H         1 RES1   0.0000
    71 H21      -4.1126    0.6983    0.4208   H         1 RES1   0.0000
    72 H22      -4.8178    1.9535    2.2411   H         1 RES1   0.0000
    73 H23      -4.3149    2.8414    3.6658   H         1 RES1   0.0000
    74 H24      -5.0762   -0.1256    3.6519   H         1 RES1   0.0000
    75 H25      -6.1400    1.2119    4.0626   H         1 RES1   0.0000
    76 H26      -4.3895    1.8278    5.8817   H         1 RES1   0.0000
    77 H27      -3.7298    0.2174    5.6208   H         1 RES1   0.0000
    78 H28      -6.5801    0.8579    6.4835   H         1 RES1   0.0000
    79 H29      -5.3014    0.1889    7.4809   H         1 RES1   0.0000
    80 H30      -5.9831   -0.7657    6.1558   H         1 RES1   0.0000
    81 H31      -0.9462    1.6042    3.5956   H         1 RES1   0.0000
    82 H32      -2.1514    1.1911    4.8420   H         1 RES1   0.0000
    83 H33      -1.3558    3.2265    5.5001   H         1 RES1   0.0000
    84 H34      -2.8642    3.6887    4.7318   H         1 RES1   0.0000
    85 H35      -1.3979    5.2885    3.8775   H         1 RES1   0.0000
    86 H36      -1.3127    4.0669    2.6017   H         1 RES1   0.0000
    87 H37       0.6406    4.3338    4.9433   H         1 RES1   0.0000
    88 H38       0.9508    4.8853    3.2938   H         1 RES1   0.0000
    89 H39       0.7642    3.1616    3.6264   H         1 RES1   0.0000
    90 H40       0.5003   -1.3894   -5.1860   H         1 RES1   0.0000
    91 H41       2.0701   -0.9452   -7.1108   H         1 RES1   0.0000
    92 H42       3.8120   -1.2600   -6.8783   H         1 RES1   0.0000
    93 H43       2.3352    1.1321   -6.0990   H         1 RES1   0.0000
    94 H44       3.4732    3.1354   -6.1946   H         1 RES1   0.0000
    95 H45       5.1751    3.0519   -6.6810   H         1 RES1   0.0000
    96 H46       3.8683    4.5323   -4.1299   H         1 RES1   0.0000
    97 H47       5.5471    4.7054   -4.6873   H         1 RES1   0.0000
    98 H48       7.3059    5.1204   -3.9432   H         1 RES1   0.0000
    99 H49       8.4817    4.7781   -2.6732   H         1 RES1   0.0000
   100 H50       7.1239    6.0747   -1.0359   H         1 RES1   0.0000
   101 H51       5.8200    6.2232   -2.2140   H         1 RES1   0.0000
   102 H52       7.3064    7.6409   -3.6399   H         1 RES1   0.0000
   103 H53       8.5444    7.5593   -2.3904   H         1 RES1   0.0000
   104 H54       5.7172    8.6655   -2.0058   H         1 RES1   0.0000
   105 H55       7.1843    9.6294   -2.1495   H         1 RES1   0.0000
   106 H56       6.9526    8.5815   -0.7555   H         1 RES1   0.0000
   107 H57       6.8290    3.7686   -0.3205   H         1 RES1   0.0000
   108 H58       8.2276    3.1969   -1.2473   H         1 RES1   0.0000
   109 H59       5.6041    1.6643   -1.0423   H         1 RES1   0.0000
   110 H60       6.9944    1.4587    0.0256   H         1 RES1   0.0000
   111 H61       7.1904   -0.2915   -1.4922   H         1 RES1   0.0000
   112 H62       8.3688    0.8819   -2.0457   H         1 RES1   0.0000
   113 H63       5.5632    0.6427   -3.2347   H         1 RES1   0.0000
   114 H64       6.9821   -0.1722   -3.9041   H         1 RES1   0.0000
   115 H65       6.9054    1.5782   -3.8754   H         1 RES1   0.0000
   116 H66       4.6209   -2.4703   -5.0088   H         1 RES1   0.0000
   117 C39      -6.6594   -0.2506   -0.2173   C.3       1 RES1   0.0000
   118 C40      -7.8908   -0.3814   -1.1050   C.3       1 RES1   0.0000
   119 C41      -7.5066   -1.0752   -2.4006   C.3       1 RES1   0.0000
   120 C42      -8.6120   -1.0695   -3.4554   C.3       1 RES1   0.0000
   121 C43      -8.3028   -1.9970   -4.6398   C.3       1 RES1   0.0000
   122 C44      -7.0300   -1.6257   -5.3963   C.3       1 RES1   0.0000
   123 O8       -5.9321   -1.7658   -4.5064   O.3       1 RES1   0.0000
   124 C45      -4.6768   -1.6683   -4.9973   C.ar      1 RES1   0.0000
   125 C46      -3.8866   -0.6405   -4.4929   C.ar      1 RES1   0.0000
   126 C47      -2.5743   -0.4938   -4.8859   C.ar      1 RES1   0.0000
   127 C48      -1.6525    0.6199   -4.4085   C.3       1 RES1   0.0000
   128 N5       -1.8756    1.4581   -3.2148   N.am      1 RES1   0.0000
   129 C49      -1.0026    1.4106   -2.2025   C.2       1 RES1   0.0000
   130 O9       -0.3068    0.3945   -2.0413   O.2       1 RES1   0.0000
   131 C50      -0.7219    2.5880   -1.2331   C.3       1 RES1   0.0000
   132 O10       0.2190    2.0505   -0.2983   O.3       1 RES1   0.0000
   133 C51       1.1541    2.8372    0.4489   C.3       1 RES1   0.0000
   134 C52       1.7497    1.8759    1.5226   C.2       1 RES1   0.0000
   135 O11       1.1900    0.7851    1.7130   O.2       1 RES1   0.0000
   136 N6        2.7655    2.1949    2.3170   N.am      1 RES1   0.0000
   137 C53       3.6265    3.3705    2.2267   C.3       1 RES1   0.0000
   138 C54       5.1093    2.9813    2.2177   C.3       1 RES1   0.0000
   139 C55       6.0449    4.1320    2.5735   C.3       1 RES1   0.0000
   140 C56       7.4742    3.6248    2.7162   C.3       1 RES1   0.0000
   141 C57       2.9080    1.3197    3.5005   C.3       1 RES1   0.0000
   142 C58       3.2918   -0.1605    3.3160   C.3       1 RES1   0.0000
   143 C59       4.6841   -0.4837    2.7715   C.3       1 RES1   0.0000
   144 C60       4.7551   -0.4516    1.2500   C.3       1 RES1   0.0000
   145 C61      -2.0738   -1.4035   -5.8292   C.ar      1 RES1   0.0000
   146 C62      -2.8146   -2.4995   -6.2643   C.ar      1 RES1   0.0000
   147 C63      -2.1646   -3.6009   -7.0834   C.3       1 RES1   0.0000
   148 N7       -1.2779   -4.4197   -6.2701   N.am      1 RES1   0.0000
   149 C64      -1.4927   -5.5095   -5.4755   C.2       1 RES1   0.0000
   150 O12      -0.5589   -6.0121   -4.8938   O.2       1 RES1   0.0000
   151 C65      -2.9203   -6.0184   -5.3119   C.3       1 RES1   0.0000
   152 O13      -3.1071   -6.4479   -3.9765   O.3       1 RES1   0.0000
   153 C66      -4.2488   -6.0155   -3.2645   C.3       1 RES1   0.0000
   154 C67      -3.7654   -5.0955   -2.1333   C.2       1 RES1   0.0000
   155 O14      -3.1368   -4.0746   -2.4103   O.2       1 RES1   0.0000
   156 N8       -3.9742   -5.4817   -0.8597   N.am      1 RES1   0.0000
   157 C68      -5.0092   -6.4219   -0.4457   C.3       1 RES1   0.0000
   158 C69      -6.4216   -5.9064   -0.7484   C.3       1 RES1   0.0000
   159 C70      -6.7554   -4.6021   -0.0280   C.3       1 RES1   0.0000
   160 C71      -8.2060   -4.2068   -0.2628   C.3       1 RES1   0.0000
   161 C72      -3.2559   -4.7897    0.1946   C.3       1 RES1   0.0000
   162 C73      -2.3797   -5.7023    1.0563   C.3       1 RES1   0.0000
   163 C74      -1.2983   -6.5028    0.3285   C.3       1 RES1   0.0000
   164 C75      -1.7993   -7.7856   -0.3286   C.3       1 RES1   0.0000
   165 C76      -4.1307   -2.6108   -5.8541   C.ar      1 RES1   0.0000
   166 H67      -6.8970    0.2296    0.7284   H         1 RES1   0.0000
   167 H68      -5.8953    0.3369   -0.7292   H         1 RES1   0.0000
   168 H69      -6.2407   -1.2332   -0.0055   H         1 RES1   0.0000
   169 H70      -8.2932    0.6032   -1.3380   H         1 RES1   0.0000
   170 H71      -8.6673   -0.9425   -0.5876   H         1 RES1   0.0000
   171 H72      -7.2254   -2.1072   -2.1933   H         1 RES1   0.0000
   172 H73      -6.6266   -0.5740   -2.8019   H         1 RES1   0.0000
   173 H74      -8.7699   -0.0539   -3.8282   H         1 RES1   0.0000
   174 H75      -9.5544   -1.3955   -3.0071   H         1 RES1   0.0000
   175 H76      -9.1326   -1.9706   -5.3503   H         1 RES1   0.0000
   176 H77      -8.2075   -3.0241   -4.2772   H         1 RES1   0.0000
   177 H78      -7.0723   -0.5824   -5.7339   H         1 RES1   0.0000
   178 H79      -6.8986   -2.2722   -6.2682   H         1 RES1   0.0000
   179 H80      -4.3426    0.0361   -3.7947   H         1 RES1   0.0000
   180 H81      -1.6070    1.3048   -5.2526   H         1 RES1   0.0000
   181 H82      -0.6738    0.1661   -4.2508   H         1 RES1   0.0000
   182 H83      -2.4756    2.2655   -3.3227   H         1 RES1   0.0000
   183 H84      -1.6398    2.9222   -0.7314   H         1 RES1   0.0000
   184 H85      -0.2747    3.4060   -1.8135   H         1 RES1   0.0000
   185 H86       0.6431    3.6457    0.9831   H         1 RES1   0.0000
   186 H87       1.9485    3.2256   -0.1991   H         1 RES1   0.0000
   187 H88       3.4167    4.0145    3.0900   H         1 RES1   0.0000
   188 H89       3.3886    3.9194    1.3135   H         1 RES1   0.0000
   189 H90       5.3626    2.5940    1.2335   H         1 RES1   0.0000
   190 H91       5.2762    2.1898    2.9440   H         1 RES1   0.0000
   191 H92       5.7267    4.5795    3.5155   H         1 RES1   0.0000
   192 H93       5.9951    4.9046    1.8068   H         1 RES1   0.0000
   193 H94       7.5553    2.9315    3.5480   H         1 RES1   0.0000
   194 H95       8.1535    4.4468    2.9068   H         1 RES1   0.0000
   195 H96       7.8046    3.1111    1.8176   H         1 RES1   0.0000
   196 H97       1.9234    1.3095    3.9881   H         1 RES1   0.0000
   197 H98       3.6174    1.7947    4.1718   H         1 RES1   0.0000
   198 H99       2.5471   -0.6379    2.6784   H         1 RES1   0.0000
   199 H100      3.2098   -0.5872    4.3190   H         1 RES1   0.0000
   200 H101      4.9600   -1.4853    3.1096   H         1 RES1   0.0000
   201 H102      5.4215    0.1953    3.1958   H         1 RES1   0.0000
   202 H103      4.1805   -1.2743    0.8320   H         1 RES1   0.0000
   203 H104      5.7833   -0.5566    0.9140   H         1 RES1   0.0000
   204 H105      4.3535    0.4777    0.8585   H         1 RES1   0.0000
   205 H106     -1.0866   -1.2748   -6.2440   H         1 RES1   0.0000
   206 H107     -1.5457   -3.1597   -7.8664   H         1 RES1   0.0000
   207 H108     -2.9321   -4.2173   -7.5526   H         1 RES1   0.0000
   208 H109     -0.2935   -4.2014   -6.3479   H         1 RES1   0.0000
   209 H110     -3.0464   -6.8958   -5.9642   H         1 RES1   0.0000
   210 H111     -3.6401   -5.2498   -5.5921   H         1 RES1   0.0000
   211 H112     -4.7549   -6.9118   -2.8917   H         1 RES1   0.0000
   212 H113     -4.9433   -5.4558   -3.9022   H         1 RES1   0.0000
   213 H114     -4.9072   -6.5698    0.6316   H         1 RES1   0.0000
   214 H115     -4.8502   -7.3914   -0.9252   H         1 RES1   0.0000
   215 H116     -7.1326   -6.6780   -0.4516   H         1 RES1   0.0000
   216 H117     -6.5383   -5.7528   -1.8216   H         1 RES1   0.0000
   217 H118     -6.0948   -3.8099   -0.3930   H         1 RES1   0.0000
   218 H119     -6.5863   -4.7201    1.0436   H         1 RES1   0.0000
   219 H120     -8.3997   -4.0802   -1.3240   H         1 RES1   0.0000
   220 H121     -8.4376   -3.2749    0.2438   H         1 RES1   0.0000
   221 H122     -8.8759   -4.9749    0.1121   H         1 RES1   0.0000
   222 H123     -3.9713   -4.2732    0.8477   H         1 RES1   0.0000
   223 H124     -2.6104   -4.0441   -0.2771   H         1 RES1   0.0000
   224 H125     -3.0074   -6.3918    1.6205   H         1 RES1   0.0000
   225 H126     -1.8756   -5.0414    1.7641   H         1 RES1   0.0000
   226 H127     -0.5474   -6.7729    1.0760   H         1 RES1   0.0000
   227 H128     -0.8209   -5.8685   -0.4224   H         1 RES1   0.0000
   228 H129     -2.4440   -8.3391    0.3533   H         1 RES1   0.0000
   229 H130     -0.9578   -8.4264   -0.5845   H         1 RES1   0.0000
   230 H131     -2.3388   -7.5643   -1.2449   H         1 RES1   0.0000
   231 H132     -4.7393   -3.4319   -6.1882   H         1 RES1   0.0000
   232 C77      -1.3147    7.5543    1.8110   C.3       1 RES1   0.0000
   233 C78       0.0525    8.0079    2.3094   C.3       1 RES1   0.0000
   234 C79       1.1182    8.1209    1.2169   C.3       1 RES1   0.0000
   235 C80       1.6199    6.7646    0.7055   C.3       1 RES1   0.0000
   236 C81       0.8336    6.2334   -0.4962   C.3       1 RES1   0.0000
   237 C82       1.3550    6.8095   -1.8116   C.3       1 RES1   0.0000
   238 O15       0.5677    6.3853   -2.9092   O.3       1 RES1   0.0000
   239 C83       0.6305    5.1363   -3.4054   C.ar      1 RES1   0.0000
   240 C84       1.4903    4.1031   -3.0288   C.ar      1 RES1   0.0000
   241 C85       1.4309    2.8507   -3.6547   C.ar      1 RES1   0.0000
   242 C86       2.4718    1.8326   -3.2127   C.3       1 RES1   0.0000
   243 N9        2.1400    0.4525   -2.8585   N.am      1 RES1   0.0000
   244 C87       2.3055    0.0276   -1.6055   C.2       1 RES1   0.0000
   245 O16       2.4743    0.7979   -0.6595   O.2       1 RES1   0.0000
   246 C88       2.3166   -1.4671   -1.2528   C.3       1 RES1   0.0000
   247 O17       1.9161   -1.5246    0.1242   O.3       1 RES1   0.0000
   248 C89       1.5648   -2.7900    0.6936   C.3       1 RES1   0.0000
   249 C90       0.4699   -2.4881    1.7460   C.2       1 RES1   0.0000
   250 O18      -0.2369   -1.4794    1.5798   O.2       1 RES1   0.0000
   251 N10       0.2702   -3.2661    2.8038   N.am      1 RES1   0.0000
   252 C91       1.0146   -4.4918    3.0425   C.3       1 RES1   0.0000
   253 C92       2.3450   -4.2571    3.7711   C.3       1 RES1   0.0000
   254 C93       2.2000   -3.8009    5.2204   C.3       1 RES1   0.0000
   255 C94       3.5256   -3.9187    5.9552   C.3       1 RES1   0.0000
   256 C95      -0.5950   -2.6609    3.8391   C.3       1 RES1   0.0000
   257 C96      -1.4769   -3.5483    4.7120   C.3       1 RES1   0.0000
   258 C97      -2.8854   -3.8361    4.1779   C.3       1 RES1   0.0000
   259 C98      -3.7318   -2.5928    3.9290   C.3       1 RES1   0.0000
   260 C99       0.5531    2.6810   -4.7215   C.ar      1 RES1   0.0000
   261 C100     -0.3453    3.6873   -5.0887   C.ar      1 RES1   0.0000
   262 C101     -1.4111    3.5553   -6.1527   C.3       1 RES1   0.0000
   263 N11      -2.7334    3.5491   -5.5329   N.am      1 RES1   0.0000
   264 C102     -3.7647    2.7621   -5.9219   C.2       1 RES1   0.0000
   265 O19      -3.6353    1.7815   -6.6189   O.2       1 RES1   0.0000
   266 C103     -5.1336    3.2194   -5.3803   C.3       1 RES1   0.0000
   267 O20      -5.1189    3.6301   -4.0242   O.3       1 RES1   0.0000
   268 C104     -5.2445    2.5603   -3.1096   C.3       1 RES1   0.0000
   269 C105     -4.9711    3.0558   -1.6818   C.2       1 RES1   0.0000
   270 O21      -3.9299    2.6887   -1.1252   O.2       1 RES1   0.0000
   271 N12      -5.8642    3.8641   -1.1168   N.am      1 RES1   0.0000
   272 C106     -7.2044    4.1110   -1.6341   C.3       1 RES1   0.0000
   273 C107     -8.2470    3.4037   -0.7576   C.3       1 RES1   0.0000
   274 C108     -9.6013    3.2627   -1.4451   C.3       1 RES1   0.0000
   275 C109    -10.5744    2.4884   -0.5669   C.3       1 RES1   0.0000
   276 C110     -5.6013    4.4078    0.2158   C.3       1 RES1   0.0000
   277 C111     -4.3236    5.2407    0.3243   C.3       1 RES1   0.0000
   278 C112     -4.3356    6.5059   -0.5356   C.3       1 RES1   0.0000
   279 C113     -4.0363    6.2563   -2.0121   C.3       1 RES1   0.0000
   280 C114     -0.3075    4.8862   -4.4102   C.ar      1 RES1   0.0000
   281 H133     -2.0596    7.6991    2.5892   H         1 RES1   0.0000
   282 H134     -1.3099    6.5012    1.5392   H         1 RES1   0.0000
   283 H135     -1.6155    8.1469    0.9499   H         1 RES1   0.0000
   284 H136      0.4066    7.3283    3.0877   H         1 RES1   0.0000
   285 H137     -0.0570    8.9892    2.7659   H         1 RES1   0.0000
   286 H138      1.9648    8.6753    1.6245   H         1 RES1   0.0000
   287 H139      0.7268    8.7027    0.3811   H         1 RES1   0.0000
   288 H140      1.5693    6.0425    1.5273   H         1 RES1   0.0000
   289 H141      2.6691    6.8426    0.4078   H         1 RES1   0.0000
   290 H142     -0.2255    6.4683   -0.3904   H         1 RES1   0.0000
   291 H143      0.9196    5.1498   -0.5443   H         1 RES1   0.0000
   292 H144      2.4092    6.5492   -1.9635   H         1 RES1   0.0000
   293 H145      1.2402    7.8949   -1.8108   H         1 RES1   0.0000
   294 H146      2.2615    4.2673   -2.2922   H         1 RES1   0.0000
   295 H147      2.9966    2.2617   -2.3548   H         1 RES1   0.0000
   296 H148      3.2184    1.7510   -4.0005   H         1 RES1   0.0000
   297 H149      1.9994   -0.2180   -3.6064   H         1 RES1   0.0000
   298 H150      3.3605   -1.7857   -1.3831   H         1 RES1   0.0000
   299 H151      1.6615   -2.0750   -1.8829   H         1 RES1   0.0000
   300 H152      2.4498   -3.2470    1.1508   H         1 RES1   0.0000
   301 H153      1.1451   -3.4768   -0.0533   H         1 RES1   0.0000
   302 H154      1.1981   -4.9703    2.0757   H         1 RES1   0.0000
   303 H155      0.3722   -5.1667    3.6151   H         1 RES1   0.0000
   304 H156      2.9314   -3.5095    3.2307   H         1 RES1   0.0000
   305 H157      2.9002   -5.1956    3.7444   H         1 RES1   0.0000
   306 H158      1.4517   -4.4044    5.7310   H         1 RES1   0.0000
   307 H159      1.8665   -2.7641    5.2473   H         1 RES1   0.0000
   308 H160      3.8470   -4.9548    5.9907   H         1 RES1   0.0000
   309 H161      3.4241   -3.5550    6.9717   H         1 RES1   0.0000
   310 H162      4.2957   -3.3384    5.4545   H         1 RES1   0.0000
   311 H163     -1.2397   -1.9642    3.3062   H         1 RES1   0.0000
   312 H164      0.0574   -2.0588    4.4778   H         1 RES1   0.0000
   313 H165     -1.5763   -3.0205    5.6627   H         1 RES1   0.0000
   314 H166     -0.9870   -4.4963    4.9178   H         1 RES1   0.0000
   315 H167     -3.3922   -4.4569    4.9183   H         1 RES1   0.0000
   316 H168     -2.8356   -4.4116    3.2568   H         1 RES1   0.0000
   317 H169     -3.7918   -1.9863    4.8287   H         1 RES1   0.0000
   318 H170     -4.7419   -2.8920    3.6560   H         1 RES1   0.0000
   319 H171     -3.3211   -1.9903    3.1174   H         1 RES1   0.0000
   320 H172      0.5879    1.7786   -5.3081   H         1 RES1   0.0000
   321 H173     -1.3033    2.6529   -6.7567   H         1 RES1   0.0000
   322 H174     -1.3384    4.4294   -6.8078   H         1 RES1   0.0000
   323 H175     -2.9629    4.3650   -4.9824   H         1 RES1   0.0000
   324 H176     -5.8783    2.4294   -5.5457   H         1 RES1   0.0000
   325 H177     -5.4373    4.1040   -5.9488   H         1 RES1   0.0000
   326 H178     -4.4843    1.8044   -3.3333   H         1 RES1   0.0000
   327 H179     -6.2344    2.0856   -3.1857   H         1 RES1   0.0000
   328 H180     -7.2826    3.7525   -2.6589   H         1 RES1   0.0000
   329 H181     -7.3840    5.1901   -1.6538   H         1 RES1   0.0000
   330 H182     -8.3832    3.9533    0.1730   H         1 RES1   0.0000
   331 H183     -7.8664    2.4140   -0.4954   H         1 RES1   0.0000
   332 H184     -9.4794    2.7456   -2.3991   H         1 RES1   0.0000
   333 H185    -10.0081    4.2519   -1.6518   H         1 RES1   0.0000
   334 H186    -10.2122    1.4812   -0.3777   H         1 RES1   0.0000
   335 H187    -11.5419    2.4106   -1.0492   H         1 RES1   0.0000
   336 H188    -10.7144    2.9865    0.3884   H         1 RES1   0.0000
   337 H189     -5.5601    3.5809    0.9357   H         1 RES1   0.0000
   338 H190     -6.4470    5.0411    0.4786   H         1 RES1   0.0000
   339 H191     -3.4644    4.6236    0.0654   H         1 RES1   0.0000
   340 H192     -4.2253    5.5247    1.3735   H         1 RES1   0.0000
   341 H193     -3.5875    7.1935   -0.1411   H         1 RES1   0.0000
   342 H194     -5.3017    7.0019   -0.4380   H         1 RES1   0.0000
   343 H195     -3.1566    5.6190   -2.1195   H         1 RES1   0.0000
   344 H196     -3.8455    7.2005   -2.5188   H         1 RES1   0.0000
   345 H197     -4.8716    5.7752   -2.5135   H         1 RES1   0.0000
   346 H198     -0.9733    5.6943   -4.6612   H         1 RES1   0.0000
@<TRIPOS>BOND
     1     1    15    1
     2     1    17    1
     3     1    20    1
     4     1   130    1
     5     1   132    1
     6     1   135    1
     7     1   245    1
     8     1   247    1
     9     1   250    1
    10     2     3    1
    11     2    51    1
    12     2    52    1
    13     2    53    1
    14     3     4    1
    15     3    54    1
    16     3    55    1
    17     4     5    1
    18     4    56    1
    19     4    57    1
    20     5     6    1
    21     5    58    1
    22     5    59    1
    23     6     7    1
    24     6    60    1
    25     6    61    1
    26     7     8    1
    27     7    62    1
    28     7    63    1
    29     8     9    1
    30     9    10    1
    31     9    50    2
    32    10    11    2
    33    10    64    1
    34    11    12    1
    35    11    30    1
    36    12    13    1
    37    12    65    1
    38    12    66    1
    39    13    14    1
    40    13    67    1
    41    14    15    2
    42    14    16    1
    43    16    17    1
    44    16    68    1
    45    16    69    1
    46    17    18    1
    47    18    19    1
    48    18    70    1
    49    18    71    1
    50    19    20    2
    51    19    21    1
    52    21    22    1
    53    21    26    1
    54    22    23    1
    55    22    72    1
    56    22    73    1
    57    23    24    1
    58    23    74    1
    59    23    75    1
    60    24    25    1
    61    24    76    1
    62    24    77    1
    63    25    78    1
    64    25    79    1
    65    25    80    1
    66    26    27    1
    67    26    81    1
    68    26    82    1
    69    27    28    1
    70    27    83    1
    71    27    84    1
    72    28    29    1
    73    28    85    1
    74    28    86    1
    75    29    87    1
    76    29    88    1
    77    29    89    1
    78    30    31    2
    79    30    90    1
    80    31    32    1
    81    31    50    1
    82    32    33    1
    83    32    91    1
    84    32    92    1
    85    33    34    1
    86    33    93    1
    87    34    35    2
    88    34    36    1
    89    36    37    1
    90    36    94    1
    91    36    95    1
    92    37    38    1
    93    38    39    1
    94    38    96    1
    95    38    97    1
    96    39    40    2
    97    39    41    1
    98    41    42    1
    99    41    46    1
   100    42    43    1
   101    42    98    1
   102    42    99    1
   103    43    44    1
   104    43   100    1
   105    43   101    1
   106    44    45    1
   107    44   102    1
   108    44   103    1
   109    45   104    1
   110    45   105    1
   111    45   106    1
   112    46    47    1
   113    46   107    1
   114    46   108    1
   115    47    48    1
   116    47   109    1
   117    47   110    1
   118    48    49    1
   119    48   111    1
   120    48   112    1
   121    49   113    1
   122    49   114    1
   123    49   115    1
   124    50   116    1
   125   117   118    1
   126   117   166    1
   127   117   167    1
   128   117   168    1
   129   118   119    1
   130   118   169    1
   131   118   170    1
   132   119   120    1
   133   119   171    1
   134   119   172    1
   135   120   121    1
   136   120   173    1
   137   120   174    1
   138   121   122    1
   139   121   175    1
   140   121   176    1
   141   122   123    1
   142   122   177    1
   143   122   178    1
   144   123   124    1
   145   124   125    1
   146   124   165    2
   147   125   126    2
   148   125   179    1
   149   126   127    1
   150   126   145    1
   151   127   128    1
   152   127   180    1
   153   127   181    1
   154   128   129    1
   155   128   182    1
   156   129   130    2
   157   129   131    1
   158   131   132    1
   159   131   183    1
   160   131   184    1
   161   132   133    1
   162   133   134    1
   163   133   185    1
   164   133   186    1
   165   134   135    2
   166   134   136    1
   167   136   137    1
   168   136   141    1
   169   137   138    1
   170   137   187    1
   171   137   188    1
   172   138   139    1
   173   138   189    1
   174   138   190    1
   175   139   140    1
   176   139   191    1
   177   139   192    1
   178   140   193    1
   179   140   194    1
   180   140   195    1
   181   141   142    1
   182   141   196    1
   183   141   197    1
   184   142   143    1
   185   142   198    1
   186   142   199    1
   187   143   144    1
   188   143   200    1
   189   143   201    1
   190   144   202    1
   191   144   203    1
   192   144   204    1
   193   145   146    2
   194   145   205    1
   195   146   147    1
   196   146   165    1
   197   147   148    1
   198   147   206    1
   199   147   207    1
   200   148   149    1
   201   148   208    1
   202   149   150    2
   203   149   151    1
   204   151   152    1
   205   151   209    1
   206   151   210    1
   207   152   153    1
   208   153   154    1
   209   153   211    1
   210   153   212    1
   211   154   155    2
   212   154   156    1
   213   156   157    1
   214   156   161    1
   215   157   158    1
   216   157   213    1
   217   157   214    1
   218   158   159    1
   219   158   215    1
   220   158   216    1
   221   159   160    1
   222   159   217    1
   223   159   218    1
   224   160   219    1
   225   160   220    1
   226   160   221    1
   227   161   162    1
   228   161   222    1
   229   161   223    1
   230   162   163    1
   231   162   224    1
   232   162   225    1
   233   163   164    1
   234   163   226    1
   235   163   227    1
   236   164   228    1
   237   164   229    1
   238   164   230    1
   239   165   231    1
   240   232   233    1
   241   232   281    1
   242   232   282    1
   243   232   283    1
   244   233   234    1
   245   233   284    1
   246   233   285    1
   247   234   235    1
   248   234   286    1
   249   234   287    1
   250   235   236    1
   251   235   288    1
   252   235   289    1
   253   236   237    1
   254   236   290    1
   255   236   291    1
   256   237   238    1
   257   237   292    1
   258   237   293    1
   259   238   239    1
   260   239   240    1
   261   239   280    2
   262   240   241    2
   263   240   294    1
   264   241   242    1
   265   241   260    1
   266   242   243    1
   267   242   295    1
   268   242   296    1
   269   243   244    1
   270   243   297    1
   271   244   245    2
   272   244   246    1
   273   246   247    1
   274   246   298    1
   275   246   299    1
   276   247   248    1
   277   248   249    1
   278   248   300    1
   279   248   301    1
   280   249   250    2
   281   249   251    1
   282   251   252    1
   283   251   256    1
   284   252   253    1
   285   252   302    1
   286   252   303    1
   287   253   254    1
   288   253   304    1
   289   253   305    1
   290   254   255    1
   291   254   306    1
   292   254   307    1
   293   255   308    1
   294   255   309    1
   295   255   310    1
   296   256   257    1
   297   256   311    1
   298   256   312    1
   299   257   258    1
   300   257   313    1
   301   257   314    1
   302   258   259    1
   303   258   315    1
   304   258   316    1
   305   259   317    1
   306   259   318    1
   307   259   319    1
   308   260   261    2
   309   260   320    1
   310   261   262    1
   311   261   280    1
   312   262   263    1
   313   262   321    1
   314   262   322    1
   315   263   264    1
   316   263   323    1
   317   264   265    2
   318   264   266    1
   319   266   267    1
   320   266   324    1
   321   266   325    1
   322   267   268    1
   323   268   269    1
   324   268   326    1
   325   268   327    1
   326   269   270    2
   327   269   271    1
   328   271   272    1
   329   271   276    1
   330   272   273    1
   331   272   328    1
   332   272   329    1
   333   273   274    1
   334   273   330    1
   335   273   331    1
   336   274   275    1
   337   274   332    1
   338   274   333    1
   339   275   334    1
   340   275   335    1
   341   275   336    1
   342   276   277    1
   343   276   337    1
   344   276   338    1
   345   277   278    1
   346   277   339    1
   347   277   340    1
   348   278   279    1
   349   278   341    1
   350   278   342    1
   351   279   343    1
   352   279   344    1
   353   279   345    1
   354   280   346    1
@<TRIPOS>SUBSTRUCTURE
     1 RES1      346 GROUP             0 ****  ****    0  
