@<TRIPOS>MOLECULE
am_c3_9H2O_c0_0_nunpairedes_0_charge_3 Charge: 3 Unpaired_Electrons: 6 XTB_Unpaired_Electrons: 0 XTB_Charge: 3
   152   167     1     0     0
SMALL
NoCharges
****
Generated from Architector

@<TRIPOS>ATOM
     1 Eu1      -0.0205   -0.0709    0.0345   Eu        1 RES1   0.0000
     2 C1       -9.1609    2.6565    3.6727   C.3       1 RES1   0.0000
     3 C2       -8.0008    3.6511    3.5718   C.3       1 RES1   0.0000
     4 C3       -6.9545    3.1275    2.6456   C.ar      1 RES1   0.0000
     5 C4       -6.1502    2.0512    3.0249   C.ar      1 RES1   0.0000
     6 C5       -5.2021    1.5445    2.1594   C.ar      1 RES1   0.0000
     7 C6       -5.0320    2.1301    0.9068   C.ar      1 RES1   0.0000
     8 N1       -4.0683    1.5851    0.0273   N.am      1 RES1   0.0000
     9 C7       -4.5718    1.1724   -1.2850   C.3       1 RES1   0.0000
    10 C8       -4.0431    2.0532   -2.4126   C.3       1 RES1   0.0000
    11 C9       -2.8550    1.1936    0.4150   C.2       1 RES1   0.0000
    12 O1       -2.2450    0.3062   -0.2242   O.2       1 RES1   0.0000
    13 C10      -2.1083    1.8404    1.5703   C.ar      1 RES1   0.0000
    14 C11      -2.4990    2.8823    2.4336   C.ar      1 RES1   0.0000
    15 C12      -1.6322    3.2948    3.4233   C.ar      1 RES1   0.0000
    16 C13      -0.3572    2.7145    3.5573   C.ar      1 RES1   0.0000
    17 C14       0.5841    3.0516    4.5726   C.ar      1 RES1   0.0000
    18 C15       1.7979    2.4443    4.6403   C.ar      1 RES1   0.0000
    19 C16       2.1852    1.4497    3.6967   C.ar      1 RES1   0.0000
    20 C17       3.4120    0.7591    3.7236   C.ar      1 RES1   0.0000
    21 C18       3.7187   -0.1730    2.7548   C.ar      1 RES1   0.0000
    22 C19       2.7830   -0.4295    1.7387   C.ar      1 RES1   0.0000
    23 C20       2.8431   -1.4095    0.5909   C.2       1 RES1   0.0000
    24 O2        1.7612   -1.5948   -0.0107   O.2       1 RES1   0.0000
    25 N2        3.9171   -2.1120    0.2172   N.am      1 RES1   0.0000
    26 C21       3.6808   -3.1272   -0.8139   C.3       1 RES1   0.0000
    27 C22       2.8251   -4.2906   -0.3238   C.3       1 RES1   0.0000
    28 C23       5.2748   -1.8530    0.5361   C.ar      1 RES1   0.0000
    29 C24       6.1544   -2.9039    0.7808   C.ar      1 RES1   0.0000
    30 C25       7.4923   -2.6408    1.0217   C.ar      1 RES1   0.0000
    31 C26       7.9766   -1.3350    1.0232   C.ar      1 RES1   0.0000
    32 C27       9.4207   -1.0472    1.2781   C.3       1 RES1   0.0000
    33 C28      10.1090   -0.4312    0.0587   C.3       1 RES1   0.0000
    34 C29       7.0865   -0.2915    0.7655   C.ar      1 RES1   0.0000
    35 C30       5.7561   -0.5453    0.5068   C.ar      1 RES1   0.0000
    36 N3        1.5944    0.1703    1.7544   N.ar      1 RES1   0.0000
    37 C31       1.2830    1.0873    2.6759   C.ar      1 RES1   0.0000
    38 C32      -0.0245    1.7177    2.6173   C.ar      1 RES1   0.0000
    39 N4       -0.8907    1.3127    1.6812   N.ar      1 RES1   0.0000
    40 C33      -5.8589    3.1682    0.4963   C.ar      1 RES1   0.0000
    41 C34      -6.8067    3.6629    1.3690   C.ar      1 RES1   0.0000
    42 H1       -9.9273    3.0359    4.3422   H         1 RES1   0.0000
    43 H2       -8.8144    1.7008    4.0602   H         1 RES1   0.0000
    44 H3       -9.6073    2.4893    2.6949   H         1 RES1   0.0000
    45 H4       -7.5902    3.8124    4.5682   H         1 RES1   0.0000
    46 H5       -8.3685    4.6044    3.1980   H         1 RES1   0.0000
    47 H6       -6.2752    1.6148    4.0056   H         1 RES1   0.0000
    48 H7       -4.5850    0.6935    2.4225   H         1 RES1   0.0000
    49 H8       -5.6569    1.2331   -1.2404   H         1 RES1   0.0000
    50 H9       -4.2746    0.1380   -1.4699   H         1 RES1   0.0000
    51 H10      -4.2908    3.1009   -2.2586   H         1 RES1   0.0000
    52 H11      -4.4759    1.7362   -3.3588   H         1 RES1   0.0000
    53 H12      -2.9650    1.9603   -2.4749   H         1 RES1   0.0000
    54 H13      -3.4696    3.3442    2.3473   H         1 RES1   0.0000
    55 H14      -1.9296    4.0584    4.1294   H         1 RES1   0.0000
    56 H15       0.3014    3.7860    5.3039   H         1 RES1   0.0000
    57 H16       2.4942    2.6963    5.4181   H         1 RES1   0.0000
    58 H17       4.1020    0.9669    4.5297   H         1 RES1   0.0000
    59 H18       4.6535   -0.7103    2.7870   H         1 RES1   0.0000
    60 H19       4.6536   -3.4861   -1.1435   H         1 RES1   0.0000
    61 H20       3.1778   -2.6457   -1.6589   H         1 RES1   0.0000
    62 H21       3.2787   -4.7770    0.5366   H         1 RES1   0.0000
    63 H22       2.7298   -5.0228   -1.1226   H         1 RES1   0.0000
    64 H23       1.8285   -3.9492   -0.0486   H         1 RES1   0.0000
    65 H24       5.7955   -3.9232    0.7955   H         1 RES1   0.0000
    66 H25       8.1690   -3.4600    1.2245   H         1 RES1   0.0000
    67 H26       9.9396   -1.9625    1.5539   H         1 RES1   0.0000
    68 H27       9.5033   -0.3483    2.1112   H         1 RES1   0.0000
    69 H28      10.0526   -1.0952   -0.8004   H         1 RES1   0.0000
    70 H29      11.1563   -0.2501    0.2829   H         1 RES1   0.0000
    71 H30       9.6494    0.5159   -0.2117   H         1 RES1   0.0000
    72 H31       7.4349    0.7323    0.7654   H         1 RES1   0.0000
    73 H32       5.0755    0.2649    0.2759   H         1 RES1   0.0000
    74 H33      -5.7529    3.5898   -0.4917   H         1 RES1   0.0000
    75 H34      -7.4280    4.4884    1.0522   H         1 RES1   0.0000
    76 C35       8.5982    4.4774   -3.5922   C.3       1 RES1   0.0000
    77 C36       7.2944    4.5989   -4.3839   C.3       1 RES1   0.0000
    78 C37       6.1063    4.2575   -3.5475   C.ar      1 RES1   0.0000
    79 C38       5.9556    2.9720   -3.0274   C.ar      1 RES1   0.0000
    80 C39       4.8700    2.6552   -2.2344   C.ar      1 RES1   0.0000
    81 C40       3.8943    3.6150   -1.9782   C.ar      1 RES1   0.0000
    82 N5        2.7789    3.2886   -1.1680   N.am      1 RES1   0.0000
    83 C41       2.4853    4.2088   -0.0652   C.3       1 RES1   0.0000
    84 C42       1.1100    4.8646   -0.1628   C.3       1 RES1   0.0000
    85 C43       2.0824    2.1480   -1.1877   C.2       1 RES1   0.0000
    86 O3        1.3108    1.8950   -0.2327   O.2       1 RES1   0.0000
    87 C44       2.0244    1.1789   -2.3483   C.ar      1 RES1   0.0000
    88 C45       2.5548    1.3016   -3.6446   C.ar      1 RES1   0.0000
    89 C46       2.2765    0.3213   -4.5735   C.ar      1 RES1   0.0000
    90 C47       1.4480   -0.7678   -4.2471   C.ar      1 RES1   0.0000
    91 C48       1.1225   -1.8217   -5.1473   C.ar      1 RES1   0.0000
    92 C49       0.3122   -2.8448   -4.7718   C.ar      1 RES1   0.0000
    93 C50      -0.2663   -2.8948   -3.4708   C.ar      1 RES1   0.0000
    94 C51      -1.0817   -3.9431   -3.0045   C.ar      1 RES1   0.0000
    95 C52      -1.5894   -3.9281   -1.7232   C.ar      1 RES1   0.0000
    96 C53      -1.3424   -2.8130   -0.9031   C.ar      1 RES1   0.0000
    97 C54      -1.6730   -2.6281    0.5656   C.2       1 RES1   0.0000
    98 O4       -1.0327   -1.7330    1.1653   O.2       1 RES1   0.0000
    99 N6       -2.5011   -3.4115    1.2632   N.am      1 RES1   0.0000
   100 C55      -2.5273   -3.1839    2.7113   C.3       1 RES1   0.0000
   101 C56      -1.2312   -3.5935    3.4036   C.3       1 RES1   0.0000
   102 C57      -3.4732   -4.3130    0.7585   C.ar      1 RES1   0.0000
   103 C58      -3.6863   -5.5428    1.3779   C.ar      1 RES1   0.0000
   104 C59      -4.6689   -6.3936    0.9002   C.ar      1 RES1   0.0000
   105 C60      -5.4540   -6.0398   -0.1948   C.ar      1 RES1   0.0000
   106 C61      -6.5128   -6.9563   -0.7175   C.3       1 RES1   0.0000
   107 C62      -7.9154   -6.3633   -0.5699   C.3       1 RES1   0.0000
   108 C63      -5.2429   -4.7960   -0.7928   C.ar      1 RES1   0.0000
   109 C64      -4.2799   -3.9337   -0.3135   C.ar      1 RES1   0.0000
   110 N7       -0.6008   -1.8065   -1.3609   N.ar      1 RES1   0.0000
   111 C65      -0.0233   -1.8408   -2.5675   C.ar      1 RES1   0.0000
   112 C66       0.8988   -0.7791   -2.9451   C.ar      1 RES1   0.0000
   113 N8        1.2118    0.1633   -2.0473   N.ar      1 RES1   0.0000
   114 C67       4.0484    4.9105   -2.4682   C.ar      1 RES1   0.0000
   115 C68       5.1455    5.2204   -3.2473   C.ar      1 RES1   0.0000
   116 H35       9.4408    4.7349   -4.2270   H         1 RES1   0.0000
   117 H36       8.7491    3.4643   -3.2272   H         1 RES1   0.0000
   118 H37       8.5936    5.1494   -2.7376   H         1 RES1   0.0000
   119 H38       7.3478    3.9295   -5.2428   H         1 RES1   0.0000
   120 H39       7.1905    5.6168   -4.7530   H         1 RES1   0.0000
   121 H40       6.6952    2.2160   -3.2518   H         1 RES1   0.0000
   122 H41       4.7591    1.6665   -1.8065   H         1 RES1   0.0000
   123 H42       3.2608    4.9711   -0.0712   H         1 RES1   0.0000
   124 H43       2.5399    3.6516    0.8738   H         1 RES1   0.0000
   125 H44       0.9811    5.3965   -1.1038   H         1 RES1   0.0000
   126 H45       1.0123    5.5844    0.6473   H         1 RES1   0.0000
   127 H46       0.3140    4.1279   -0.0537   H         1 RES1   0.0000
   128 H47       3.1634    2.1494   -3.9155   H         1 RES1   0.0000
   129 H48       2.6843    0.3796   -5.5734   H         1 RES1   0.0000
   130 H49       1.5448   -1.7915   -6.1342   H         1 RES1   0.0000
   131 H50       0.0767   -3.6367   -5.4581   H         1 RES1   0.0000
   132 H51      -1.2872   -4.7713   -3.6685   H         1 RES1   0.0000
   133 H52      -2.1690   -4.7606   -1.3571   H         1 RES1   0.0000
   134 H53      -3.3677   -3.7473    3.1121   H         1 RES1   0.0000
   135 H54      -2.7009   -2.1181    2.8851   H         1 RES1   0.0000
   136 H55      -1.0043   -4.6426    3.2277   H         1 RES1   0.0000
   137 H56      -1.3345   -3.4384    4.4752   H         1 RES1   0.0000
   138 H57      -0.3976   -2.9891    3.0489   H         1 RES1   0.0000
   139 H58      -3.0823   -5.8433    2.2225   H         1 RES1   0.0000
   140 H59      -4.8219   -7.3523    1.3777   H         1 RES1   0.0000
   141 H60      -6.4734   -7.9091   -0.1944   H         1 RES1   0.0000
   142 H61      -6.3285   -7.1456   -1.7759   H         1 RES1   0.0000
   143 H62      -8.1458   -6.1571    0.4723   H         1 RES1   0.0000
   144 H63      -8.6516   -7.0655   -0.9505   H         1 RES1   0.0000
   145 H64      -8.0085   -5.4362   -1.1286   H         1 RES1   0.0000
   146 H65      -5.8415   -4.4942   -1.6411   H         1 RES1   0.0000
   147 H66      -4.1453   -2.9544   -0.7540   H         1 RES1   0.0000
   148 H67       3.3118    5.6732   -2.2624   H         1 RES1   0.0000
   149 H68       5.2403    6.2238   -3.6397   H         1 RES1   0.0000
   150 O5       -0.9018    1.8775   -1.7720   O.3       1 RES1   0.0000
   151 H69      -0.8168    1.5774   -2.6851   H         1 RES1   0.0000
   152 H70      -0.4717    2.7402   -1.7122   H         1 RES1   0.0000
@<TRIPOS>BOND
     1     1    12    1
     2     1    24    1
     3     1    36    1
     4     1    39    1
     5     1    86    1
     6     1    98    1
     7     1   110    1
     8     1   113    1
     9     1   150    1
    10     2     3    1
    11     2    42    1
    12     2    43    1
    13     2    44    1
    14     3     4    1
    15     3    45    1
    16     3    46    1
    17     4     5    1
    18     4    41    2
    19     5     6    2
    20     5    47    1
    21     6     7    1
    22     6    48    1
    23     7     8    1
    24     7    40    2
    25     8     9    1
    26     8    11    1
    27     9    10    1
    28     9    49    1
    29     9    50    1
    30    10    51    1
    31    10    52    1
    32    10    53    1
    33    11    12    2
    34    11    13    1
    35    13    14    1
    36    13    39    2
    37    14    15    2
    38    14    54    1
    39    15    16    1
    40    15    55    1
    41    16    17    1
    42    16    38    2
    43    17    18    2
    44    17    56    1
    45    18    19    1
    46    18    57    1
    47    19    20    1
    48    19    37    2
    49    20    21    2
    50    20    58    1
    51    21    22    1
    52    21    59    1
    53    22    23    1
    54    22    36    2
    55    23    24    2
    56    23    25    1
    57    25    26    1
    58    25    28    1
    59    26    27    1
    60    26    60    1
    61    26    61    1
    62    27    62    1
    63    27    63    1
    64    27    64    1
    65    28    29    1
    66    28    35    2
    67    29    30    2
    68    29    65    1
    69    30    31    1
    70    30    66    1
    71    31    32    1
    72    31    34    2
    73    32    33    1
    74    32    67    1
    75    32    68    1
    76    33    69    1
    77    33    70    1
    78    33    71    1
    79    34    35    1
    80    34    72    1
    81    35    73    1
    82    36    37    1
    83    37    38    1
    84    38    39    1
    85    40    41    1
    86    40    74    1
    87    41    75    1
    88    76    77    1
    89    76   116    1
    90    76   117    1
    91    76   118    1
    92    77    78    1
    93    77   119    1
    94    77   120    1
    95    78    79    1
    96    78   115    2
    97    79    80    2
    98    79   121    1
    99    80    81    1
   100    80   122    1
   101    81    82    1
   102    81   114    2
   103    82    83    1
   104    82    85    1
   105    83    84    1
   106    83   123    1
   107    83   124    1
   108    84   125    1
   109    84   126    1
   110    84   127    1
   111    85    86    2
   112    85    87    1
   113    87    88    1
   114    87   113    2
   115    88    89    2
   116    88   128    1
   117    89    90    1
   118    89   129    1
   119    90    91    1
   120    90   112    2
   121    91    92    2
   122    91   130    1
   123    92    93    1
   124    92   131    1
   125    93    94    1
   126    93   111    2
   127    94    95    2
   128    94   132    1
   129    95    96    1
   130    95   133    1
   131    96    97    1
   132    96   110    2
   133    97    98    2
   134    97    99    1
   135    99   100    1
   136    99   102    1
   137   100   101    1
   138   100   134    1
   139   100   135    1
   140   101   136    1
   141   101   137    1
   142   101   138    1
   143   102   103    1
   144   102   109    2
   145   103   104    2
   146   103   139    1
   147   104   105    1
   148   104   140    1
   149   105   106    1
   150   105   108    2
   151   106   107    1
   152   106   141    1
   153   106   142    1
   154   107   143    1
   155   107   144    1
   156   107   145    1
   157   108   109    1
   158   108   146    1
   159   109   147    1
   160   110   111    1
   161   111   112    1
   162   112   113    1
   163   114   115    1
   164   114   148    1
   165   115   149    1
   166   150   151    1
   167   150   152    1
@<TRIPOS>SUBSTRUCTURE
     1 RES1      152 GROUP             0 ****  ****    0  
