@<TRIPOS>MOLECULE
am_c3_9H2O_c0_0_nunpairedes_0_charge_3 Charge: 3 Unpaired_Electrons: 6 XTB_Unpaired_Electrons: 0 XTB_Charge: 3
   187   201     1     0     0
SMALL
NoCharges
****
Generated from Architector

@<TRIPOS>ATOM
     1 Eu1      -0.1171   -0.0163    0.0494   Eu        1 RES1   0.0000
     2 C1        0.4743   -2.0641    5.2510   C.3       1 RES1   0.0000
     3 C2        0.4757   -0.5667    5.5511   C.3       1 RES1   0.0000
     4 C3       -0.9041    0.0754    5.3956   C.3       1 RES1   0.0000
     5 C4       -0.8479    1.6043    5.5115   C.3       1 RES1   0.0000
     6 C5       -0.4621    2.2981    4.1941   C.3       1 RES1   0.0000
     7 C6       -1.5839    3.1003    3.5148   C.3       1 RES1   0.0000
     8 N1       -2.6534    2.3278    2.8697   N.am      1 RES1   0.0000
     9 C7       -4.0317    2.6230    3.2582   C.3       1 RES1   0.0000
    10 C8       -4.3292    2.6300    4.7613   C.3       1 RES1   0.0000
    11 C9       -4.4505    1.2438    5.3962   C.3       1 RES1   0.0000
    12 C10      -5.6177    0.4100    4.8663   C.3       1 RES1   0.0000
    13 C11      -6.9880    1.0561    5.0528   C.3       1 RES1   0.0000
    14 C12      -8.1017    0.1226    4.5963   C.3       1 RES1   0.0000
    15 C13      -2.2945    1.6577    1.7751   C.2       1 RES1   0.0000
    16 O1       -1.0808    1.5135    1.4974   O.2       1 RES1   0.0000
    17 C14      -3.2395    1.1255    0.7200   C.ar      1 RES1   0.0000
    18 C15      -4.4210    1.7554    0.2997   C.ar      1 RES1   0.0000
    19 C16      -5.0766    1.2827   -0.8140   C.ar      1 RES1   0.0000
    20 C17      -4.5457    0.2043   -1.5377   C.ar      1 RES1   0.0000
    21 C18      -5.1832   -0.3180   -2.7006   C.ar      1 RES1   0.0000
    22 C19      -4.6141   -1.3262   -3.4002   C.ar      1 RES1   0.0000
    23 C20      -3.3334   -1.8346   -3.0346   C.ar      1 RES1   0.0000
    24 C21      -2.6737   -2.7851   -3.8312   C.ar      1 RES1   0.0000
    25 C22      -1.3992   -3.1738   -3.4913   C.ar      1 RES1   0.0000
    26 C23      -0.7980   -2.5877   -2.3765   C.ar      1 RES1   0.0000
    27 N2       -1.3826   -1.6916   -1.5962   N.ar      1 RES1   0.0000
    28 C24      -2.6516   -1.3288   -1.9008   C.ar      1 RES1   0.0000
    29 C25      -3.3075   -0.3236   -1.0896   C.ar      1 RES1   0.0000
    30 N3       -2.6968    0.1321    0.0144   N.ar      1 RES1   0.0000
    31 H1        1.4426   -2.4986    5.4905   H         1 RES1   0.0000
    32 H2        0.2650   -2.2491    4.1953   H         1 RES1   0.0000
    33 H3       -0.2732   -2.5801    5.8523   H         1 RES1   0.0000
    34 H4        1.1828   -0.0706    4.8823   H         1 RES1   0.0000
    35 H5        0.8172   -0.4149    6.5749   H         1 RES1   0.0000
    36 H6       -1.5565   -0.3266    6.1752   H         1 RES1   0.0000
    37 H7       -1.3210   -0.1921    4.4203   H         1 RES1   0.0000
    38 H8       -0.1183    1.8583    6.2820   H         1 RES1   0.0000
    39 H9       -1.8085    1.9836    5.8575   H         1 RES1   0.0000
    40 H10      -0.0754    1.5613    3.4865   H         1 RES1   0.0000
    41 H11       0.3371    3.0147    4.3883   H         1 RES1   0.0000
    42 H12      -1.1276    3.7233    2.7345   H         1 RES1   0.0000
    43 H13      -2.0568    3.7596    4.2394   H         1 RES1   0.0000
    44 H14      -4.6820    1.8799    2.7964   H         1 RES1   0.0000
    45 H15      -4.2764    3.6142    2.8548   H         1 RES1   0.0000
    46 H16      -5.2739    3.1577    4.8794   H         1 RES1   0.0000
    47 H17      -3.5919    3.2165    5.3094   H         1 RES1   0.0000
    48 H18      -4.5892    1.3812    6.4696   H         1 RES1   0.0000
    49 H19      -3.5249    0.6864    5.2460   H         1 RES1   0.0000
    50 H20      -5.6207   -0.5413    5.4014   H         1 RES1   0.0000
    51 H21      -5.4642    0.1816    3.8088   H         1 RES1   0.0000
    52 H22      -7.0493    1.9829    4.4825   H         1 RES1   0.0000
    53 H23      -7.1328    1.3031    6.1039   H         1 RES1   0.0000
    54 H24      -7.9927   -0.1174    3.5396   H         1 RES1   0.0000
    55 H25      -9.0729    0.5867    4.7401   H         1 RES1   0.0000
    56 H26      -8.0843   -0.8057    5.1622   H         1 RES1   0.0000
    57 H27      -4.8069    2.6239    0.8077   H         1 RES1   0.0000
    58 H28      -5.9853    1.7567   -1.1522   H         1 RES1   0.0000
    59 H29      -6.1342    0.0941   -2.9985   H         1 RES1   0.0000
    60 H30      -5.0960   -1.7433   -4.2722   H         1 RES1   0.0000
    61 H31      -3.1583   -3.1839   -4.7101   H         1 RES1   0.0000
    62 H32      -0.8637   -3.8970   -4.0808   H         1 RES1   0.0000
    63 H33       0.2133   -2.8694   -2.1200   H         1 RES1   0.0000
    64 C26       1.4300   -0.8413   -5.2062   C.3       1 RES1   0.0000
    65 C27       0.1659   -0.9905   -6.0470   C.3       1 RES1   0.0000
    66 C28      -0.3539    0.3306   -6.6145   C.3       1 RES1   0.0000
    67 C29      -0.6088    1.4308   -5.5763   C.3       1 RES1   0.0000
    68 C30      -1.5342    0.9822   -4.4433   C.3       1 RES1   0.0000
    69 C31      -2.2231    2.1332   -3.7020   C.3       1 RES1   0.0000
    70 N4       -1.3565    3.0443   -2.9469   N.am      1 RES1   0.0000
    71 C32      -1.4388    4.4447   -3.3320   C.3       1 RES1   0.0000
    72 C33      -0.3979    4.7590   -4.4058   C.3       1 RES1   0.0000
    73 C34      -0.3631    6.2253   -4.8203   C.3       1 RES1   0.0000
    74 C35       0.8859    6.5474   -5.6479   C.3       1 RES1   0.0000
    75 C36       0.9755    5.8483   -7.0127   C.3       1 RES1   0.0000
    76 C37       1.6355    4.4683   -6.9951   C.3       1 RES1   0.0000
    77 C38      -0.6537    2.5085   -1.9494   C.2       1 RES1   0.0000
    78 O2       -0.8189    1.2925   -1.6847   O.2       1 RES1   0.0000
    79 C39       0.3660    3.2221   -1.0968   C.ar      1 RES1   0.0000
    80 C40       0.8364    4.5440   -1.1905   C.ar      1 RES1   0.0000
    81 C41       1.7671    4.9908   -0.2801   C.ar      1 RES1   0.0000
    82 C42       2.2832    4.1234    0.6923   C.ar      1 RES1   0.0000
    83 C43       3.2741    4.5155    1.6362   C.ar      1 RES1   0.0000
    84 C44       3.8103    3.6090    2.4860   C.ar      1 RES1   0.0000
    85 C45       3.3766    2.2529    2.4839   C.ar      1 RES1   0.0000
    86 C46       3.9128    1.2988    3.3654   C.ar      1 RES1   0.0000
    87 C47       3.4182    0.0197    3.3500   C.ar      1 RES1   0.0000
    88 C48       2.3973   -0.2947    2.4475   C.ar      1 RES1   0.0000
    89 N5        1.8835    0.5644    1.5820   N.ar      1 RES1   0.0000
    90 C49       2.3614    1.8290    1.5946   C.ar      1 RES1   0.0000
    91 C50       1.8112    2.7879    0.6692   C.ar      1 RES1   0.0000
    92 N6        0.8727    2.3821   -0.1929   N.ar      1 RES1   0.0000
    93 H34       1.8642   -1.8188   -5.0016   H         1 RES1   0.0000
    94 H35       1.2152   -0.3579   -4.2519   H         1 RES1   0.0000
    95 H36       2.1699   -0.2493   -5.7402   H         1 RES1   0.0000
    96 H37      -0.6125   -1.4663   -5.4468   H         1 RES1   0.0000
    97 H38       0.3825   -1.6482   -6.8890   H         1 RES1   0.0000
    98 H39      -1.2838    0.1298   -7.1526   H         1 RES1   0.0000
    99 H40       0.3642    0.7121   -7.3439   H         1 RES1   0.0000
   100 H41      -1.0737    2.2622   -6.1092   H         1 RES1   0.0000
   101 H42       0.3430    1.7803   -5.1698   H         1 RES1   0.0000
   102 H43      -0.9868    0.3529   -3.7413   H         1 RES1   0.0000
   103 H44      -2.3399    0.3862   -4.8759   H         1 RES1   0.0000
   104 H45      -2.9453    1.7162   -2.9923   H         1 RES1   0.0000
   105 H46      -2.7543    2.7343   -4.4371   H         1 RES1   0.0000
   106 H47      -1.3430    5.0849   -2.4554   H         1 RES1   0.0000
   107 H48      -2.4413    4.6111   -3.7326   H         1 RES1   0.0000
   108 H49      -0.6188    4.1584   -5.2839   H         1 RES1   0.0000
   109 H50       0.5886    4.4640   -4.0415   H         1 RES1   0.0000
   110 H51      -0.3590    6.8599   -3.9309   H         1 RES1   0.0000
   111 H52      -1.2590    6.4761   -5.3914   H         1 RES1   0.0000
   112 H53       1.7804    6.3037   -5.0644   H         1 RES1   0.0000
   113 H54       0.8914    7.6257   -5.8139   H         1 RES1   0.0000
   114 H55       1.5699    6.4843   -7.6690   H         1 RES1   0.0000
   115 H56      -0.0217    5.7721   -7.4510   H         1 RES1   0.0000
   116 H57       2.5355    4.4795   -6.3814   H         1 RES1   0.0000
   117 H58       1.9257    4.1866   -8.0046   H         1 RES1   0.0000
   118 H59       0.9734    3.6923   -6.6197   H         1 RES1   0.0000
   119 H60       0.5217    5.2171   -1.9652   H         1 RES1   0.0000
   120 H61       2.1221    6.0079   -0.3257   H         1 RES1   0.0000
   121 H62       3.5976    5.5442    1.6545   H         1 RES1   0.0000
   122 H63       4.5791    3.8887    3.1879   H         1 RES1   0.0000
   123 H64       4.6972    1.5810    4.0537   H         1 RES1   0.0000
   124 H65       3.7983   -0.7299    4.0271   H         1 RES1   0.0000
   125 H66       1.9761   -1.2921    2.4442   H         1 RES1   0.0000
   126 C51      -5.0719   -8.6699    0.0810   C.3       1 RES1   0.0000
   127 C52      -3.8786   -7.9542    0.7062   C.3       1 RES1   0.0000
   128 C53      -3.7111   -6.5367    0.1586   C.3       1 RES1   0.0000
   129 C54      -2.4823   -5.7899    0.7012   C.3       1 RES1   0.0000
   130 C55      -2.5278   -5.6942    2.2272   C.3       1 RES1   0.0000
   131 C56      -1.6223   -4.6673    2.9292   C.3       1 RES1   0.0000
   132 N7       -1.6764   -3.2974    2.4398   N.am      1 RES1   0.0000
   133 C57      -2.5964   -2.4018    3.1658   C.3       1 RES1   0.0000
   134 C58      -4.0404   -2.8460    3.4138   C.3       1 RES1   0.0000
   135 C59      -5.0654   -2.3140    2.4030   C.3       1 RES1   0.0000
   136 C60      -5.4130   -3.2980    1.2853   C.3       1 RES1   0.0000
   137 C61      -6.7922   -3.0250    0.6839   C.3       1 RES1   0.0000
   138 C62      -6.8782   -1.6828   -0.0282   C.3       1 RES1   0.0000
   139 C63      -0.7432   -2.6625    1.7218   C.2       1 RES1   0.0000
   140 O3       -0.7711   -1.4085    1.6629   O.2       1 RES1   0.0000
   141 C64       0.4032   -3.2818    0.9415   C.ar      1 RES1   0.0000
   142 C65       0.8744   -4.6076    0.9027   C.ar      1 RES1   0.0000
   143 C66       2.0521   -4.8883    0.2440   C.ar      1 RES1   0.0000
   144 C67       2.7436   -3.8804   -0.4423   C.ar      1 RES1   0.0000
   145 C68       3.9784   -4.0880   -1.1211   C.ar      1 RES1   0.0000
   146 C69       4.5421   -3.0937   -1.8488   C.ar      1 RES1   0.0000
   147 C70       3.9024   -1.8283   -1.9872   C.ar      1 RES1   0.0000
   148 C71       4.4321   -0.8062   -2.7944   C.ar      1 RES1   0.0000
   149 C72       3.7562    0.3822   -2.9040   C.ar      1 RES1   0.0000
   150 C73       2.5520    0.5299   -2.2102   C.ar      1 RES1   0.0000
   151 N8        2.0243   -0.3980   -1.4274   N.ar      1 RES1   0.0000
   152 C74       2.6902   -1.5695   -1.3056   C.ar      1 RES1   0.0000
   153 C75       2.1270   -2.6053   -0.4727   C.ar      1 RES1   0.0000
   154 N9        1.0227   -2.3324    0.2348   N.ar      1 RES1   0.0000
   155 H67      -5.1555   -9.6759    0.4839   H         1 RES1   0.0000
   156 H68      -4.9642   -8.7478   -0.9988   H         1 RES1   0.0000
   157 H69      -6.0007   -8.1444    0.2941   H         1 RES1   0.0000
   158 H70      -2.9750   -8.5306    0.5042   H         1 RES1   0.0000
   159 H71      -4.0236   -7.9197    1.7860   H         1 RES1   0.0000
   160 H72      -4.6085   -5.9589    0.3868   H         1 RES1   0.0000
   161 H73      -3.6267   -6.5936   -0.9285   H         1 RES1   0.0000
   162 H74      -2.4602   -4.7855    0.2632   H         1 RES1   0.0000
   163 H75      -1.5852   -6.3203    0.3767   H         1 RES1   0.0000
   164 H76      -2.2645   -6.6630    2.6499   H         1 RES1   0.0000
   165 H77      -3.5603   -5.4978    2.5114   H         1 RES1   0.0000
   166 H78      -0.5843   -4.9939    2.9484   H         1 RES1   0.0000
   167 H79      -1.9456   -4.6197    3.9726   H         1 RES1   0.0000
   168 H80      -2.6183   -1.4548    2.6158   H         1 RES1   0.0000
   169 H81      -2.1249   -2.2102    4.1355   H         1 RES1   0.0000
   170 H82      -4.3105   -2.4569    4.3964   H         1 RES1   0.0000
   171 H83      -4.1318   -3.9269    3.4827   H         1 RES1   0.0000
   172 H84      -4.7045   -1.3763    1.9684   H         1 RES1   0.0000
   173 H85      -5.9833   -2.0878    2.9492   H         1 RES1   0.0000
   174 H86      -5.4347   -4.3050    1.7045   H         1 RES1   0.0000
   175 H87      -4.6438   -3.2703    0.5071   H         1 RES1   0.0000
   176 H88      -7.5312   -3.0680    1.4864   H         1 RES1   0.0000
   177 H89      -7.0371   -3.8220   -0.0203   H         1 RES1   0.0000
   178 H90      -6.7293   -0.8601    0.6677   H         1 RES1   0.0000
   179 H91      -7.8517   -1.5672   -0.4936   H         1 RES1   0.0000
   180 H92      -6.1178   -1.6228   -0.8045   H         1 RES1   0.0000
   181 H93       0.3328   -5.4191    1.3528   H         1 RES1   0.0000
   182 H94       2.4344   -5.8968    0.2371   H         1 RES1   0.0000
   183 H95       4.4562   -5.0519   -1.0447   H         1 RES1   0.0000
   184 H96       5.4786   -3.2426   -2.3621   H         1 RES1   0.0000
   185 H97       5.3623   -0.9625   -3.3226   H         1 RES1   0.0000
   186 H98       4.1399    1.1896   -3.5070   H         1 RES1   0.0000
   187 H99       1.9977    1.4546   -2.3040   H         1 RES1   0.0000
@<TRIPOS>BOND
     1     1    16    1
     2     1    27    1
     3     1    30    1
     4     1    78    1
     5     1    89    1
     6     1    92    1
     7     1   140    1
     8     1   151    1
     9     1   154    1
    10     2     3    1
    11     2    31    1
    12     2    32    1
    13     2    33    1
    14     3     4    1
    15     3    34    1
    16     3    35    1
    17     4     5    1
    18     4    36    1
    19     4    37    1
    20     5     6    1
    21     5    38    1
    22     5    39    1
    23     6     7    1
    24     6    40    1
    25     6    41    1
    26     7     8    1
    27     7    42    1
    28     7    43    1
    29     8     9    1
    30     8    15    1
    31     9    10    1
    32     9    44    1
    33     9    45    1
    34    10    11    1
    35    10    46    1
    36    10    47    1
    37    11    12    1
    38    11    48    1
    39    11    49    1
    40    12    13    1
    41    12    50    1
    42    12    51    1
    43    13    14    1
    44    13    52    1
    45    13    53    1
    46    14    54    1
    47    14    55    1
    48    14    56    1
    49    15    16    2
    50    15    17    1
    51    17    18    1
    52    17    30    2
    53    18    19    2
    54    18    57    1
    55    19    20    1
    56    19    58    1
    57    20    21    1
    58    20    29    2
    59    21    22    2
    60    21    59    1
    61    22    23    1
    62    22    60    1
    63    23    24    1
    64    23    28    2
    65    24    25    2
    66    24    61    1
    67    25    26    1
    68    25    62    1
    69    26    27    2
    70    26    63    1
    71    27    28    1
    72    28    29    1
    73    29    30    1
    74    64    65    1
    75    64    93    1
    76    64    94    1
    77    64    95    1
    78    65    66    1
    79    65    96    1
    80    65    97    1
    81    66    67    1
    82    66    98    1
    83    66    99    1
    84    67    68    1
    85    67   100    1
    86    67   101    1
    87    68    69    1
    88    68   102    1
    89    68   103    1
    90    69    70    1
    91    69   104    1
    92    69   105    1
    93    70    71    1
    94    70    77    1
    95    71    72    1
    96    71   106    1
    97    71   107    1
    98    72    73    1
    99    72   108    1
   100    72   109    1
   101    73    74    1
   102    73   110    1
   103    73   111    1
   104    74    75    1
   105    74   112    1
   106    74   113    1
   107    75    76    1
   108    75   114    1
   109    75   115    1
   110    76   116    1
   111    76   117    1
   112    76   118    1
   113    77    78    2
   114    77    79    1
   115    79    80    1
   116    79    92    2
   117    80    81    2
   118    80   119    1
   119    81    82    1
   120    81   120    1
   121    82    83    1
   122    82    91    2
   123    83    84    2
   124    83   121    1
   125    84    85    1
   126    84   122    1
   127    85    86    1
   128    85    90    2
   129    86    87    2
   130    86   123    1
   131    87    88    1
   132    87   124    1
   133    88    89    2
   134    88   125    1
   135    89    90    1
   136    90    91    1
   137    91    92    1
   138   126   127    1
   139   126   155    1
   140   126   156    1
   141   126   157    1
   142   127   128    1
   143   127   158    1
   144   127   159    1
   145   128   129    1
   146   128   160    1
   147   128   161    1
   148   129   130    1
   149   129   162    1
   150   129   163    1
   151   130   131    1
   152   130   164    1
   153   130   165    1
   154   131   132    1
   155   131   166    1
   156   131   167    1
   157   132   133    1
   158   132   139    1
   159   133   134    1
   160   133   168    1
   161   133   169    1
   162   134   135    1
   163   134   170    1
   164   134   171    1
   165   135   136    1
   166   135   172    1
   167   135   173    1
   168   136   137    1
   169   136   174    1
   170   136   175    1
   171   137   138    1
   172   137   176    1
   173   137   177    1
   174   138   178    1
   175   138   179    1
   176   138   180    1
   177   139   140    2
   178   139   141    1
   179   141   142    1
   180   141   154    2
   181   142   143    2
   182   142   181    1
   183   143   144    1
   184   143   182    1
   185   144   145    1
   186   144   153    2
   187   145   146    2
   188   145   183    1
   189   146   147    1
   190   146   184    1
   191   147   148    1
   192   147   152    2
   193   148   149    2
   194   148   185    1
   195   149   150    1
   196   149   186    1
   197   150   151    2
   198   150   187    1
   199   151   152    1
   200   152   153    1
   201   153   154    1
@<TRIPOS>SUBSTRUCTURE
     1 RES1      187 GROUP             0 ****  ****    0  
