@<TRIPOS>MOLECULE
cn9_YICLED_0_nunpairedes_0_charge_3 Charge: 3 Unpaired_Electrons: 6 XTB_Unpaired_Electrons: 0 XTB_Charge: 3
   352   360     1     0     0
SMALL
NoCharges
****
Generated from Architector

@<TRIPOS>ATOM
     1 Eu1       0.0644    0.2040    0.1570   Eu        1 RES1   0.0000
     2 C1       -4.2058   -5.8086    3.2300   C.3       1 RES1   0.0000
     3 C2       -4.3497   -6.5521    4.5545   C.3       1 RES1   0.0000
     4 C3       -4.3608   -5.6664    5.8048   C.3       1 RES1   0.0000
     5 C4       -5.6214   -4.8151    6.0052   C.3       1 RES1   0.0000
     6 C5       -5.6122   -3.4689    5.2802   C.3       1 RES1   0.0000
     7 C6       -4.6011   -2.4759    5.8512   C.3       1 RES1   0.0000
     8 C7       -4.5701   -1.1778    5.0392   C.3       1 RES1   0.0000
     9 C8       -4.1618   -1.4758    3.5952   C.3       1 RES1   0.0000
    10 N1       -3.7247   -0.3361    2.8084   N.am      1 RES1   0.0000
    11 C9       -4.7004    0.7368    2.6057   C.3       1 RES1   0.0000
    12 C10      -6.0514    0.2975    2.0504   C.3       1 RES1   0.0000
    13 C11      -5.9410   -0.1237    0.5835   C.3       1 RES1   0.0000
    14 C12      -6.3838    0.9522   -0.4116   C.3       1 RES1   0.0000
    15 C13      -5.6176    2.2800   -0.3510   C.3       1 RES1   0.0000
    16 C14      -6.2293    3.3507    0.5536   C.3       1 RES1   0.0000
    17 C15      -5.4344    4.6505    0.4532   C.3       1 RES1   0.0000
    18 C16      -6.0107    5.7507    1.3323   C.3       1 RES1   0.0000
    19 C17      -2.5051   -0.2197    2.2845   C.2       1 RES1   0.0000
    20 O1       -2.2288    0.5362    1.3425   O.2       1 RES1   0.0000
    21 C18      -1.3575   -0.9391    2.9918   C.3       1 RES1   0.0000
    22 C19      -1.0741   -0.2485    4.3263   C.3       1 RES1   0.0000
    23 C20       0.3706   -0.6559    4.5477   C.3       1 RES1   0.0000
    24 C21       0.9658   -0.6816    3.1346   C.3       1 RES1   0.0000
    25 C22       1.7752    0.5614    2.7284   C.2       1 RES1   0.0000
    26 O2        1.3071    1.2565    1.8017   O.2       1 RES1   0.0000
    27 N2        2.9082    0.8765    3.3460   N.am      1 RES1   0.0000
    28 C23       3.5731    0.0642    4.3523   C.3       1 RES1   0.0000
    29 C24       3.3537    0.4978    5.8121   C.3       1 RES1   0.0000
    30 C25       4.3205    1.5652    6.3195   C.3       1 RES1   0.0000
    31 C26       4.3837    1.6211    7.8473   C.3       1 RES1   0.0000
    32 C27       3.0522    1.8887    8.5534   C.3       1 RES1   0.0000
    33 C28       2.2386    3.0984    8.0821   C.3       1 RES1   0.0000
    34 C29       2.8270    4.4650    8.4475   C.3       1 RES1   0.0000
    35 C30       3.9175    4.9653    7.5074   C.3       1 RES1   0.0000
    36 C31       3.3918    2.2435    3.1159   C.3       1 RES1   0.0000
    37 C32       4.8853    2.5567    3.1394   C.3       1 RES1   0.0000
    38 C33       5.6033    2.4569    1.7898   C.3       1 RES1   0.0000
    39 C34       6.2984    1.1199    1.5271   C.3       1 RES1   0.0000
    40 C35       5.4127    0.0398    0.9090   C.3       1 RES1   0.0000
    41 C36       6.2573   -1.0465    0.2336   C.3       1 RES1   0.0000
    42 C37       7.1803   -1.8350    1.1640   C.3       1 RES1   0.0000
    43 C38       6.4327   -2.6261    2.2292   C.3       1 RES1   0.0000
    44 O3       -0.1571   -0.7783    2.2404   O.3       1 RES1   0.0000
    45 H1       -4.0030   -6.5158    2.4287   H         1 RES1   0.0000
    46 H2       -3.3789   -5.0997    3.2716   H         1 RES1   0.0000
    47 H3       -5.1181   -5.2761    2.9767   H         1 RES1   0.0000
    48 H4       -3.5112   -7.2453    4.6487   H         1 RES1   0.0000
    49 H5       -5.2598   -7.1519    4.5334   H         1 RES1   0.0000
    50 H6       -3.4732   -5.0303    5.8018   H         1 RES1   0.0000
    51 H7       -4.2729   -6.3305    6.6661   H         1 RES1   0.0000
    52 H8       -5.7583   -4.6256    7.0717   H         1 RES1   0.0000
    53 H9       -6.4839   -5.3948    5.6712   H         1 RES1   0.0000
    54 H10      -6.6053   -3.0236    5.3546   H         1 RES1   0.0000
    55 H11      -5.4051   -3.6386    4.2272   H         1 RES1   0.0000
    56 H12      -3.6037   -2.9231    5.8605   H         1 RES1   0.0000
    57 H13      -4.8686   -2.2558    6.8855   H         1 RES1   0.0000
    58 H14      -3.8706   -0.4752    5.4924   H         1 RES1   0.0000
    59 H15      -5.5562   -0.7172    5.0570   H         1 RES1   0.0000
    60 H16      -5.0118   -1.9126    3.0683   H         1 RES1   0.0000
    61 H17      -3.3782   -2.2279    3.6107   H         1 RES1   0.0000
    62 H18      -4.2347    1.4481    1.9248   H         1 RES1   0.0000
    63 H19      -4.8317    1.2083    3.5836   H         1 RES1   0.0000
    64 H20      -6.7501    1.1273    2.1349   H         1 RES1   0.0000
    65 H21      -6.4618   -0.5037    2.6633   H         1 RES1   0.0000
    66 H22      -6.5636   -1.0028    0.4133   H         1 RES1   0.0000
    67 H23      -4.9017   -0.4008    0.3853   H         1 RES1   0.0000
    68 H24      -7.4465    1.1527   -0.2754   H         1 RES1   0.0000
    69 H25      -6.2683    0.5334   -1.4140   H         1 RES1   0.0000
    70 H26      -5.5898    2.7004   -1.3600   H         1 RES1   0.0000
    71 H27      -4.5845    2.1055   -0.0376   H         1 RES1   0.0000
    72 H28      -6.2315    3.0337    1.5972   H         1 RES1   0.0000
    73 H29      -7.2636    3.5288    0.2530   H         1 RES1   0.0000
    74 H30      -5.4212    4.9911   -0.5846   H         1 RES1   0.0000
    75 H31      -4.4016    4.4436    0.7503   H         1 RES1   0.0000
    76 H32      -7.0265    5.9880    1.0274   H         1 RES1   0.0000
    77 H33      -5.4103    6.6532    1.2500   H         1 RES1   0.0000
    78 H34      -6.0311    5.4425    2.3751   H         1 RES1   0.0000
    79 H35      -1.5100   -2.0173    3.1263   H         1 RES1   0.0000
    80 H36      -1.7215   -0.5882    5.1296   H         1 RES1   0.0000
    81 H37      -1.1764    0.8328    4.2080   H         1 RES1   0.0000
    82 H38       0.4043   -1.6631    4.9467   H         1 RES1   0.0000
    83 H39       0.8934    0.0178    5.2126   H         1 RES1   0.0000
    84 H40       1.5874   -1.5718    2.9833   H         1 RES1   0.0000
    85 H41       4.6419    0.0840    4.1325   H         1 RES1   0.0000
    86 H42       3.2402   -0.9648    4.2325   H         1 RES1   0.0000
    87 H43       3.4551   -0.3861    6.4436   H         1 RES1   0.0000
    88 H44       2.3425    0.8738    5.9432   H         1 RES1   0.0000
    89 H45       4.0401    2.5420    5.9295   H         1 RES1   0.0000
    90 H46       5.3279    1.3427    5.9685   H         1 RES1   0.0000
    91 H47       5.1105    2.3814    8.1317   H         1 RES1   0.0000
    92 H48       4.7633    0.6641    8.2144   H         1 RES1   0.0000
    93 H49       3.2581    2.0235    9.6164   H         1 RES1   0.0000
    94 H50       2.4256    0.9968    8.4622   H         1 RES1   0.0000
    95 H51       1.2589    3.0206    8.5627   H         1 RES1   0.0000
    96 H52       2.0688    3.0516    7.0029   H         1 RES1   0.0000
    97 H53       3.2096    4.4221    9.4674   H         1 RES1   0.0000
    98 H54       2.0165    5.1970    8.4376   H         1 RES1   0.0000
    99 H55       4.8250    4.3760    7.5856   H         1 RES1   0.0000
   100 H56       4.1690    5.9930    7.7541   H         1 RES1   0.0000
   101 H57       3.5739    4.9422    6.4737   H         1 RES1   0.0000
   102 H58       2.8984    2.8417    3.8849   H         1 RES1   0.0000
   103 H59       3.0030    2.5501    2.1446   H         1 RES1   0.0000
   104 H60       5.4209    1.9665    3.8760   H         1 RES1   0.0000
   105 H61       4.9556    3.5942    3.4711   H         1 RES1   0.0000
   106 H62       6.3705    3.2314    1.7723   H         1 RES1   0.0000
   107 H63       4.8998    2.6781    0.9858   H         1 RES1   0.0000
   108 H64       6.7316    0.7624    2.4605   H         1 RES1   0.0000
   109 H65       7.1268    1.2991    0.8409   H         1 RES1   0.0000
   110 H66       4.7670    0.5061    0.1547   H         1 RES1   0.0000
   111 H67       4.7563   -0.4088    1.6570   H         1 RES1   0.0000
   112 H68       6.8674   -0.5741   -0.5413   H         1 RES1   0.0000
   113 H69       5.5971   -1.7621   -0.2611   H         1 RES1   0.0000
   114 H70       7.8904   -1.1608    1.6390   H         1 RES1   0.0000
   115 H71       7.7533   -2.5321    0.5495   H         1 RES1   0.0000
   116 H72       5.9582   -1.9684    2.9526   H         1 RES1   0.0000
   117 H73       7.1238   -3.2729    2.7612   H         1 RES1   0.0000
   118 H74       5.6651   -3.2463    1.7733   H         1 RES1   0.0000
   119 C39       0.8881    7.3851   -6.2385   C.3       1 RES1   0.0000
   120 C40      -0.2632    8.1004   -6.9336   C.3       1 RES1   0.0000
   121 C41      -1.6415    7.8122   -6.3263   C.3       1 RES1   0.0000
   122 C42      -1.8967    8.4991   -4.9722   C.3       1 RES1   0.0000
   123 C43      -1.7788    7.5853   -3.7465   C.3       1 RES1   0.0000
   124 C44      -2.9721    6.6373   -3.5881   C.3       1 RES1   0.0000
   125 C45      -2.9765    5.8809   -2.2513   C.3       1 RES1   0.0000
   126 C46      -1.8215    4.8875   -2.2536   C.3       1 RES1   0.0000
   127 N3       -1.5724    4.1105   -1.0471   N.am      1 RES1   0.0000
   128 C47      -1.4968    4.8517    0.2201   C.3       1 RES1   0.0000
   129 C48      -0.6015    6.0929    0.2359   C.3       1 RES1   0.0000
   130 C49       0.8949    5.7890    0.3560   C.3       1 RES1   0.0000
   131 C50       1.4397    5.8736    1.7825   C.3       1 RES1   0.0000
   132 C51       0.9763    4.7591    2.7264   C.3       1 RES1   0.0000
   133 C52      -0.2696    5.0674    3.5602   C.3       1 RES1   0.0000
   134 C53      -0.6772    3.8383    4.3738   C.3       1 RES1   0.0000
   135 C54      -1.9093    4.0899    5.2340   C.3       1 RES1   0.0000
   136 C55      -1.2837    2.8134   -1.0266   C.2       1 RES1   0.0000
   137 O4       -0.7933    2.2609   -0.0236   O.2       1 RES1   0.0000
   138 C56      -1.5715    1.9095   -2.2466   C.3       1 RES1   0.0000
   139 C57      -3.0461    1.6058   -2.4926   C.3       1 RES1   0.0000
   140 C58      -2.9177    0.3758   -3.3810   C.3       1 RES1   0.0000
   141 C59      -1.7608   -0.3911   -2.7199   C.3       1 RES1   0.0000
   142 C60      -2.1751   -1.4556   -1.6685   C.2       1 RES1   0.0000
   143 O5       -1.6231   -1.3656   -0.5500   O.2       1 RES1   0.0000
   144 N4       -3.0779   -2.3960   -1.9391   N.am      1 RES1   0.0000
   145 C61      -3.5435   -2.7832   -3.2680   C.3       1 RES1   0.0000
   146 C62      -5.0092   -2.4601   -3.6263   C.3       1 RES1   0.0000
   147 C63      -6.0278   -3.5348   -3.2417   C.3       1 RES1   0.0000
   148 C64      -7.3922   -3.3477   -3.9135   C.3       1 RES1   0.0000
   149 C65      -8.1010   -2.0223   -3.6219   C.3       1 RES1   0.0000
   150 C66      -8.2254   -1.6143   -2.1510   C.3       1 RES1   0.0000
   151 C67      -9.2284   -2.4152   -1.3147   C.3       1 RES1   0.0000
   152 C68      -8.7038   -3.7446   -0.7846   C.3       1 RES1   0.0000
   153 C69      -3.6848   -3.1083   -0.8072   C.3       1 RES1   0.0000
   154 C70      -3.7978   -4.6328   -0.8486   C.3       1 RES1   0.0000
   155 C71      -2.5371   -5.4396   -0.5206   C.3       1 RES1   0.0000
   156 C72      -1.6971   -5.8634   -1.7260   C.3       1 RES1   0.0000
   157 C73      -0.6195   -4.8548   -2.1159   C.3       1 RES1   0.0000
   158 C74       0.3054   -5.3950   -3.2160   C.3       1 RES1   0.0000
   159 C75      -0.1210   -5.0480   -4.6440   C.3       1 RES1   0.0000
   160 C76      -1.3567   -5.7958   -5.1243   C.3       1 RES1   0.0000
   161 O6       -0.9815    0.6122   -2.0342   O.3       1 RES1   0.0000
   162 H75       1.8316    7.6423   -6.7121   H         1 RES1   0.0000
   163 H76       0.7615    6.3080   -6.3184   H         1 RES1   0.0000
   164 H77       0.9515    7.6634   -5.1891   H         1 RES1   0.0000
   165 H78      -0.2750    7.7931   -7.9811   H         1 RES1   0.0000
   166 H79      -0.0901    9.1768   -6.9180   H         1 RES1   0.0000
   167 H80      -1.7749    6.7334   -6.2253   H         1 RES1   0.0000
   168 H81      -2.3890    8.1637   -7.0388   H         1 RES1   0.0000
   169 H82      -2.8970    8.9349   -4.9688   H         1 RES1   0.0000
   170 H83      -1.1910    9.3247   -4.8664   H         1 RES1   0.0000
   171 H84      -1.7232    8.2118   -2.8545   H         1 RES1   0.0000
   172 H85      -0.8424    7.0301   -3.8157   H         1 RES1   0.0000
   173 H86      -2.9854    5.9207   -4.4115   H         1 RES1   0.0000
   174 H87      -3.8856    7.2282   -3.6582   H         1 RES1   0.0000
   175 H88      -3.9188    5.3509   -2.1270   H         1 RES1   0.0000
   176 H89      -2.8872    6.5951   -1.4369   H         1 RES1   0.0000
   177 H90      -0.9123    5.4586   -2.4509   H         1 RES1   0.0000
   178 H91      -1.9993    4.2140   -3.0854   H         1 RES1   0.0000
   179 H92      -1.1514    4.1381    0.9654   H         1 RES1   0.0000
   180 H93      -2.5187    5.1502    0.4657   H         1 RES1   0.0000
   181 H94      -0.9002    6.7027    1.0895   H         1 RES1   0.0000
   182 H95      -0.7909    6.6951   -0.6503   H         1 RES1   0.0000
   183 H96       1.4479    6.5133   -0.2422   H         1 RES1   0.0000
   184 H97       1.0987    4.7961   -0.0484   H         1 RES1   0.0000
   185 H98       1.1906    6.8433    2.2128   H         1 RES1   0.0000
   186 H99       2.5278    5.8311    1.7168   H         1 RES1   0.0000
   187 H100      1.7798    4.5719    3.4414   H         1 RES1   0.0000
   188 H101      0.8207    3.8353    2.1583   H         1 RES1   0.0000
   189 H102     -1.1113    5.3677    2.9346   H         1 RES1   0.0000
   190 H103     -0.0482    5.8956    4.2377   H         1 RES1   0.0000
   191 H104      0.1552    3.5420    5.0185   H         1 RES1   0.0000
   192 H105     -0.8706    3.0149    3.6748   H         1 RES1   0.0000
   193 H106     -1.7225    4.8937    5.9411   H         1 RES1   0.0000
   194 H107     -2.1697    3.1985    5.8012   H         1 RES1   0.0000
   195 H108     -2.7604    4.3710    4.6173   H         1 RES1   0.0000
   196 H109     -1.1182    2.3121   -3.1597   H         1 RES1   0.0000
   197 H110     -3.5825    2.4230   -2.9698   H         1 RES1   0.0000
   198 H111     -3.5249    1.3455   -1.5481   H         1 RES1   0.0000
   199 H112     -2.6278    0.6726   -4.3921   H         1 RES1   0.0000
   200 H113     -3.8321   -0.1988   -3.4365   H         1 RES1   0.0000
   201 H114     -1.1021   -0.8669   -3.4626   H         1 RES1   0.0000
   202 H115     -3.4031   -3.8642   -3.3467   H         1 RES1   0.0000
   203 H116     -2.8843   -2.3188   -3.9990   H         1 RES1   0.0000
   204 H117     -5.0527   -2.3449   -4.7111   H         1 RES1   0.0000
   205 H118     -5.3101   -1.5121   -3.1828   H         1 RES1   0.0000
   206 H119     -6.1702   -3.5649   -2.1641   H         1 RES1   0.0000
   207 H120     -5.6502   -4.5085   -3.5558   H         1 RES1   0.0000
   208 H121     -8.0343   -4.1744   -3.6083   H         1 RES1   0.0000
   209 H122     -7.2665   -3.4236   -4.9957   H         1 RES1   0.0000
   210 H123     -9.1068   -2.0763   -4.0414   H         1 RES1   0.0000
   211 H124     -7.5792   -1.2212   -4.1539   H         1 RES1   0.0000
   212 H125     -8.5501   -0.5702   -2.1412   H         1 RES1   0.0000
   213 H126     -7.2455   -1.6510   -1.6703   H         1 RES1   0.0000
   214 H127    -10.1292   -2.5830   -1.9044   H         1 RES1   0.0000
   215 H128     -9.5150   -1.8029   -0.4562   H         1 RES1   0.0000
   216 H129     -8.5508   -4.4667   -1.5792   H         1 RES1   0.0000
   217 H130     -9.4200   -4.1685   -0.0864   H         1 RES1   0.0000
   218 H131     -7.7609   -3.6040   -0.2557   H         1 RES1   0.0000
   219 H132     -4.6942   -2.6940   -0.7207   H         1 RES1   0.0000
   220 H133     -3.1194   -2.8298    0.0814   H         1 RES1   0.0000
   221 H134     -4.2023   -4.9737   -1.7978   H         1 RES1   0.0000
   222 H135     -4.5470   -4.8745   -0.0922   H         1 RES1   0.0000
   223 H136     -2.8666   -6.3511   -0.0238   H         1 RES1   0.0000
   224 H137     -1.9128   -4.8895    0.1841   H         1 RES1   0.0000
   225 H138     -2.3532   -6.0774   -2.5666   H         1 RES1   0.0000
   226 H139     -1.1891   -6.7977   -1.4831   H         1 RES1   0.0000
   227 H140     -0.0306   -4.6435   -1.2161   H         1 RES1   0.0000
   228 H141     -1.0589   -3.9088   -2.4390   H         1 RES1   0.0000
   229 H142      0.3728   -6.4789   -3.1163   H         1 RES1   0.0000
   230 H143      1.3183   -5.0020   -3.0710   H         1 RES1   0.0000
   231 H144      0.7065   -5.3021   -5.3081   H         1 RES1   0.0000
   232 H145     -0.2811   -3.9672   -4.7187   H         1 RES1   0.0000
   233 H146     -1.2438   -6.8628   -4.9518   H         1 RES1   0.0000
   234 H147     -1.4937   -5.6398   -6.1901   H         1 RES1   0.0000
   235 H148     -2.2559   -5.4537   -4.6202   H         1 RES1   0.0000
   236 C77       2.5744   -8.6164   -2.3953   C.3       1 RES1   0.0000
   237 C78       3.6678   -9.0711   -3.3572   C.3       1 RES1   0.0000
   238 C79       4.9447   -8.2275   -3.3332   C.3       1 RES1   0.0000
   239 C80       5.7176   -8.2333   -2.0101   C.3       1 RES1   0.0000
   240 C81       5.2069   -7.2575   -0.9474   C.3       1 RES1   0.0000
   241 C82       5.3495   -5.7886   -1.3434   C.3       1 RES1   0.0000
   242 C83       4.6780   -4.8696   -0.3220   C.3       1 RES1   0.0000
   243 C84       3.1514   -4.8570   -0.4630   C.3       1 RES1   0.0000
   244 N5        2.5237   -3.8058    0.3312   N.am      1 RES1   0.0000
   245 C85       2.6009   -4.0041    1.7845   C.3       1 RES1   0.0000
   246 C86       1.7616   -5.1576    2.3668   C.3       1 RES1   0.0000
   247 C87       0.7875   -4.7288    3.4753   C.3       1 RES1   0.0000
   248 C88       1.4280   -4.2472    4.7819   C.3       1 RES1   0.0000
   249 C89       0.3482   -3.9654    5.8436   C.3       1 RES1   0.0000
   250 C90       0.7710   -3.0121    6.9774   C.3       1 RES1   0.0000
   251 C91      -0.4338   -2.3546    7.6700   C.3       1 RES1   0.0000
   252 C92      -0.0351   -1.1459    8.5111   C.3       1 RES1   0.0000
   253 C93       2.0515   -2.6537   -0.1392   C.2       1 RES1   0.0000
   254 O7        1.5722   -1.7662    0.5942   O.2       1 RES1   0.0000
   255 C94       2.1296   -2.3313   -1.6309   C.3       1 RES1   0.0000
   256 C95       3.5361   -1.8885   -2.0207   C.3       1 RES1   0.0000
   257 C96       3.2631   -1.0999   -3.2882   C.3       1 RES1   0.0000
   258 C97       1.9262   -0.4093   -2.9630   C.3       1 RES1   0.0000
   259 C98       2.0443    1.0431   -2.4530   C.2       1 RES1   0.0000
   260 O8        1.6517    1.2786   -1.2906   O.2       1 RES1   0.0000
   261 N6        2.4682    2.0012   -3.2657   N.am      1 RES1   0.0000
   262 C99       3.1795    1.8168   -4.5238   C.3       1 RES1   0.0000
   263 C100      4.7011    2.0160   -4.3654   C.3       1 RES1   0.0000
   264 C101      5.1533    3.4700   -4.5127   C.3       1 RES1   0.0000
   265 C102      6.6641    3.6738   -4.3980   C.3       1 RES1   0.0000
   266 C103      7.2933    3.2493   -3.0665   C.3       1 RES1   0.0000
   267 C104      6.6211    3.7171   -1.7688   C.3       1 RES1   0.0000
   268 C105      6.7562    5.2087   -1.4406   C.3       1 RES1   0.0000
   269 C106      5.7593    6.1247   -2.1406   C.3       1 RES1   0.0000
   270 C107      2.3875    3.3775   -2.7843   C.3       1 RES1   0.0000
   271 C108      1.9847    4.3927   -3.8534   C.3       1 RES1   0.0000
   272 C109      0.5401    4.2213   -4.3227   C.3       1 RES1   0.0000
   273 C110      0.2287    3.3867   -5.5679   C.3       1 RES1   0.0000
   274 C111     -1.2829    3.4784   -5.8194   C.3       1 RES1   0.0000
   275 C112     -1.8092    3.0190   -7.1799   C.3       1 RES1   0.0000
   276 C113     -1.6904    1.5196   -7.4615   C.3       1 RES1   0.0000
   277 C114     -0.3422    1.1096   -8.0387   C.3       1 RES1   0.0000
   278 O9        1.3016   -1.1915   -1.9263   O.3       1 RES1   0.0000
   279 H149      1.6282   -9.0816   -2.6622   H         1 RES1   0.0000
   280 H150      2.4491   -7.5347   -2.4370   H         1 RES1   0.0000
   281 H151      2.8055   -8.9094   -1.3747   H         1 RES1   0.0000
   282 H152      3.2729   -9.0357   -4.3747   H         1 RES1   0.0000
   283 H153      3.9218  -10.1100   -3.1460   H         1 RES1   0.0000
   284 H154      4.7028   -7.2021   -3.6205   H         1 RES1   0.0000
   285 H155      5.6057   -8.6258   -4.1054   H         1 RES1   0.0000
   286 H156      6.7636   -7.9893   -2.2110   H         1 RES1   0.0000
   287 H157      5.6949   -9.2453   -1.6015   H         1 RES1   0.0000
   288 H158      5.7864   -7.4159   -0.0357   H         1 RES1   0.0000
   289 H159      4.1663   -7.4723   -0.7178   H         1 RES1   0.0000
   290 H160      4.9188   -5.6118   -2.3311   H         1 RES1   0.0000
   291 H161      6.4119   -5.5432   -1.4029   H         1 RES1   0.0000
   292 H162      5.0519   -3.8545   -0.4494   H         1 RES1   0.0000
   293 H163      4.9570   -5.2046    0.6761   H         1 RES1   0.0000
   294 H164      2.7399   -5.8091   -0.1240   H         1 RES1   0.0000
   295 H165      2.8975   -4.7295   -1.5130   H         1 RES1   0.0000
   296 H166      2.2783   -3.0670    2.2212   H         1 RES1   0.0000
   297 H167      3.6504   -4.1568    2.0371   H         1 RES1   0.0000
   298 H168      2.4349   -5.9219    2.7597   H         1 RES1   0.0000
   299 H169      1.1730   -5.6042    1.5642   H         1 RES1   0.0000
   300 H170      0.1488   -5.5826    3.7075   H         1 RES1   0.0000
   301 H171      0.1359   -3.9423    3.0844   H         1 RES1   0.0000
   302 H172      2.0148   -3.3422    4.5981   H         1 RES1   0.0000
   303 H173      2.1125   -5.0074    5.1532   H         1 RES1   0.0000
   304 H174      0.0263   -4.9099    6.2822   H         1 RES1   0.0000
   305 H175     -0.5252   -3.5353    5.3390   H         1 RES1   0.0000
   306 H176      1.4188   -2.2243    6.5806   H         1 RES1   0.0000
   307 H177      1.3514   -3.5551    7.7222   H         1 RES1   0.0000
   308 H178     -0.9317   -3.0851    8.3073   H         1 RES1   0.0000
   309 H179     -1.1616   -2.0332    6.9175   H         1 RES1   0.0000
   310 H180      0.6925   -1.4192    9.2701   H         1 RES1   0.0000
   311 H181     -0.9052   -0.7343    9.0165   H         1 RES1   0.0000
   312 H182      0.3975   -0.3657    7.8858   H         1 RES1   0.0000
   313 H183      1.7778   -3.1617   -2.2541   H         1 RES1   0.0000
   314 H184      4.2243   -2.7123   -2.1828   H         1 RES1   0.0000
   315 H185      3.9175   -1.2235   -1.2428   H         1 RES1   0.0000
   316 H186      3.1377   -1.7738   -4.1378   H         1 RES1   0.0000
   317 H187      4.0676   -0.4036   -3.4955   H         1 RES1   0.0000
   318 H188      1.2565   -0.4043   -3.8387   H         1 RES1   0.0000
   319 H189      2.7918    2.5365   -5.2426   H         1 RES1   0.0000
   320 H190      2.9616    0.8260   -4.9134   H         1 RES1   0.0000
   321 H191      5.2086    1.4320   -5.1345   H         1 RES1   0.0000
   322 H192      5.0115    1.6327   -3.3927   H         1 RES1   0.0000
   323 H193      4.6815    4.1034   -3.7693   H         1 RES1   0.0000
   324 H194      4.8454    3.8261   -5.4965   H         1 RES1   0.0000
   325 H195      6.8676    4.7319   -4.5692   H         1 RES1   0.0000
   326 H196      7.1636    3.1182   -5.1938   H         1 RES1   0.0000
   327 H197      8.3189    3.6211   -3.0574   H         1 RES1   0.0000
   328 H198      7.3535    2.1571   -3.0385   H         1 RES1   0.0000
   329 H199      7.1070    3.1652   -0.9588   H         1 RES1   0.0000
   330 H200      5.5654    3.4316   -1.7533   H         1 RES1   0.0000
   331 H201      7.7715    5.5298   -1.6716   H         1 RES1   0.0000
   332 H202      6.6184    5.3318   -0.3633   H         1 RES1   0.0000
   333 H203      5.9313    6.1685   -3.2106   H         1 RES1   0.0000
   334 H204      5.8547    7.1336   -1.7481   H         1 RES1   0.0000
   335 H205      4.7371    5.7922   -1.9604   H         1 RES1   0.0000
   336 H206      3.3439    3.6470   -2.3302   H         1 RES1   0.0000
   337 H207      1.6355    3.3797   -1.9918   H         1 RES1   0.0000
   338 H208      2.6618    4.4024   -4.7026   H         1 RES1   0.0000
   339 H209      2.0749    5.3703   -3.3775   H         1 RES1   0.0000
   340 H210      0.1395    5.2149   -4.5149   H         1 RES1   0.0000
   341 H211     -0.0101    3.7942   -3.4915   H         1 RES1   0.0000
   342 H212      0.5202    2.3429   -5.4303   H         1 RES1   0.0000
   343 H213      0.7575    3.7849   -6.4346   H         1 RES1   0.0000
   344 H214     -1.5721    4.5264   -5.7128   H         1 RES1   0.0000
   345 H215     -1.8131    2.9182   -5.0421   H         1 RES1   0.0000
   346 H216     -1.3106    3.5789   -7.9709   H         1 RES1   0.0000
   347 H217     -2.8684    3.2917   -7.2133   H         1 RES1   0.0000
   348 H218     -2.4586    1.2478   -8.1857   H         1 RES1   0.0000
   349 H219     -1.8993    0.9562   -6.5462   H         1 RES1   0.0000
   350 H220     -0.1261    1.7027   -8.9229   H         1 RES1   0.0000
   351 H221     -0.3635    0.0633   -8.3321   H         1 RES1   0.0000
   352 H222      0.4685    1.2502   -7.3286   H         1 RES1   0.0000
@<TRIPOS>BOND
     1     1    20    1
     2     1    26    1
     3     1    44    1
     4     1   137    1
     5     1   143    1
     6     1   161    1
     7     1   254    1
     8     1   260    1
     9     1   278    1
    10     2     3    1
    11     2    45    1
    12     2    46    1
    13     2    47    1
    14     3     4    1
    15     3    48    1
    16     3    49    1
    17     4     5    1
    18     4    50    1
    19     4    51    1
    20     5     6    1
    21     5    52    1
    22     5    53    1
    23     6     7    1
    24     6    54    1
    25     6    55    1
    26     7     8    1
    27     7    56    1
    28     7    57    1
    29     8     9    1
    30     8    58    1
    31     8    59    1
    32     9    10    1
    33     9    60    1
    34     9    61    1
    35    10    11    1
    36    10    19    1
    37    11    12    1
    38    11    62    1
    39    11    63    1
    40    12    13    1
    41    12    64    1
    42    12    65    1
    43    13    14    1
    44    13    66    1
    45    13    67    1
    46    14    15    1
    47    14    68    1
    48    14    69    1
    49    15    16    1
    50    15    70    1
    51    15    71    1
    52    16    17    1
    53    16    72    1
    54    16    73    1
    55    17    18    1
    56    17    74    1
    57    17    75    1
    58    18    76    1
    59    18    77    1
    60    18    78    1
    61    19    20    2
    62    19    21    1
    63    21    22    1
    64    21    44    1
    65    21    79    1
    66    22    23    1
    67    22    80    1
    68    22    81    1
    69    23    24    1
    70    23    82    1
    71    23    83    1
    72    24    25    1
    73    24    44    1
    74    24    84    1
    75    25    26    2
    76    25    27    1
    77    27    28    1
    78    27    36    1
    79    28    29    1
    80    28    85    1
    81    28    86    1
    82    29    30    1
    83    29    87    1
    84    29    88    1
    85    30    31    1
    86    30    89    1
    87    30    90    1
    88    31    32    1
    89    31    91    1
    90    31    92    1
    91    32    33    1
    92    32    93    1
    93    32    94    1
    94    33    34    1
    95    33    95    1
    96    33    96    1
    97    34    35    1
    98    34    97    1
    99    34    98    1
   100    35    99    1
   101    35   100    1
   102    35   101    1
   103    36    37    1
   104    36   102    1
   105    36   103    1
   106    37    38    1
   107    37   104    1
   108    37   105    1
   109    38    39    1
   110    38   106    1
   111    38   107    1
   112    39    40    1
   113    39   108    1
   114    39   109    1
   115    40    41    1
   116    40   110    1
   117    40   111    1
   118    41    42    1
   119    41   112    1
   120    41   113    1
   121    42    43    1
   122    42   114    1
   123    42   115    1
   124    43   116    1
   125    43   117    1
   126    43   118    1
   127   119   120    1
   128   119   162    1
   129   119   163    1
   130   119   164    1
   131   120   121    1
   132   120   165    1
   133   120   166    1
   134   121   122    1
   135   121   167    1
   136   121   168    1
   137   122   123    1
   138   122   169    1
   139   122   170    1
   140   123   124    1
   141   123   171    1
   142   123   172    1
   143   124   125    1
   144   124   173    1
   145   124   174    1
   146   125   126    1
   147   125   175    1
   148   125   176    1
   149   126   127    1
   150   126   177    1
   151   126   178    1
   152   127   128    1
   153   127   136    1
   154   128   129    1
   155   128   179    1
   156   128   180    1
   157   129   130    1
   158   129   181    1
   159   129   182    1
   160   130   131    1
   161   130   183    1
   162   130   184    1
   163   131   132    1
   164   131   185    1
   165   131   186    1
   166   132   133    1
   167   132   187    1
   168   132   188    1
   169   133   134    1
   170   133   189    1
   171   133   190    1
   172   134   135    1
   173   134   191    1
   174   134   192    1
   175   135   193    1
   176   135   194    1
   177   135   195    1
   178   136   137    2
   179   136   138    1
   180   138   139    1
   181   138   161    1
   182   138   196    1
   183   139   140    1
   184   139   197    1
   185   139   198    1
   186   140   141    1
   187   140   199    1
   188   140   200    1
   189   141   142    1
   190   141   161    1
   191   141   201    1
   192   142   143    2
   193   142   144    1
   194   144   145    1
   195   144   153    1
   196   145   146    1
   197   145   202    1
   198   145   203    1
   199   146   147    1
   200   146   204    1
   201   146   205    1
   202   147   148    1
   203   147   206    1
   204   147   207    1
   205   148   149    1
   206   148   208    1
   207   148   209    1
   208   149   150    1
   209   149   210    1
   210   149   211    1
   211   150   151    1
   212   150   212    1
   213   150   213    1
   214   151   152    1
   215   151   214    1
   216   151   215    1
   217   152   216    1
   218   152   217    1
   219   152   218    1
   220   153   154    1
   221   153   219    1
   222   153   220    1
   223   154   155    1
   224   154   221    1
   225   154   222    1
   226   155   156    1
   227   155   223    1
   228   155   224    1
   229   156   157    1
   230   156   225    1
   231   156   226    1
   232   157   158    1
   233   157   227    1
   234   157   228    1
   235   158   159    1
   236   158   229    1
   237   158   230    1
   238   159   160    1
   239   159   231    1
   240   159   232    1
   241   160   233    1
   242   160   234    1
   243   160   235    1
   244   236   237    1
   245   236   279    1
   246   236   280    1
   247   236   281    1
   248   237   238    1
   249   237   282    1
   250   237   283    1
   251   238   239    1
   252   238   284    1
   253   238   285    1
   254   239   240    1
   255   239   286    1
   256   239   287    1
   257   240   241    1
   258   240   288    1
   259   240   289    1
   260   241   242    1
   261   241   290    1
   262   241   291    1
   263   242   243    1
   264   242   292    1
   265   242   293    1
   266   243   244    1
   267   243   294    1
   268   243   295    1
   269   244   245    1
   270   244   253    1
   271   245   246    1
   272   245   296    1
   273   245   297    1
   274   246   247    1
   275   246   298    1
   276   246   299    1
   277   247   248    1
   278   247   300    1
   279   247   301    1
   280   248   249    1
   281   248   302    1
   282   248   303    1
   283   249   250    1
   284   249   304    1
   285   249   305    1
   286   250   251    1
   287   250   306    1
   288   250   307    1
   289   251   252    1
   290   251   308    1
   291   251   309    1
   292   252   310    1
   293   252   311    1
   294   252   312    1
   295   253   254    2
   296   253   255    1
   297   255   256    1
   298   255   278    1
   299   255   313    1
   300   256   257    1
   301   256   314    1
   302   256   315    1
   303   257   258    1
   304   257   316    1
   305   257   317    1
   306   258   259    1
   307   258   278    1
   308   258   318    1
   309   259   260    2
   310   259   261    1
   311   261   262    1
   312   261   270    1
   313   262   263    1
   314   262   319    1
   315   262   320    1
   316   263   264    1
   317   263   321    1
   318   263   322    1
   319   264   265    1
   320   264   323    1
   321   264   324    1
   322   265   266    1
   323   265   325    1
   324   265   326    1
   325   266   267    1
   326   266   327    1
   327   266   328    1
   328   267   268    1
   329   267   329    1
   330   267   330    1
   331   268   269    1
   332   268   331    1
   333   268   332    1
   334   269   333    1
   335   269   334    1
   336   269   335    1
   337   270   271    1
   338   270   336    1
   339   270   337    1
   340   271   272    1
   341   271   338    1
   342   271   339    1
   343   272   273    1
   344   272   340    1
   345   272   341    1
   346   273   274    1
   347   273   342    1
   348   273   343    1
   349   274   275    1
   350   274   344    1
   351   274   345    1
   352   275   276    1
   353   275   346    1
   354   275   347    1
   355   276   277    1
   356   276   348    1
   357   276   349    1
   358   277   350    1
   359   277   351    1
   360   277   352    1
@<TRIPOS>SUBSTRUCTURE
     1 RES1      352 GROUP             0 ****  ****    0  
