@<TRIPOS>MOLECULE
tri_tri_mer_capped_0_nunpairedes_0_charge_2 Charge: 2 Unpaired_Electrons: 6 XTB_Unpaired_Electrons: 0 XTB_Charge: 2
    37    46     1     0     0
SMALL
NoCharges
****
Generated from Architector

@<TRIPOS>ATOM
     1 Eu1      -0.0622    0.5668   -0.1090   Eu        1 RES1   0.0000
     2 O1       -0.6700   -1.0091   -1.4477   O.2       1 RES1   0.0000
     3 C1       -0.2182   -2.0583   -0.8857   C.ar      1 RES1   0.0000
     4 C2       -1.1725   -2.8329   -0.1295   C.ar      1 RES1   0.0000
     5 O2       -2.4562   -2.5067   -0.3095   O.3       1 RES1   0.0000
     6 C3       -0.6941   -3.2036    1.1356   C.ar      1 RES1   0.0000
     7 C4       -1.1989   -2.4900    2.2886   C.ar      1 RES1   0.0000
     8 C5       -0.2335   -2.2155    3.2928   C.ar      1 RES1   0.0000
     9 C6        0.1226   -0.9111    3.5692   C.ar      1 RES1   0.0000
    10 C7       -0.4646    0.0877    2.7774   C.ar      1 RES1   0.0000
    11 O3        0.1449    1.2748    2.3887   O.3       1 RES1   0.0000
    12 C8       -1.6889   -0.1855    2.1197   C.ar      1 RES1   0.0000
    13 O4       -2.1958    0.8620    1.3678   O.3       1 RES1   0.0000
    14 C9       -2.1706   -1.4827    2.0302   C.ar      1 RES1   0.0000
    15 O5        0.6319   -3.5810    1.2636   O.2       1 RES1   0.0000
    16 C10       1.5282   -2.7303    0.7092   C.ar      1 RES1   0.0000
    17 C11       2.4568   -2.0838    1.4792   C.ar      1 RES1   0.0000
    18 C12       3.0960   -1.0329    0.6774   C.ar      1 RES1   0.0000
    19 O6        2.3871    0.2078    0.7571   O.3       1 RES1   0.0000
    20 C13       3.3684   -1.5596   -0.5735   C.ar      1 RES1   0.0000
    21 C14       2.1153   -1.3733   -1.3006   C.ar      1 RES1   0.0000
    22 O7        1.7518   -0.3155   -2.0291   O.3       1 RES1   0.0000
    23 C15       1.2045   -2.2210   -0.6691   C.ar      1 RES1   0.0000
    24 H1       -2.6180   -2.1783   -1.2167   H         1 RES1   0.0000
    25 H2        0.3403   -3.0295    3.7097   H         1 RES1   0.0000
    26 H3        0.9153   -0.6793    4.2718   H         1 RES1   0.0000
    27 H4        0.6959    1.6459    3.1032   H         1 RES1   0.0000
    28 H5       -3.1427    1.0187    1.5346   H         1 RES1   0.0000
    29 H6       -3.1224   -1.7037    1.5763   H         1 RES1   0.0000
    30 H7        2.5376   -2.2167    2.5413   H         1 RES1   0.0000
    31 H8        3.0131    0.9192    0.5146   H         1 RES1   0.0000
    32 H9        3.8816   -2.5089   -0.6263   H         1 RES1   0.0000
    33 H10       2.4860    0.0410   -2.5727   H         1 RES1   0.0000
    34 N1       -0.3069    2.5715   -1.4384   N.3       1 RES1   0.0000
    35 O8       -0.4115    3.4448   -2.2045   O.2       1 RES1   0.0000
    36 O9        0.8198    2.1700   -1.0067   O.co2     1 RES1   0.0000
    37 O10      -1.2850    1.9491   -0.9675   O.co2     1 RES1   0.0000
@<TRIPOS>BOND
     1     1     2    1
     2     1     5    1
     3     1    11    1
     4     1    13    1
     5     1    15    1
     6     1    19    1
     7     1    22    1
     8     1    36    1
     9     1    37    1
    10     2     3    2
    11     3     4    1
    12     3    23    1
    13     4     5    1
    14     4     6    2
    15     5    24    1
    16     6     7    1
    17     6    15    1
    18     7     8    1
    19     7    14    2
    20     8     9    2
    21     8    25    1
    22     9    10    1
    23     9    26    1
    24    10    11    1
    25    10    12    2
    26    11    27    1
    27    12    13    1
    28    12    14    1
    29    13    28    1
    30    14    29    1
    31    15    16    1
    32    16    17    1
    33    16    23    2
    34    17    18    2
    35    17    30    1
    36    18    19    1
    37    18    20    1
    38    19    31    1
    39    20    21    2
    40    20    32    1
    41    21    22    1
    42    21    23    1
    43    22    33    1
    44    34    35    2
    45    34    36    1
    46    34    37    1
@<TRIPOS>SUBSTRUCTURE
     1 RES1       37 GROUP             0 ****  ****    0  
