@<TRIPOS>MOLECULE
tri_tri_mer_capped_0_nunpairedes_0_charge_2 Charge: 2 Unpaired_Electrons: 6 XTB_Unpaired_Electrons: 0 XTB_Charge: 2
    38    46     1     0     0
SMALL
NoCharges
****
Generated from Architector

@<TRIPOS>ATOM
     1 Eu1       0.0246   -0.2419   -1.5276   Eu        1 RES1   0.0000
     2 C1        2.6257   -3.3020   -2.0785   C.3       1 RES1   0.0000
     3 C2        3.1747   -2.1714   -1.3092   C.ar      1 RES1   0.0000
     4 C3        4.5067   -1.9820   -0.8419   C.ar      1 RES1   0.0000
     5 C4        4.5370   -0.7466   -0.2722   C.ar      1 RES1   0.0000
     6 N1        3.2765   -0.2184   -0.3761   N.ar      1 RES1   0.0000
     7 C5        2.8505    1.0667   -0.3743   C.ar      1 RES1   0.0000
     8 C6        3.5475    2.3786   -0.3445   C.ar      1 RES1   0.0000
     9 N2        3.0181    3.1097   -1.5101   N.ar      1 RES1   0.0000
    10 C7        2.5086    3.4612   -0.2170   C.ar      1 RES1   0.0000
    11 C8        1.6458    2.6799   -1.1381   C.ar      1 RES1   0.0000
    12 N3        0.5450    2.9679   -1.9755   N.ar      1 RES1   0.0000
    13 C9       -0.0637    4.1137   -2.3500   C.ar      1 RES1   0.0000
    14 C10      -1.0635    3.7858   -3.2320   C.ar      1 RES1   0.0000
    15 C11      -1.0147    2.3916   -3.3644   C.ar      1 RES1   0.0000
    16 C12      -1.8795    1.5088   -4.1828   C.3       1 RES1   0.0000
    17 N4       -0.0230    1.8971   -2.6196   N.ar      1 RES1   0.0000
    18 N5        1.6285    1.2885   -0.7542   N.ar      1 RES1   0.0000
    19 N6        2.4366   -1.1174   -1.0100   N.ar      1 RES1   0.0000
    20 H1        2.9783   -4.2559   -1.6907   H         1 RES1   0.0000
    21 H2        2.9730   -3.2270   -3.1106   H         1 RES1   0.0000
    22 H3        1.5269   -3.2809   -2.0902   H         1 RES1   0.0000
    23 H4        5.3125   -2.6759   -0.9644   H         1 RES1   0.0000
    24 H5        5.3373   -0.1929    0.1818   H         1 RES1   0.0000
    25 H6        4.5760    2.5498   -0.0640   H         1 RES1   0.0000
    26 H7        2.4941    4.3998    0.2983   H         1 RES1   0.0000
    27 H8        0.2436    5.0791   -2.0006   H         1 RES1   0.0000
    28 H9       -1.7519    4.4464   -3.7176   H         1 RES1   0.0000
    29 H10      -2.9053    1.8730   -4.1837   H         1 RES1   0.0000
    30 H11      -1.8800    0.4647   -3.8161   H         1 RES1   0.0000
    31 H12      -1.5401    1.5233   -5.2194   H         1 RES1   0.0000
    32 N7       -2.2989   -0.0842   -0.7299   N.3       1 RES1   0.0000
    33 O1       -3.3921   -0.0760   -0.3115   O.2       1 RES1   0.0000
    34 O2       -1.4202    0.7425   -0.3696   O.co2     1 RES1   0.0000
    35 O3       -1.9083   -0.9392   -1.5695   O.co2     1 RES1   0.0000
    36 O4        0.0214   -1.3302    0.7663   O.3       1 RES1   0.0000
    37 H13      -0.0735   -0.7845    1.5678   H         1 RES1   0.0000
    38 H14      -0.0010   -2.2492    1.0867   H         1 RES1   0.0000
@<TRIPOS>BOND
     1     1     6    1
     2     1     9    1
     3     1    12    1
     4     1    17    1
     5     1    18    1
     6     1    19    1
     7     1    34    1
     8     1    35    1
     9     1    36    1
    10     2     3    1
    11     2    20    1
    12     2    21    1
    13     2    22    1
    14     3     4    1
    15     3    19    2
    16     4     5    2
    17     4    23    1
    18     5     6    1
    19     5    24    1
    20     6     7    1
    21     6    19    1
    22     7     8    1
    23     7    18    2
    24     8     9    2
    25     8    25    1
    26     9    10    1
    27    10    11    2
    28    10    26    1
    29    11    12    1
    30    11    18    1
    31    12    13    1
    32    12    17    1
    33    13    14    2
    34    13    27    1
    35    14    15    1
    36    14    28    1
    37    15    16    1
    38    15    17    2
    39    16    29    1
    40    16    30    1
    41    16    31    1
    42    32    33    2
    43    32    34    1
    44    32    35    1
    45    36    37    1
    46    36    38    1
@<TRIPOS>SUBSTRUCTURE
     1 RES1       38 GROUP             0 ****  ****    0  
