@<TRIPOS>MOLECULE
cn9_YICLED_0_nunpairedes_0_charge_3 Charge: 3 Unpaired_Electrons: 6 XTB_Unpaired_Electrons: 0 XTB_Charge: 3
   430   435     1     0     0
SMALL
NoCharges
****
Generated from Architector

@<TRIPOS>ATOM
     1 Eu1       0.0817   -0.2217    0.2112   Eu        1 RES1   0.0000
     2 C1        5.2401   -1.9869   10.9648   C.3       1 RES1   0.0000
     3 C2        5.0815   -3.1383    9.9825   C.3       1 RES1   0.0000
     4 C3        6.2220   -3.1838    8.9671   C.3       1 RES1   0.0000
     5 C4        6.1237   -4.3991    8.0419   C.3       1 RES1   0.0000
     6 C5        7.0694   -4.2908    6.8398   C.3       1 RES1   0.0000
     7 C6        6.8228   -5.3339    5.7391   C.3       1 RES1   0.0000
     8 C7        5.9027   -4.8627    4.6053   C.3       1 RES1   0.0000
     9 C8        4.4777   -4.5712    5.0778   C.3       1 RES1   0.0000
    10 C9        3.5369   -4.1129    3.9552   C.3       1 RES1   0.0000
    11 C10       2.1729   -3.7479    4.5608   C.3       1 RES1   0.0000
    12 N1        1.1707   -3.3678    3.5731   N.am      1 RES1   0.0000
    13 C11       0.3879   -4.4923    3.0427   C.3       1 RES1   0.0000
    14 C12      -0.4837   -5.2225    4.0884   C.3       1 RES1   0.0000
    15 C13      -1.7697   -4.5051    4.4949   C.3       1 RES1   0.0000
    16 C14      -1.6354   -3.2625    5.3766   C.3       1 RES1   0.0000
    17 C15      -1.3338   -3.4538    6.8720   C.3       1 RES1   0.0000
    18 C16       0.1491   -3.4536    7.2575   C.3       1 RES1   0.0000
    19 C17       0.4083   -2.9737    8.6922   C.3       1 RES1   0.0000
    20 C18       0.4738   -1.4535    8.8659   C.3       1 RES1   0.0000
    21 C19       1.6359   -0.8029    8.1091   C.3       1 RES1   0.0000
    22 C20       2.0748    0.5332    8.6991   C.3       1 RES1   0.0000
    23 C21       1.0073   -2.1148    3.1405   C.2       1 RES1   0.0000
    24 O1        0.4601   -1.8315    2.0513   O.2       1 RES1   0.0000
    25 C22       1.3165   -0.9482    4.1171   C.3       1 RES1   0.0000
    26 C23       2.7619   -0.6905    4.5797   C.3       1 RES1   0.0000
    27 O2        0.7868    0.2206    3.4953   O.3       1 RES1   0.0000
    28 C24      -0.0576    1.0645    4.2851   C.3       1 RES1   0.0000
    29 C25       0.6599    2.3819    4.5718   C.3       1 RES1   0.0000
    30 C26      -1.4074    1.1081    3.5273   C.2       1 RES1   0.0000
    31 O3       -1.4722    0.4907    2.4464   O.2       1 RES1   0.0000
    32 N2       -2.5140    1.6093    4.1140   N.am      1 RES1   0.0000
    33 C27      -2.6464    2.7175    5.0763   C.3       1 RES1   0.0000
    34 C28      -2.2748    4.1161    4.4978   C.3       1 RES1   0.0000
    35 C29      -3.4236    5.0214    4.0070   C.3       1 RES1   0.0000
    36 C30      -2.9898    6.2656    3.1863   C.3       1 RES1   0.0000
    37 C31      -4.0426    6.7738    2.1551   C.3       1 RES1   0.0000
    38 C32      -3.5084    6.7966    0.7087   C.3       1 RES1   0.0000
    39 C33      -4.5564    6.5219   -0.3804   C.3       1 RES1   0.0000
    40 C34      -3.9836    5.7952   -1.6109   C.3       1 RES1   0.0000
    41 C35      -5.0410    4.9274   -2.2996   C.3       1 RES1   0.0000
    42 C36      -4.4339    3.8576   -3.1970   C.3       1 RES1   0.0000
    43 C37      -3.7456    0.8956    3.7814   C.3       1 RES1   0.0000
    44 C38      -3.8461   -0.4864    4.4540   C.3       1 RES1   0.0000
    45 C39      -4.4434   -1.5054    3.4697   C.3       1 RES1   0.0000
    46 C40      -5.1164   -2.7362    4.0813   C.3       1 RES1   0.0000
    47 C41      -5.2942   -3.8194    3.0134   C.3       1 RES1   0.0000
    48 C42      -5.7510   -5.1511    3.6019   C.3       1 RES1   0.0000
    49 C43      -5.6691   -6.2866    2.5801   C.3       1 RES1   0.0000
    50 C44      -4.2411   -6.8229    2.3958   C.3       1 RES1   0.0000
    51 C45      -3.9629   -8.1375    3.1334   C.3       1 RES1   0.0000
    52 C46      -4.0235   -8.0135    4.6527   C.3       1 RES1   0.0000
    53 H1        4.3929   -1.9407   11.6429   H         1 RES1   0.0000
    54 H2        5.3152   -1.0358   10.4428   H         1 RES1   0.0000
    55 H3        6.1395   -2.1192   11.5572   H         1 RES1   0.0000
    56 H4        4.1294   -3.0343    9.4530   H         1 RES1   0.0000
    57 H5        5.0479   -4.0786   10.5333   H         1 RES1   0.0000
    58 H6        7.1767   -3.2030    9.4947   H         1 RES1   0.0000
    59 H7        6.1942   -2.2681    8.3686   H         1 RES1   0.0000
    60 H8        5.0887   -4.5051    7.7120   H         1 RES1   0.0000
    61 H9        6.3663   -5.3014    8.6062   H         1 RES1   0.0000
    62 H10       8.0887   -4.3975    7.2150   H         1 RES1   0.0000
    63 H11       6.9972   -3.2908    6.4044   H         1 RES1   0.0000
    64 H12       6.4115   -6.2397    6.1852   H         1 RES1   0.0000
    65 H13       7.7803   -5.5984    5.2874   H         1 RES1   0.0000
    66 H14       5.8652   -5.6448    3.8428   H         1 RES1   0.0000
    67 H15       6.3368   -3.9670    4.1497   H         1 RES1   0.0000
    68 H16       4.5231   -3.7884    5.8363   H         1 RES1   0.0000
    69 H17       4.0765   -5.4785    5.5400   H         1 RES1   0.0000
    70 H18       3.4220   -4.9090    3.2167   H         1 RES1   0.0000
    71 H19       3.9675   -3.2445    3.4501   H         1 RES1   0.0000
    72 H20       2.3063   -2.9438    5.2768   H         1 RES1   0.0000
    73 H21       1.7952   -4.6168    5.0952   H         1 RES1   0.0000
    74 H22       1.0789   -5.2277    2.6230   H         1 RES1   0.0000
    75 H23      -0.2556   -4.1193    2.2419   H         1 RES1   0.0000
    76 H24       0.0854   -5.4864    4.9786   H         1 RES1   0.0000
    77 H25      -0.7757   -6.1639    3.6172   H         1 RES1   0.0000
    78 H26      -2.4238   -5.2193    5.0019   H         1 RES1   0.0000
    79 H27      -2.2846   -4.2035    3.5784   H         1 RES1   0.0000
    80 H28      -2.6051   -2.7736    5.3292   H         1 RES1   0.0000
    81 H29      -0.9150   -2.5794    4.9227   H         1 RES1   0.0000
    82 H30      -1.8098   -4.3696    7.2279   H         1 RES1   0.0000
    83 H31      -1.8112   -2.6236    7.3990   H         1 RES1   0.0000
    84 H32       0.6920   -2.8026    6.5724   H         1 RES1   0.0000
    85 H33       0.5623   -4.4585    7.1549   H         1 RES1   0.0000
    86 H34       1.3576   -3.3897    9.0327   H         1 RES1   0.0000
    87 H35      -0.3688   -3.3685    9.3459   H         1 RES1   0.0000
    88 H36       0.6045   -1.2443    9.9271   H         1 RES1   0.0000
    89 H37      -0.4671   -0.9929    8.5578   H         1 RES1   0.0000
    90 H38       1.3452   -0.6383    7.0677   H         1 RES1   0.0000
    91 H39       2.4923   -1.4811    8.1197   H         1 RES1   0.0000
    92 H40       1.2537    1.2454    8.7133   H         1 RES1   0.0000
    93 H41       2.8904    0.9590    8.1160   H         1 RES1   0.0000
    94 H42       2.4266    0.4010    9.7173   H         1 RES1   0.0000
    95 H43       0.7061   -1.1819    5.0067   H         1 RES1   0.0000
    96 H44       3.5133   -1.1627    3.9577   H         1 RES1   0.0000
    97 H45       2.9146   -1.0281    5.5988   H         1 RES1   0.0000
    98 H46       2.9356    0.3824    4.5776   H         1 RES1   0.0000
    99 H47      -0.3002    0.5600    5.2359   H         1 RES1   0.0000
   100 H48       1.0966    2.7499    3.6484   H         1 RES1   0.0000
   101 H49       1.4452    2.2156    5.3081   H         1 RES1   0.0000
   102 H50      -0.0252    3.1292    4.9507   H         1 RES1   0.0000
   103 H51      -2.0363    2.5187    5.9643   H         1 RES1   0.0000
   104 H52      -3.6865    2.7035    5.4115   H         1 RES1   0.0000
   105 H53      -1.6120    3.9233    3.6568   H         1 RES1   0.0000
   106 H54      -1.7104    4.6601    5.2576   H         1 RES1   0.0000
   107 H55      -4.0135    5.3582    4.8606   H         1 RES1   0.0000
   108 H56      -4.0614    4.4203    3.3766   H         1 RES1   0.0000
   109 H57      -2.0726    6.0301    2.6486   H         1 RES1   0.0000
   110 H58      -2.7383    7.0767    3.8649   H         1 RES1   0.0000
   111 H59      -4.3748    7.7759    2.4244   H         1 RES1   0.0000
   112 H60      -4.9297    6.1383    2.1872   H         1 RES1   0.0000
   113 H61      -2.7399    6.0404    0.6168   H         1 RES1   0.0000
   114 H62      -3.0243    7.7474    0.4960   H         1 RES1   0.0000
   115 H63      -5.0336    7.4461   -0.6977   H         1 RES1   0.0000
   116 H64      -5.3595    5.9122    0.0402   H         1 RES1   0.0000
   117 H65      -3.1478    5.1537   -1.3227   H         1 RES1   0.0000
   118 H66      -3.5710    6.5090   -2.3245   H         1 RES1   0.0000
   119 H67      -5.6840    5.5641   -2.9014   H         1 RES1   0.0000
   120 H68      -5.6751    4.4362   -1.5538   H         1 RES1   0.0000
   121 H69      -3.8639    4.3080   -4.0021   H         1 RES1   0.0000
   122 H70      -5.2308    3.2557   -3.6236   H         1 RES1   0.0000
   123 H71      -3.7604    3.2026   -2.6438   H         1 RES1   0.0000
   124 H72      -3.7756    0.7585    2.7051   H         1 RES1   0.0000
   125 H73      -4.5849    1.5063    4.0872   H         1 RES1   0.0000
   126 H74      -4.4464   -0.4079    5.3614   H         1 RES1   0.0000
   127 H75      -2.8498   -0.8195    4.7457   H         1 RES1   0.0000
   128 H76      -3.6347   -1.8698    2.8275   H         1 RES1   0.0000
   129 H77      -5.1797   -1.0032    2.8372   H         1 RES1   0.0000
   130 H78      -6.0857   -2.4650    4.4996   H         1 RES1   0.0000
   131 H79      -4.5149   -3.1417    4.8964   H         1 RES1   0.0000
   132 H80      -4.3424   -3.9578    2.4916   H         1 RES1   0.0000
   133 H81      -6.0187   -3.4855    2.2686   H         1 RES1   0.0000
   134 H82      -6.7732   -5.0489    3.9640   H         1 RES1   0.0000
   135 H83      -5.1275   -5.3914    4.4620   H         1 RES1   0.0000
   136 H84      -6.0508   -5.9237    1.6229   H         1 RES1   0.0000
   137 H85      -6.3145   -7.1056    2.8954   H         1 RES1   0.0000
   138 H86      -3.5202   -6.0752    2.7327   H         1 RES1   0.0000
   139 H87      -4.0509   -6.9906    1.3334   H         1 RES1   0.0000
   140 H88      -2.9647   -8.4883    2.8508   H         1 RES1   0.0000
   141 H89      -4.6798   -8.8936    2.8045   H         1 RES1   0.0000
   142 H90      -3.2679   -7.3130    5.0120   H         1 RES1   0.0000
   143 H91      -3.8325   -8.9802    5.1163   H         1 RES1   0.0000
   144 H92      -5.0053   -7.6693    4.9701   H         1 RES1   0.0000
   145 C47      -7.1331    2.4569   10.4728   C.3       1 RES1   0.0000
   146 C48      -7.4462    3.1694    9.1605   C.3       1 RES1   0.0000
   147 C49      -6.3108    2.9519    8.1628   C.3       1 RES1   0.0000
   148 C50      -6.4912    3.6101    6.7845   C.3       1 RES1   0.0000
   149 C51      -7.1164    2.7148    5.6940   C.3       1 RES1   0.0000
   150 C52      -6.6761    3.1437    4.2776   C.3       1 RES1   0.0000
   151 C53      -6.9190    2.0490    3.2249   C.3       1 RES1   0.0000
   152 C54      -6.4232    2.3322    1.7771   C.3       1 RES1   0.0000
   153 C55      -5.0924    3.1014    1.6935   C.3       1 RES1   0.0000
   154 C56      -4.2926    3.1157    0.3686   C.3       1 RES1   0.0000
   155 N3       -2.8791    2.7409    0.4666   N.am      1 RES1   0.0000
   156 C57      -1.9083    3.6566    1.0851   C.3       1 RES1   0.0000
   157 C58      -0.8872    4.3074    0.1220   C.3       1 RES1   0.0000
   158 C59      -0.0976    5.4822    0.7348   C.3       1 RES1   0.0000
   159 C60       0.7111    5.1186    1.9841   C.3       1 RES1   0.0000
   160 C61       1.4651    6.3074    2.6052   C.3       1 RES1   0.0000
   161 C62       0.5985    7.2793    3.4173   C.3       1 RES1   0.0000
   162 C63       0.2331    6.7857    4.8192   C.3       1 RES1   0.0000
   163 C64       1.3883    6.8012    5.8321   C.3       1 RES1   0.0000
   164 C65       1.5878    5.4467    6.5174   C.3       1 RES1   0.0000
   165 C66       0.4935    5.0846    7.5201   C.3       1 RES1   0.0000
   166 C67      -2.3366    1.6443   -0.0223   C.2       1 RES1   0.0000
   167 O4       -1.0955    1.5051    0.0257   O.2       1 RES1   0.0000
   168 C68      -3.1517    0.5059   -0.6474   C.3       1 RES1   0.0000
   169 C69      -3.9940   -0.2384    0.3750   C.3       1 RES1   0.0000
   170 O5       -2.2128   -0.4410   -1.1446   O.3       1 RES1   0.0000
   171 C70      -2.3203   -0.7313   -2.5376   C.3       1 RES1   0.0000
   172 C71      -2.7239   -2.1981   -2.6861   C.3       1 RES1   0.0000
   173 C72      -0.9665   -0.3375   -3.1549   C.2       1 RES1   0.0000
   174 O6       -0.0199   -0.1139   -2.3798   O.2       1 RES1   0.0000
   175 N4       -0.8908   -0.1906   -4.4771   N.am      1 RES1   0.0000
   176 C73       0.3956    0.2556   -5.0143   C.3       1 RES1   0.0000
   177 C74       0.6572    1.7569   -4.7945   C.3       1 RES1   0.0000
   178 C75       0.0156    2.6852   -5.8389   C.3       1 RES1   0.0000
   179 C76      -0.4728    4.0449   -5.3445   C.3       1 RES1   0.0000
   180 C77      -1.0260    4.8314   -6.5359   C.3       1 RES1   0.0000
   181 C78      -1.6351    6.1859   -6.1520   C.3       1 RES1   0.0000
   182 C79      -3.1425    6.2671   -6.4041   C.3       1 RES1   0.0000
   183 C80      -3.7524    7.4528   -5.6556   C.3       1 RES1   0.0000
   184 C81      -5.2624    7.6097   -5.8329   C.3       1 RES1   0.0000
   185 C82      -5.8383    8.6814   -4.9086   C.3       1 RES1   0.0000
   186 C83      -1.8936   -0.6876   -5.4186   C.3       1 RES1   0.0000
   187 C84      -2.2640    0.2802   -6.5373   C.3       1 RES1   0.0000
   188 C85      -3.1811   -0.3699   -7.5772   C.3       1 RES1   0.0000
   189 C86      -3.0987    0.3386   -8.9367   C.3       1 RES1   0.0000
   190 C87      -3.3283    1.8512   -8.8651   C.3       1 RES1   0.0000
   191 C88      -3.6686    2.4501  -10.2338   C.3       1 RES1   0.0000
   192 C89      -3.7436    3.9836  -10.2292   C.3       1 RES1   0.0000
   193 C90      -5.1201    4.5741   -9.9086   C.3       1 RES1   0.0000
   194 C91      -5.6867    4.2150   -8.5297   C.3       1 RES1   0.0000
   195 C92      -6.6222    3.0109   -8.5562   C.3       1 RES1   0.0000
   196 H93      -7.9073    2.6488   11.2110   H         1 RES1   0.0000
   197 H94      -6.1830    2.8072   10.8737   H         1 RES1   0.0000
   198 H95      -7.0616    1.3811   10.3225   H         1 RES1   0.0000
   199 H96      -7.5586    4.2373    9.3541   H         1 RES1   0.0000
   200 H97      -8.3906    2.8070    8.7548   H         1 RES1   0.0000
   201 H98      -6.1497    1.8776    8.0470   H         1 RES1   0.0000
   202 H99      -5.4077    3.3682    8.6157   H         1 RES1   0.0000
   203 H100     -5.4972    3.9294    6.4466   H         1 RES1   0.0000
   204 H101     -7.0918    4.5139    6.9020   H         1 RES1   0.0000
   205 H102     -8.2059    2.7478    5.7672   H         1 RES1   0.0000
   206 H103     -6.8181    1.6703    5.8571   H         1 RES1   0.0000
   207 H104     -5.6118    3.3872    4.3239   H         1 RES1   0.0000
   208 H105     -7.1946    4.0589    3.9872   H         1 RES1   0.0000
   209 H106     -7.9899    1.8411    3.1782   H         1 RES1   0.0000
   210 H107     -6.4672    1.1165    3.5750   H         1 RES1   0.0000
   211 H108     -7.1897    2.8958    1.2392   H         1 RES1   0.0000
   212 H109     -6.3475    1.3640    1.2774   H         1 RES1   0.0000
   213 H110     -4.4135    2.7455    2.4548   H         1 RES1   0.0000
   214 H111     -5.3587    4.1277    1.9296   H         1 RES1   0.0000
   215 H112     -4.2810    4.1346   -0.0064   H         1 RES1   0.0000
   216 H113     -4.7522    2.4834   -0.3905   H         1 RES1   0.0000
   217 H114     -1.3200    3.0570    1.7877   H         1 RES1   0.0000
   218 H115     -2.4893    4.3890    1.6319   H         1 RES1   0.0000
   219 H116     -1.3732    4.6692   -0.7874   H         1 RES1   0.0000
   220 H117     -0.1776    3.5364   -0.1872   H         1 RES1   0.0000
   221 H118     -0.7520    6.3230    0.9664   H         1 RES1   0.0000
   222 H119      0.5864    5.8479   -0.0371   H         1 RES1   0.0000
   223 H120      1.4374    4.3490    1.7028   H         1 RES1   0.0000
   224 H121      0.0526    4.6996    2.7443   H         1 RES1   0.0000
   225 H122      1.9452    6.8688    1.8025   H         1 RES1   0.0000
   226 H123      2.2542    5.9260    3.2580   H         1 RES1   0.0000
   227 H124     -0.3230    7.4712    2.8665   H         1 RES1   0.0000
   228 H125      1.1363    8.2233    3.5069   H         1 RES1   0.0000
   229 H126     -0.1463    5.7710    4.7230   H         1 RES1   0.0000
   230 H127     -0.5857    7.4011    5.1886   H         1 RES1   0.0000
   231 H128      1.2164    7.5697    6.5850   H         1 RES1   0.0000
   232 H129      2.3117    7.0622    5.3136   H         1 RES1   0.0000
   233 H130      2.5458    5.4456    7.0407   H         1 RES1   0.0000
   234 H131      1.6465    4.6864    5.7324   H         1 RES1   0.0000
   235 H132      0.5643    5.7072    8.4085   H         1 RES1   0.0000
   236 H133      0.6012    4.0458    7.8268   H         1 RES1   0.0000
   237 H134     -0.5009    5.2189    7.0996   H         1 RES1   0.0000
   238 H135     -3.7686    0.8776   -1.4740   H         1 RES1   0.0000
   239 H136     -3.3122   -0.6838    1.1003   H         1 RES1   0.0000
   240 H137     -4.5303   -1.0474   -0.1190   H         1 RES1   0.0000
   241 H138     -4.7040    0.4150    0.8705   H         1 RES1   0.0000
   242 H139     -3.0857   -0.0868   -2.9871   H         1 RES1   0.0000
   243 H140     -2.2728   -2.7834   -1.8849   H         1 RES1   0.0000
   244 H141     -2.4109   -2.5996   -3.6418   H         1 RES1   0.0000
   245 H142     -3.8042   -2.2995   -2.6070   H         1 RES1   0.0000
   246 H143      0.4383    0.0130   -6.0768   H         1 RES1   0.0000
   247 H144      1.1749   -0.3165   -4.4956   H         1 RES1   0.0000
   248 H145      1.7396    1.8741   -4.8556   H         1 RES1   0.0000
   249 H146      0.3532    2.0171   -3.7752   H         1 RES1   0.0000
   250 H147     -0.8562    2.2132   -6.2743   H         1 RES1   0.0000
   251 H148      0.7258    2.8485   -6.6526   H         1 RES1   0.0000
   252 H149      0.3249    4.5980   -4.8506   H         1 RES1   0.0000
   253 H150     -1.2687    3.9080   -4.6098   H         1 RES1   0.0000
   254 H151     -1.7872    4.2209   -7.0253   H         1 RES1   0.0000
   255 H152     -0.2319    4.9766   -7.2665   H         1 RES1   0.0000
   256 H153     -1.1475    6.9869   -6.7088   H         1 RES1   0.0000
   257 H154     -1.4474    6.3754   -5.0929   H         1 RES1   0.0000
   258 H155     -3.6227    5.3444   -6.0701   H         1 RES1   0.0000
   259 H156     -3.3399    6.3547   -7.4738   H         1 RES1   0.0000
   260 H157     -3.2660    8.3698   -5.9911   H         1 RES1   0.0000
   261 H158     -3.5403    7.3401   -4.5881   H         1 RES1   0.0000
   262 H159     -5.7634    6.6589   -5.6372   H         1 RES1   0.0000
   263 H160     -5.4805    7.8849   -6.8640   H         1 RES1   0.0000
   264 H161     -5.7344    8.3892   -3.8631   H         1 RES1   0.0000
   265 H162     -6.8957    8.8382   -5.1174   H         1 RES1   0.0000
   266 H163     -5.3201    9.6291   -5.0506   H         1 RES1   0.0000
   267 H164     -2.8019   -0.9508   -4.8847   H         1 RES1   0.0000
   268 H165     -1.4851   -1.6022   -5.8663   H         1 RES1   0.0000
   269 H166     -1.3663    0.5868   -7.0637   H         1 RES1   0.0000
   270 H167     -2.7443    1.1610   -6.1117   H         1 RES1   0.0000
   271 H168     -4.2159   -0.3782   -7.2268   H         1 RES1   0.0000
   272 H169     -2.8718   -1.4081   -7.7191   H         1 RES1   0.0000
   273 H170     -3.8499   -0.1031   -9.5931   H         1 RES1   0.0000
   274 H171     -2.1179    0.1563   -9.3863   H         1 RES1   0.0000
   275 H172     -2.4203    2.3405   -8.5058   H         1 RES1   0.0000
   276 H173     -4.1228    2.0677   -8.1522   H         1 RES1   0.0000
   277 H174     -4.6175    2.0493  -10.5926   H         1 RES1   0.0000
   278 H175     -2.8957    2.1397  -10.9420   H         1 RES1   0.0000
   279 H176     -3.4614    4.3527  -11.2191   H         1 RES1   0.0000
   280 H177     -3.0064    4.3767   -9.5228   H         1 RES1   0.0000
   281 H178     -5.8292    4.2714  -10.6804   H         1 RES1   0.0000
   282 H179     -5.0248    5.6598   -9.9779   H         1 RES1   0.0000
   283 H180     -6.2492    5.0668   -8.1426   H         1 RES1   0.0000
   284 H181     -4.8578    4.0452   -7.8395   H         1 RES1   0.0000
   285 H182     -7.4513    3.2036   -9.2302   H         1 RES1   0.0000
   286 H183     -7.0289    2.8278   -7.5642   H         1 RES1   0.0000
   287 H184     -6.1203    2.1101   -8.8948   H         1 RES1   0.0000
   288 C93      -2.1523  -11.4537    1.1069   C.3       1 RES1   0.0000
   289 C94      -1.3763  -10.4631    0.2517   C.3       1 RES1   0.0000
   290 C95      -2.2996   -9.4939   -0.4854   C.3       1 RES1   0.0000
   291 C96      -1.5267   -8.5157   -1.3727   C.3       1 RES1   0.0000
   292 C97      -0.7265   -7.4682   -0.5794   C.3       1 RES1   0.0000
   293 C98       0.7207   -7.3801   -1.0548   C.3       1 RES1   0.0000
   294 C99       1.5185   -6.3073   -0.3167   C.3       1 RES1   0.0000
   295 C100      2.9522   -6.1631   -0.8376   C.3       1 RES1   0.0000
   296 C101      3.0787   -5.7053   -2.2939   C.3       1 RES1   0.0000
   297 C102      3.0155   -4.1871   -2.5031   C.3       1 RES1   0.0000
   298 N5        1.7392   -3.5751   -2.1551   N.am      1 RES1   0.0000
   299 C103      0.5333   -4.1146   -2.8119   C.3       1 RES1   0.0000
   300 C104      0.6781   -4.3547   -4.3214   C.3       1 RES1   0.0000
   301 C105     -0.3729   -5.3355   -4.8708   C.3       1 RES1   0.0000
   302 C106     -1.7924   -4.7689   -4.9229   C.3       1 RES1   0.0000
   303 C107     -2.7873   -5.5557   -5.7859   C.3       1 RES1   0.0000
   304 C108     -3.2954   -6.8701   -5.1948   C.3       1 RES1   0.0000
   305 C109     -4.1389   -6.7221   -3.9269   C.3       1 RES1   0.0000
   306 C110     -5.4628   -5.9590   -4.1054   C.3       1 RES1   0.0000
   307 C111     -5.5031   -4.6188   -3.3659   C.3       1 RES1   0.0000
   308 C112     -5.5589   -4.7614   -1.8466   C.3       1 RES1   0.0000
   309 C113      1.6110   -2.6300   -1.2322   C.2       1 RES1   0.0000
   310 O7        0.4985   -2.2647   -0.7930   O.2       1 RES1   0.0000
   311 C114      2.8613   -1.9212   -0.6433   C.3       1 RES1   0.0000
   312 C115      3.4111   -2.7144    0.5479   C.3       1 RES1   0.0000
   313 O8        2.3785   -0.6405   -0.2275   O.3       1 RES1   0.0000
   314 C116      3.3484    0.3640    0.1270   C.3       1 RES1   0.0000
   315 C117      3.1343    0.6655    1.6087   C.3       1 RES1   0.0000
   316 C118      2.9352    1.6449   -0.6411   C.2       1 RES1   0.0000
   317 O9        1.7235    1.7340   -0.8897   O.2       1 RES1   0.0000
   318 N6        3.8617    2.5641   -0.9249   N.am      1 RES1   0.0000
   319 C119      3.4965    3.7716   -1.6813   C.3       1 RES1   0.0000
   320 C120      3.4358    3.6091   -3.2133   C.3       1 RES1   0.0000
   321 C121      4.6365    2.9490   -3.8942   C.3       1 RES1   0.0000
   322 C122      4.4988    2.9996   -5.4241   C.3       1 RES1   0.0000
   323 C123      5.3192    1.9559   -6.1947   C.3       1 RES1   0.0000
   324 C124      4.8003    0.5103   -6.1373   C.3       1 RES1   0.0000
   325 C125      5.1455   -0.2121   -4.8330   C.3       1 RES1   0.0000
   326 C126      5.4961   -1.6885   -4.9888   C.3       1 RES1   0.0000
   327 C127      5.9687   -2.2323   -3.6428   C.3       1 RES1   0.0000
   328 C128      6.4381   -3.6800   -3.7020   C.3       1 RES1   0.0000
   329 C129      5.0711    2.7067   -0.1017   C.3       1 RES1   0.0000
   330 C130      6.3551    3.0882   -0.8380   C.3       1 RES1   0.0000
   331 C131      7.0531    1.9169   -1.5219   C.3       1 RES1   0.0000
   332 C132      8.3506    2.3720   -2.2038   C.3       1 RES1   0.0000
   333 C133      8.7411    1.4287   -3.3406   C.3       1 RES1   0.0000
   334 C134     10.0434    1.8297   -4.0353   C.3       1 RES1   0.0000
   335 C135     10.2806    1.0972   -5.3588   C.3       1 RES1   0.0000
   336 C136     10.7925   -0.3385   -5.2271   C.3       1 RES1   0.0000
   337 C137      9.7599   -1.3713   -4.7463   C.3       1 RES1   0.0000
   338 C138     10.0887   -1.9199   -3.3591   C.3       1 RES1   0.0000
   339 H185     -1.4689  -12.1126    1.6329   H         1 RES1   0.0000
   340 H186     -2.8003  -12.0618    0.4843   H         1 RES1   0.0000
   341 H187     -2.7675  -10.9382    1.8390   H         1 RES1   0.0000
   342 H188     -0.7840  -11.0127   -0.4834   H         1 RES1   0.0000
   343 H189     -0.6803   -9.9052    0.8827   H         1 RES1   0.0000
   344 H190     -2.9094   -8.9387    0.2325   H         1 RES1   0.0000
   345 H191     -2.9771  -10.0761   -1.1137   H         1 RES1   0.0000
   346 H192     -2.2273   -8.0143   -2.0437   H         1 RES1   0.0000
   347 H193     -0.8448   -9.0989   -1.9948   H         1 RES1   0.0000
   348 H194     -0.7325   -7.7189    0.4806   H         1 RES1   0.0000
   349 H195     -1.2034   -6.4884   -0.6709   H         1 RES1   0.0000
   350 H196      0.7148   -7.1927   -2.1288   H         1 RES1   0.0000
   351 H197      1.2062   -8.3439   -0.9055   H         1 RES1   0.0000
   352 H198      1.5574   -6.5937    0.7374   H         1 RES1   0.0000
   353 H199      0.9905   -5.3513   -0.3607   H         1 RES1   0.0000
   354 H200      3.4449   -7.1314   -0.7340   H         1 RES1   0.0000
   355 H201      3.4877   -5.4649   -0.1943   H         1 RES1   0.0000
   356 H202      2.3269   -6.2132   -2.8889   H         1 RES1   0.0000
   357 H203      4.0524   -6.0236   -2.6710   H         1 RES1   0.0000
   358 H204      3.2391   -3.9568   -3.5458   H         1 RES1   0.0000
   359 H205      3.8002   -3.7450   -1.9011   H         1 RES1   0.0000
   360 H206     -0.2720   -3.4093   -2.6065   H         1 RES1   0.0000
   361 H207      0.2694   -5.0632   -2.3404   H         1 RES1   0.0000
   362 H208      1.6558   -4.7860   -4.5268   H         1 RES1   0.0000
   363 H209      0.6192   -3.4097   -4.8661   H         1 RES1   0.0000
   364 H210     -0.3585   -6.2473   -4.2710   H         1 RES1   0.0000
   365 H211     -0.0659   -5.6036   -5.8832   H         1 RES1   0.0000
   366 H212     -1.7225   -3.7605   -5.3436   H         1 RES1   0.0000
   367 H213     -2.1844   -4.6984   -3.9097   H         1 RES1   0.0000
   368 H214     -2.3236   -5.7623   -6.7522   H         1 RES1   0.0000
   369 H215     -3.6507   -4.9129   -5.9681   H         1 RES1   0.0000
   370 H216     -2.4557   -7.5272   -4.9689   H         1 RES1   0.0000
   371 H217     -3.8898   -7.3696   -5.9595   H         1 RES1   0.0000
   372 H218     -3.5384   -6.2239   -3.1653   H         1 RES1   0.0000
   373 H219     -4.3492   -7.7256   -3.5549   H         1 RES1   0.0000
   374 H220     -6.2942   -6.5701   -3.7546   H         1 RES1   0.0000
   375 H221     -5.6318   -5.7701   -5.1650   H         1 RES1   0.0000
   376 H222     -6.3816   -4.0528   -3.6846   H         1 RES1   0.0000
   377 H223     -4.6230   -4.0399   -3.6507   H         1 RES1   0.0000
   378 H224     -6.4432   -5.3186   -1.5498   H         1 RES1   0.0000
   379 H225     -5.6086   -3.7849   -1.3627   H         1 RES1   0.0000
   380 H226     -4.6894   -5.2885   -1.4600   H         1 RES1   0.0000
   381 H227      3.6229   -1.7659   -1.4208   H         1 RES1   0.0000
   382 H228      2.6072   -3.0189    1.2162   H         1 RES1   0.0000
   383 H229      4.1259   -2.1065    1.0975   H         1 RES1   0.0000
   384 H230      3.9299   -3.6083    0.2179   H         1 RES1   0.0000
   385 H231      4.3604    0.0246   -0.1198   H         1 RES1   0.0000
   386 H232      3.2996   -0.2320    2.1917   H         1 RES1   0.0000
   387 H233      2.0959    1.0137    1.7363   H         1 RES1   0.0000
   388 H234      3.7872    1.4474    1.9773   H         1 RES1   0.0000
   389 H235      4.2211    4.5439   -1.4140   H         1 RES1   0.0000
   390 H236      2.4993    4.0899   -1.3563   H         1 RES1   0.0000
   391 H237      3.2992    4.6089   -3.6359   H         1 RES1   0.0000
   392 H238      2.5425    3.0379   -3.4596   H         1 RES1   0.0000
   393 H239      4.6925    1.9161   -3.5600   H         1 RES1   0.0000
   394 H240      5.5621    3.4515   -3.6129   H         1 RES1   0.0000
   395 H241      4.8134    3.9887   -5.7692   H         1 RES1   0.0000
   396 H242      3.4489    2.8863   -5.7046   H         1 RES1   0.0000
   397 H243      6.3611    1.9944   -5.8670   H         1 RES1   0.0000
   398 H244      5.3108    2.2623   -7.2423   H         1 RES1   0.0000
   399 H245      5.2462   -0.0381   -6.9704   H         1 RES1   0.0000
   400 H246      3.7208    0.5124   -6.3076   H         1 RES1   0.0000
   401 H247      4.3222   -0.1169   -4.1161   H         1 RES1   0.0000
   402 H248      6.0233    0.2701   -4.4036   H         1 RES1   0.0000
   403 H249      6.2931   -1.8094   -5.7234   H         1 RES1   0.0000
   404 H250      4.6274   -2.2489   -5.3392   H         1 RES1   0.0000
   405 H251      5.1451   -2.1384   -2.9247   H         1 RES1   0.0000
   406 H252      6.7908   -1.6120   -3.2764   H         1 RES1   0.0000
   407 H253      5.6555   -4.3372   -4.0779   H         1 RES1   0.0000
   408 H254      6.7345   -4.0262   -2.7121   H         1 RES1   0.0000
   409 H255      7.2973   -3.7692   -4.3618   H         1 RES1   0.0000
   410 H256      5.2506    1.7701    0.4189   H         1 RES1   0.0000
   411 H257      4.8474    3.4819    0.6464   H         1 RES1   0.0000
   412 H258      7.0375    3.5146   -0.1039   H         1 RES1   0.0000
   413 H259      6.1645    3.8664   -1.5734   H         1 RES1   0.0000
   414 H260      6.3914    1.4775   -2.2696   H         1 RES1   0.0000
   415 H261      7.2856    1.1348   -0.7959   H         1 RES1   0.0000
   416 H262      9.1641    2.4063   -1.4772   H         1 RES1   0.0000
   417 H263      8.2220    3.3810   -2.6022   H         1 RES1   0.0000
   418 H264      7.9338    1.4193   -4.0797   H         1 RES1   0.0000
   419 H265      8.8344    0.4239   -2.9323   H         1 RES1   0.0000
   420 H266     10.8884    1.6467   -3.3688   H         1 RES1   0.0000
   421 H267     10.0078    2.9058   -4.2286   H         1 RES1   0.0000
   422 H268     11.0310    1.6603   -5.9152   H         1 RES1   0.0000
   423 H269      9.3603    1.1137   -5.9477   H         1 RES1   0.0000
   424 H270     11.6490   -0.3451   -4.5525   H         1 RES1   0.0000
   425 H271     11.1635   -0.6409   -6.2058   H         1 RES1   0.0000
   426 H272      9.7347   -2.2096   -5.4464   H         1 RES1   0.0000
   427 H273      8.7643   -0.9227   -4.7549   H         1 RES1   0.0000
   428 H274     11.0334   -2.4582   -3.3889   H         1 RES1   0.0000
   429 H275      9.3120   -2.6056   -3.0224   H         1 RES1   0.0000
   430 H276     10.1866   -1.1184   -2.6288   H         1 RES1   0.0000
@<TRIPOS>BOND
     1     1    24    1
     2     1    27    1
     3     1    31    1
     4     1   167    1
     5     1   170    1
     6     1   174    1
     7     1   310    1
     8     1   313    1
     9     1   317    1
    10     2     3    1
    11     2    53    1
    12     2    54    1
    13     2    55    1
    14     3     4    1
    15     3    56    1
    16     3    57    1
    17     4     5    1
    18     4    58    1
    19     4    59    1
    20     5     6    1
    21     5    60    1
    22     5    61    1
    23     6     7    1
    24     6    62    1
    25     6    63    1
    26     7     8    1
    27     7    64    1
    28     7    65    1
    29     8     9    1
    30     8    66    1
    31     8    67    1
    32     9    10    1
    33     9    68    1
    34     9    69    1
    35    10    11    1
    36    10    70    1
    37    10    71    1
    38    11    12    1
    39    11    72    1
    40    11    73    1
    41    12    13    1
    42    12    23    1
    43    13    14    1
    44    13    74    1
    45    13    75    1
    46    14    15    1
    47    14    76    1
    48    14    77    1
    49    15    16    1
    50    15    78    1
    51    15    79    1
    52    16    17    1
    53    16    80    1
    54    16    81    1
    55    17    18    1
    56    17    82    1
    57    17    83    1
    58    18    19    1
    59    18    84    1
    60    18    85    1
    61    19    20    1
    62    19    86    1
    63    19    87    1
    64    20    21    1
    65    20    88    1
    66    20    89    1
    67    21    22    1
    68    21    90    1
    69    21    91    1
    70    22    92    1
    71    22    93    1
    72    22    94    1
    73    23    24    2
    74    23    25    1
    75    25    26    1
    76    25    27    1
    77    25    95    1
    78    26    96    1
    79    26    97    1
    80    26    98    1
    81    27    28    1
    82    28    29    1
    83    28    30    1
    84    28    99    1
    85    29   100    1
    86    29   101    1
    87    29   102    1
    88    30    31    2
    89    30    32    1
    90    32    33    1
    91    32    43    1
    92    33    34    1
    93    33   103    1
    94    33   104    1
    95    34    35    1
    96    34   105    1
    97    34   106    1
    98    35    36    1
    99    35   107    1
   100    35   108    1
   101    36    37    1
   102    36   109    1
   103    36   110    1
   104    37    38    1
   105    37   111    1
   106    37   112    1
   107    38    39    1
   108    38   113    1
   109    38   114    1
   110    39    40    1
   111    39   115    1
   112    39   116    1
   113    40    41    1
   114    40   117    1
   115    40   118    1
   116    41    42    1
   117    41   119    1
   118    41   120    1
   119    42   121    1
   120    42   122    1
   121    42   123    1
   122    43    44    1
   123    43   124    1
   124    43   125    1
   125    44    45    1
   126    44   126    1
   127    44   127    1
   128    45    46    1
   129    45   128    1
   130    45   129    1
   131    46    47    1
   132    46   130    1
   133    46   131    1
   134    47    48    1
   135    47   132    1
   136    47   133    1
   137    48    49    1
   138    48   134    1
   139    48   135    1
   140    49    50    1
   141    49   136    1
   142    49   137    1
   143    50    51    1
   144    50   138    1
   145    50   139    1
   146    51    52    1
   147    51   140    1
   148    51   141    1
   149    52   142    1
   150    52   143    1
   151    52   144    1
   152   145   146    1
   153   145   196    1
   154   145   197    1
   155   145   198    1
   156   146   147    1
   157   146   199    1
   158   146   200    1
   159   147   148    1
   160   147   201    1
   161   147   202    1
   162   148   149    1
   163   148   203    1
   164   148   204    1
   165   149   150    1
   166   149   205    1
   167   149   206    1
   168   150   151    1
   169   150   207    1
   170   150   208    1
   171   151   152    1
   172   151   209    1
   173   151   210    1
   174   152   153    1
   175   152   211    1
   176   152   212    1
   177   153   154    1
   178   153   213    1
   179   153   214    1
   180   154   155    1
   181   154   215    1
   182   154   216    1
   183   155   156    1
   184   155   166    1
   185   156   157    1
   186   156   217    1
   187   156   218    1
   188   157   158    1
   189   157   219    1
   190   157   220    1
   191   158   159    1
   192   158   221    1
   193   158   222    1
   194   159   160    1
   195   159   223    1
   196   159   224    1
   197   160   161    1
   198   160   225    1
   199   160   226    1
   200   161   162    1
   201   161   227    1
   202   161   228    1
   203   162   163    1
   204   162   229    1
   205   162   230    1
   206   163   164    1
   207   163   231    1
   208   163   232    1
   209   164   165    1
   210   164   233    1
   211   164   234    1
   212   165   235    1
   213   165   236    1
   214   165   237    1
   215   166   167    2
   216   166   168    1
   217   168   169    1
   218   168   170    1
   219   168   238    1
   220   169   239    1
   221   169   240    1
   222   169   241    1
   223   170   171    1
   224   171   172    1
   225   171   173    1
   226   171   242    1
   227   172   243    1
   228   172   244    1
   229   172   245    1
   230   173   174    2
   231   173   175    1
   232   175   176    1
   233   175   186    1
   234   176   177    1
   235   176   246    1
   236   176   247    1
   237   177   178    1
   238   177   248    1
   239   177   249    1
   240   178   179    1
   241   178   250    1
   242   178   251    1
   243   179   180    1
   244   179   252    1
   245   179   253    1
   246   180   181    1
   247   180   254    1
   248   180   255    1
   249   181   182    1
   250   181   256    1
   251   181   257    1
   252   182   183    1
   253   182   258    1
   254   182   259    1
   255   183   184    1
   256   183   260    1
   257   183   261    1
   258   184   185    1
   259   184   262    1
   260   184   263    1
   261   185   264    1
   262   185   265    1
   263   185   266    1
   264   186   187    1
   265   186   267    1
   266   186   268    1
   267   187   188    1
   268   187   269    1
   269   187   270    1
   270   188   189    1
   271   188   271    1
   272   188   272    1
   273   189   190    1
   274   189   273    1
   275   189   274    1
   276   190   191    1
   277   190   275    1
   278   190   276    1
   279   191   192    1
   280   191   277    1
   281   191   278    1
   282   192   193    1
   283   192   279    1
   284   192   280    1
   285   193   194    1
   286   193   281    1
   287   193   282    1
   288   194   195    1
   289   194   283    1
   290   194   284    1
   291   195   285    1
   292   195   286    1
   293   195   287    1
   294   288   289    1
   295   288   339    1
   296   288   340    1
   297   288   341    1
   298   289   290    1
   299   289   342    1
   300   289   343    1
   301   290   291    1
   302   290   344    1
   303   290   345    1
   304   291   292    1
   305   291   346    1
   306   291   347    1
   307   292   293    1
   308   292   348    1
   309   292   349    1
   310   293   294    1
   311   293   350    1
   312   293   351    1
   313   294   295    1
   314   294   352    1
   315   294   353    1
   316   295   296    1
   317   295   354    1
   318   295   355    1
   319   296   297    1
   320   296   356    1
   321   296   357    1
   322   297   298    1
   323   297   358    1
   324   297   359    1
   325   298   299    1
   326   298   309    1
   327   299   300    1
   328   299   360    1
   329   299   361    1
   330   300   301    1
   331   300   362    1
   332   300   363    1
   333   301   302    1
   334   301   364    1
   335   301   365    1
   336   302   303    1
   337   302   366    1
   338   302   367    1
   339   303   304    1
   340   303   368    1
   341   303   369    1
   342   304   305    1
   343   304   370    1
   344   304   371    1
   345   305   306    1
   346   305   372    1
   347   305   373    1
   348   306   307    1
   349   306   374    1
   350   306   375    1
   351   307   308    1
   352   307   376    1
   353   307   377    1
   354   308   378    1
   355   308   379    1
   356   308   380    1
   357   309   310    2
   358   309   311    1
   359   311   312    1
   360   311   313    1
   361   311   381    1
   362   312   382    1
   363   312   383    1
   364   312   384    1
   365   313   314    1
   366   314   315    1
   367   314   316    1
   368   314   385    1
   369   315   386    1
   370   315   387    1
   371   315   388    1
   372   316   317    2
   373   316   318    1
   374   318   319    1
   375   318   329    1
   376   319   320    1
   377   319   389    1
   378   319   390    1
   379   320   321    1
   380   320   391    1
   381   320   392    1
   382   321   322    1
   383   321   393    1
   384   321   394    1
   385   322   323    1
   386   322   395    1
   387   322   396    1
   388   323   324    1
   389   323   397    1
   390   323   398    1
   391   324   325    1
   392   324   399    1
   393   324   400    1
   394   325   326    1
   395   325   401    1
   396   325   402    1
   397   326   327    1
   398   326   403    1
   399   326   404    1
   400   327   328    1
   401   327   405    1
   402   327   406    1
   403   328   407    1
   404   328   408    1
   405   328   409    1
   406   329   330    1
   407   329   410    1
   408   329   411    1
   409   330   331    1
   410   330   412    1
   411   330   413    1
   412   331   332    1
   413   331   414    1
   414   331   415    1
   415   332   333    1
   416   332   416    1
   417   332   417    1
   418   333   334    1
   419   333   418    1
   420   333   419    1
   421   334   335    1
   422   334   420    1
   423   334   421    1
   424   335   336    1
   425   335   422    1
   426   335   423    1
   427   336   337    1
   428   336   424    1
   429   336   425    1
   430   337   338    1
   431   337   426    1
   432   337   427    1
   433   338   428    1
   434   338   429    1
   435   338   430    1
@<TRIPOS>SUBSTRUCTURE
     1 RES1      430 GROUP             0 ****  ****    0  
