@<TRIPOS>MOLECULE
cn9_YICLED_0_nunpairedes_0_charge_3 Charge: 3 Unpaired_Electrons: 6 XTB_Unpaired_Electrons: 0 XTB_Charge: 3
   328   333     1     0     0
SMALL
NoCharges
****
Generated from Architector

@<TRIPOS>ATOM
     1 Eu1       0.1952    0.0154    0.1625   Eu        1 RES1   0.0000
     2 C1       -0.1469    7.7208   -1.7210   C.3       1 RES1   0.0000
     3 C2        0.8087    7.1977   -0.6535   C.3       1 RES1   0.0000
     4 C3        1.7509    6.1091   -1.1774   C.3       1 RES1   0.0000
     5 C4        2.6805    5.6371   -0.0602   C.3       1 RES1   0.0000
     6 C5        3.8128    4.6989   -0.4917   C.3       1 RES1   0.0000
     7 C6        3.2859    3.3761   -1.0603   C.3       1 RES1   0.0000
     8 N1        3.9380    2.1215   -0.6417   N.am      1 RES1   0.0000
     9 C7        5.3364    2.1116   -0.2312   C.3       1 RES1   0.0000
    10 C8        6.3872    1.3720   -1.0728   C.3       1 RES1   0.0000
    11 C9        6.8497    2.0309   -2.3865   C.3       1 RES1   0.0000
    12 C10       7.0120    3.5422   -2.2642   C.3       1 RES1   0.0000
    13 C11       5.9466    1.6544   -3.5723   C.3       1 RES1   0.0000
    14 C12       6.5791    0.5930   -4.4918   C.3       1 RES1   0.0000
    15 C13       7.2243   -0.5662   -3.7848   C.2       1 RES1   0.0000
    16 C14       6.6026   -1.6346   -3.2992   C.2       1 RES1   0.0000
    17 C15       5.1059   -1.8010   -3.3432   C.3       1 RES1   0.0000
    18 C16       7.3664   -2.7968   -2.7396   C.3       1 RES1   0.0000
    19 C17       3.1199    1.0790   -0.5459   C.2       1 RES1   0.0000
    20 O1        1.9051    1.1661   -0.8339   O.2       1 RES1   0.0000
    21 C18       3.6213   -0.2916   -0.0776   C.3       1 RES1   0.0000
    22 O2        2.4541   -1.0615    0.2149   O.3       1 RES1   0.0000
    23 C19       2.6961   -2.3208    0.8454   C.3       1 RES1   0.0000
    24 C20       1.5413   -2.5242    1.8530   C.2       1 RES1   0.0000
    25 O3        0.6097   -1.6902    1.8085   O.2       1 RES1   0.0000
    26 N2        1.6115   -3.4992    2.7509   N.am      1 RES1   0.0000
    27 C21       2.4644   -4.6662    2.5637   C.3       1 RES1   0.0000
    28 C22       1.8315   -5.7256    1.6455   C.3       1 RES1   0.0000
    29 C23       0.6484   -6.4694    2.2734   C.3       1 RES1   0.0000
    30 C24       0.1575   -7.6384    1.4112   C.3       1 RES1   0.0000
    31 C25      -0.5617   -7.2281    0.1248   C.3       1 RES1   0.0000
    32 C26      -1.8981   -6.5321    0.3684   C.3       1 RES1   0.0000
    33 C27       0.7047   -3.4777    3.9108   C.3       1 RES1   0.0000
    34 C28       1.3451   -3.8358    5.2614   C.3       1 RES1   0.0000
    35 C29       2.4454   -2.9185    5.8470   C.3       1 RES1   0.0000
    36 C30       3.2300   -2.1508    4.7786   C.3       1 RES1   0.0000
    37 C31       1.9876   -2.0267    7.0311   C.3       1 RES1   0.0000
    38 C32       0.5917   -1.4010    7.0047   C.3       1 RES1   0.0000
    39 C33       0.2583   -0.7455    5.7092   C.2       1 RES1   0.0000
    40 C34      -0.9616   -0.3845    5.3348   C.2       1 RES1   0.0000
    41 C35      -1.2258    0.1573    3.9638   C.3       1 RES1   0.0000
    42 C36      -2.1470   -0.4954    6.2436   C.3       1 RES1   0.0000
    43 H1       -0.7781    8.5081   -1.3102   H         1 RES1   0.0000
    44 H2       -0.7853    6.9199   -2.0936   H         1 RES1   0.0000
    45 H3        0.4068    8.1277   -2.5647   H         1 RES1   0.0000
    46 H4        0.2295    6.8136    0.1935   H         1 RES1   0.0000
    47 H5        1.4032    8.0321   -0.2772   H         1 RES1   0.0000
    48 H6        2.3384    6.5190   -1.9995   H         1 RES1   0.0000
    49 H7        1.1720    5.2700   -1.5795   H         1 RES1   0.0000
    50 H8        2.0835    5.1402    0.7131   H         1 RES1   0.0000
    51 H9        3.1405    6.5172    0.3965   H         1 RES1   0.0000
    52 H10       4.4257    4.5378    0.3951   H         1 RES1   0.0000
    53 H11       4.4261    5.2112   -1.2358   H         1 RES1   0.0000
    54 H12       3.3143    3.4120   -2.1522   H         1 RES1   0.0000
    55 H13       2.2380    3.2633   -0.7555   H         1 RES1   0.0000
    56 H14       5.3652    1.6931    0.7780   H         1 RES1   0.0000
    57 H15       5.6577    3.1470   -0.1777   H         1 RES1   0.0000
    58 H16       6.0753    0.3546   -1.2965   H         1 RES1   0.0000
    59 H17       7.2563    1.3071   -0.4121   H         1 RES1   0.0000
    60 H18       7.8413    1.6158   -2.5801   H         1 RES1   0.0000
    61 H19       6.0471    4.0406   -2.2343   H         1 RES1   0.0000
    62 H20       7.5536    3.9239   -3.1251   H         1 RES1   0.0000
    63 H21       7.5774    3.7945   -1.3704   H         1 RES1   0.0000
    64 H22       5.7598    2.5415   -4.1787   H         1 RES1   0.0000
    65 H23       4.9794    1.3111   -3.1982   H         1 RES1   0.0000
    66 H24       7.3456    1.0772   -5.0979   H         1 RES1   0.0000
    67 H25       5.8205    0.2104   -5.1799   H         1 RES1   0.0000
    68 H26       8.3031   -0.5379   -3.7192   H         1 RES1   0.0000
    69 H27       4.5927   -0.8710   -3.1032   H         1 RES1   0.0000
    70 H28       4.7823   -2.5801   -2.6533   H         1 RES1   0.0000
    71 H29       4.7937   -2.0917   -4.3465   H         1 RES1   0.0000
    72 H30       8.4271   -2.5740   -2.6769   H         1 RES1   0.0000
    73 H31       7.2392   -3.6605   -3.3921   H         1 RES1   0.0000
    74 H32       7.0096   -3.0765   -1.7490   H         1 RES1   0.0000
    75 H33       4.2605   -0.2050    0.8113   H         1 RES1   0.0000
    76 H34       4.2006   -0.7755   -0.8775   H         1 RES1   0.0000
    77 H35       3.6553   -2.2922    1.3780   H         1 RES1   0.0000
    78 H36       2.7156   -3.1128    0.0840   H         1 RES1   0.0000
    79 H37       2.6640   -5.1018    3.5413   H         1 RES1   0.0000
    80 H38       3.4241   -4.3554    2.1502   H         1 RES1   0.0000
    81 H39       2.6040   -6.4599    1.4014   H         1 RES1   0.0000
    82 H40       1.5238   -5.2506    0.7109   H         1 RES1   0.0000
    83 H41      -0.1868   -5.7907    2.4527   H         1 RES1   0.0000
    84 H42       0.9623   -6.8773    3.2369   H         1 RES1   0.0000
    85 H43      -0.5266   -8.2467    2.0062   H         1 RES1   0.0000
    86 H44       1.0142   -8.2627    1.1479   H         1 RES1   0.0000
    87 H45      -0.7395   -8.1297   -0.4655   H         1 RES1   0.0000
    88 H46       0.0937   -6.5779   -0.4601   H         1 RES1   0.0000
    89 H47      -2.5243   -7.1414    1.0157   H         1 RES1   0.0000
    90 H48      -2.4225   -6.3895   -0.5753   H         1 RES1   0.0000
    91 H49      -1.7577   -5.5598    0.8413   H         1 RES1   0.0000
    92 H50      -0.1058   -4.1959    3.7494   H         1 RES1   0.0000
    93 H51       0.2709   -2.4777    3.9626   H         1 RES1   0.0000
    94 H52       1.7409   -4.8503    5.2113   H         1 RES1   0.0000
    95 H53       0.5166   -3.8801    5.9682   H         1 RES1   0.0000
    96 H54       3.1860   -3.5865    6.3005   H         1 RES1   0.0000
    97 H55       2.6093   -1.5309    4.1369   H         1 RES1   0.0000
    98 H56       3.7818   -2.8489    4.1536   H         1 RES1   0.0000
    99 H57       3.9615   -1.5145    5.2684   H         1 RES1   0.0000
   100 H58       2.7244   -1.2279    7.1360   H         1 RES1   0.0000
   101 H59       2.0436   -2.6279    7.9412   H         1 RES1   0.0000
   102 H60       0.5367   -0.6649    7.8131   H         1 RES1   0.0000
   103 H61      -0.1703   -2.1482    7.2422   H         1 RES1   0.0000
   104 H62       1.0890   -0.5743    5.0434   H         1 RES1   0.0000
   105 H63      -0.3297    0.1304    3.3387   H         1 RES1   0.0000
   106 H64      -1.5897    1.1837    4.0216   H         1 RES1   0.0000
   107 H65      -1.9937   -0.4466    3.4819   H         1 RES1   0.0000
   108 H66      -2.2319   -1.4896    6.6754   H         1 RES1   0.0000
   109 H67      -3.0683   -0.2663    5.7179   H         1 RES1   0.0000
   110 H68      -2.0437    0.1990    7.0746   H         1 RES1   0.0000
   111 C37      -2.5971    4.9419    5.6816   C.3       1 RES1   0.0000
   112 C38      -3.5159    4.5749    4.5185   C.3       1 RES1   0.0000
   113 C39      -3.8256    3.0784    4.4906   C.3       1 RES1   0.0000
   114 C40      -4.9378    2.7139    3.5068   C.3       1 RES1   0.0000
   115 C41      -4.9773    1.2028    3.2033   C.3       1 RES1   0.0000
   116 C42      -4.2795    0.9622    1.8679   C.3       1 RES1   0.0000
   117 N3       -4.0955   -0.4317    1.4292   N.am      1 RES1   0.0000
   118 C43      -5.3077   -1.2391    1.2677   C.3       1 RES1   0.0000
   119 C44      -5.3394   -2.7087    1.7281   C.3       1 RES1   0.0000
   120 C45      -5.0946   -3.0366    3.2133   C.3       1 RES1   0.0000
   121 C46      -6.0613   -2.3053    4.1394   C.3       1 RES1   0.0000
   122 C47      -3.6399   -2.8078    3.6416   C.3       1 RES1   0.0000
   123 C48      -3.1819   -3.7218    4.7814   C.3       1 RES1   0.0000
   124 C49      -2.9530   -5.1475    4.3570   C.2       1 RES1   0.0000
   125 C50      -2.4764   -6.1108    5.1380   C.2       1 RES1   0.0000
   126 C51      -2.0980   -5.9044    6.5735   C.3       1 RES1   0.0000
   127 C52      -2.2953   -7.5121    4.6387   C.3       1 RES1   0.0000
   128 C53      -2.9096   -0.7334    0.9104   C.2       1 RES1   0.0000
   129 O4       -1.9092    0.0034    1.0320   O.2       1 RES1   0.0000
   130 C54      -2.7341   -2.0049    0.0891   C.3       1 RES1   0.0000
   131 O5       -1.4860   -1.9076   -0.5828   O.3       1 RES1   0.0000
   132 C55      -1.3800   -2.8416   -1.6611   C.3       1 RES1   0.0000
   133 C56      -0.6843   -2.1111   -2.8217   C.2       1 RES1   0.0000
   134 O6        0.0703   -1.1772   -2.5120   O.2       1 RES1   0.0000
   135 N4       -0.9932   -2.5171   -4.0576   N.am      1 RES1   0.0000
   136 C57      -1.5401   -3.8477   -4.3032   C.3       1 RES1   0.0000
   137 C58      -0.5706   -4.9737   -3.9358   C.3       1 RES1   0.0000
   138 C59       0.8424   -4.6993   -4.4544   C.3       1 RES1   0.0000
   139 C60       1.7911   -5.8776   -4.2325   C.3       1 RES1   0.0000
   140 C61       2.1618   -6.1549   -2.7762   C.3       1 RES1   0.0000
   141 C62       2.9755   -5.0154   -2.1706   C.3       1 RES1   0.0000
   142 C63      -0.4972   -1.7800   -5.2256   C.3       1 RES1   0.0000
   143 C64      -1.4143   -1.7535   -6.4639   C.3       1 RES1   0.0000
   144 C65      -2.3162   -0.5205   -6.6312   C.3       1 RES1   0.0000
   145 C66      -3.2032   -0.3294   -5.4015   C.3       1 RES1   0.0000
   146 C67      -1.4449    0.6997   -6.9397   C.3       1 RES1   0.0000
   147 C68      -2.1743    2.0066   -7.2649   C.3       1 RES1   0.0000
   148 C69      -1.2325    3.1859   -7.2433   C.2       1 RES1   0.0000
   149 C70      -1.5273    4.4236   -7.6329   C.2       1 RES1   0.0000
   150 C71      -0.4930    5.5107   -7.6459   C.3       1 RES1   0.0000
   151 C72      -2.8951    4.8048   -8.1227   C.3       1 RES1   0.0000
   152 H69      -2.2200    5.9555    5.5665   H         1 RES1   0.0000
   153 H70      -1.7552    4.2530    5.7404   H         1 RES1   0.0000
   154 H71      -3.1313    4.8948    6.6271   H         1 RES1   0.0000
   155 H72      -3.0534    4.8689    3.5701   H         1 RES1   0.0000
   156 H73      -4.4424    5.1400    4.6134   H         1 RES1   0.0000
   157 H74      -4.1077    2.7591    5.4953   H         1 RES1   0.0000
   158 H75      -2.9197    2.5300    4.2168   H         1 RES1   0.0000
   159 H76      -4.7960    3.2611    2.5689   H         1 RES1   0.0000
   160 H77      -5.8910    3.0434    3.9190   H         1 RES1   0.0000
   161 H78      -6.0160    0.8782    3.1626   H         1 RES1   0.0000
   162 H79      -4.4682    0.6465    3.9904   H         1 RES1   0.0000
   163 H80      -3.2805    1.4022    1.9223   H         1 RES1   0.0000
   164 H81      -4.8502    1.4840    1.0885   H         1 RES1   0.0000
   165 H82      -5.6070   -1.2124    0.2095   H         1 RES1   0.0000
   166 H83      -6.0785   -0.7225    1.8346   H         1 RES1   0.0000
   167 H84      -4.6718   -3.3288    1.1320   H         1 RES1   0.0000
   168 H85      -6.3537   -3.0302    1.4762   H         1 RES1   0.0000
   169 H86      -5.3060   -4.1051    3.3151   H         1 RES1   0.0000
   170 H87      -5.9517   -1.2282    4.0728   H         1 RES1   0.0000
   171 H88      -5.8720   -2.5879    5.1703   H         1 RES1   0.0000
   172 H89      -7.0900   -2.5667    3.9071   H         1 RES1   0.0000
   173 H90      -3.5408   -1.7720    3.9622   H         1 RES1   0.0000
   174 H91      -2.9595   -2.9609    2.7996   H         1 RES1   0.0000
   175 H92      -3.9162   -3.7060    5.5900   H         1 RES1   0.0000
   176 H93      -2.2465   -3.3225    5.1850   H         1 RES1   0.0000
   177 H94      -3.2245   -5.3936    3.3390   H         1 RES1   0.0000
   178 H95      -1.1245   -6.3479    6.7803   H         1 RES1   0.0000
   179 H96      -2.0765   -4.8526    6.8439   H         1 RES1   0.0000
   180 H97      -2.8258   -6.4030    7.2128   H         1 RES1   0.0000
   181 H98      -2.7941   -8.2170    5.3004   H         1 RES1   0.0000
   182 H99      -1.2377   -7.7735    4.6239   H         1 RES1   0.0000
   183 H100     -2.6987   -7.6377    3.6374   H         1 RES1   0.0000
   184 H101     -3.5542   -2.0768   -0.6384   H         1 RES1   0.0000
   185 H102     -2.7425   -2.9019    0.7226   H         1 RES1   0.0000
   186 H103     -2.3720   -3.1817   -1.9717   H         1 RES1   0.0000
   187 H104     -0.8026   -3.7173   -1.3337   H         1 RES1   0.0000
   188 H105     -1.7411   -3.9261   -5.3690   H         1 RES1   0.0000
   189 H106     -2.4976   -3.9758   -3.7905   H         1 RES1   0.0000
   190 H107     -0.9572   -5.8858   -4.3926   H         1 RES1   0.0000
   191 H108     -0.5515   -5.1360   -2.8592   H         1 RES1   0.0000
   192 H109      1.2565   -3.7980   -3.9912   H         1 RES1   0.0000
   193 H110      0.7909   -4.5250   -5.5308   H         1 RES1   0.0000
   194 H111      2.7132   -5.6817   -4.7813   H         1 RES1   0.0000
   195 H112      1.3356   -6.7715   -4.6582   H         1 RES1   0.0000
   196 H113      2.7607   -7.0672   -2.7426   H         1 RES1   0.0000
   197 H114      1.2630   -6.3399   -2.1840   H         1 RES1   0.0000
   198 H115      3.8779   -4.8619   -2.7588   H         1 RES1   0.0000
   199 H116      3.2785   -5.2548   -1.1522   H         1 RES1   0.0000
   200 H117      2.4035   -4.0856   -2.1652   H         1 RES1   0.0000
   201 H118      0.4585   -2.2131   -5.5257   H         1 RES1   0.0000
   202 H119     -0.2974   -0.7669   -4.8870   H         1 RES1   0.0000
   203 H120     -2.0685   -2.6220   -6.5052   H         1 RES1   0.0000
   204 H121     -0.7652   -1.8075   -7.3390   H         1 RES1   0.0000
   205 H122     -2.9663   -0.7228   -7.4903   H         1 RES1   0.0000
   206 H123     -2.6404    0.0936   -4.5695   H         1 RES1   0.0000
   207 H124     -3.6070   -1.2863   -5.0734   H         1 RES1   0.0000
   208 H125     -4.0423    0.3243   -5.6288   H         1 RES1   0.0000
   209 H126     -0.7953    0.4520   -7.7860   H         1 RES1   0.0000
   210 H127     -0.7913    0.8618   -6.0807   H         1 RES1   0.0000
   211 H128     -2.9937    2.1742   -6.5568   H         1 RES1   0.0000
   212 H129     -2.6236    1.9311   -8.2625   H         1 RES1   0.0000
   213 H130     -0.2086    2.9825   -6.9658   H         1 RES1   0.0000
   214 H131     -0.8367    6.3781   -7.0840   H         1 RES1   0.0000
   215 H132      0.4434    5.1535   -7.2196   H         1 RES1   0.0000
   216 H133     -0.3145    5.8507   -8.6690   H         1 RES1   0.0000
   217 H134     -2.9200    5.8341   -8.4810   H         1 RES1   0.0000
   218 H135     -3.6375    4.6999   -7.3267   H         1 RES1   0.0000
   219 H136     -3.1947    4.1469   -8.9388   H         1 RES1   0.0000
   220 C73      -4.6563    6.7730   -0.8149   C.3       1 RES1   0.0000
   221 C74      -4.5727    5.5001   -1.6448   C.3       1 RES1   0.0000
   222 C75      -4.0838    5.7847   -3.0653   C.3       1 RES1   0.0000
   223 C76      -3.9542    4.5398   -3.9427   C.3       1 RES1   0.0000
   224 C77      -2.9498    3.5181   -3.4165   C.3       1 RES1   0.0000
   225 C78      -1.5373    4.0808   -3.1813   C.3       1 RES1   0.0000
   226 N5       -0.6941    2.9623   -2.7883   N.am      1 RES1   0.0000
   227 C79      -0.1227    2.1862   -3.8884   C.3       1 RES1   0.0000
   228 C80       1.3218    2.6066   -4.1923   C.3       1 RES1   0.0000
   229 C81       1.9311    1.8032   -5.3590   C.3       1 RES1   0.0000
   230 C82       2.4628    0.4456   -4.8792   C.3       1 RES1   0.0000
   231 C83       3.0376    2.5914   -6.0826   C.3       1 RES1   0.0000
   232 C84       3.3324    1.9872   -7.4687   C.3       1 RES1   0.0000
   233 C85       2.2983    2.4293   -8.4655   C.2       1 RES1   0.0000
   234 C86       2.4331    3.4572   -9.2971   C.2       1 RES1   0.0000
   235 C87       3.6723    4.2999   -9.3759   C.3       1 RES1   0.0000
   236 C88       1.3827    3.8144  -10.3021   C.3       1 RES1   0.0000
   237 C89      -0.8530    2.3923   -1.5964   C.2       1 RES1   0.0000
   238 O7       -0.7705    1.1670   -1.4078   O.2       1 RES1   0.0000
   239 C90      -1.0646    3.2850   -0.3579   C.3       1 RES1   0.0000
   240 O8       -0.5624    2.5125    0.7256   O.3       1 RES1   0.0000
   241 C91      -0.3176    3.2122    1.9389   C.3       1 RES1   0.0000
   242 C92       0.8764    2.4940    2.5983   C.2       1 RES1   0.0000
   243 O9        1.2853    1.4429    2.0610   O.2       1 RES1   0.0000
   244 N6        1.4143    3.0218    3.6916   N.am      1 RES1   0.0000
   245 C93       0.9359    4.2425    4.3316   C.3       1 RES1   0.0000
   246 C94       1.7623    5.4902    3.9626   C.3       1 RES1   0.0000
   247 C95       3.0028    5.7563    4.8234   C.3       1 RES1   0.0000
   248 C96       2.6665    6.0896    6.2762   C.3       1 RES1   0.0000
   249 C97       3.9039    6.3979    7.1195   C.3       1 RES1   0.0000
   250 C98       4.8240    5.1912    7.2765   C.3       1 RES1   0.0000
   251 C99       2.5451    2.3551    4.3438   C.3       1 RES1   0.0000
   252 C100      3.7776    2.2100    3.4352   C.3       1 RES1   0.0000
   253 C101      5.1199    2.3184    4.2005   C.3       1 RES1   0.0000
   254 C102      6.1040    3.2484    3.4940   C.3       1 RES1   0.0000
   255 C103      5.7526    0.9464    4.4719   C.3       1 RES1   0.0000
   256 C104      6.2820    0.2262    3.2309   C.3       1 RES1   0.0000
   257 C105      6.3447   -1.2611    3.4345   C.2       1 RES1   0.0000
   258 C106      6.6545   -2.1681    2.5169   C.2       1 RES1   0.0000
   259 C107      7.0844   -1.8262    1.1230   C.3       1 RES1   0.0000
   260 C108      6.6678   -3.6355    2.8275   C.3       1 RES1   0.0000
   261 H137     -5.0729    6.5617    0.1652   H         1 RES1   0.0000
   262 H138     -5.2947    7.5066   -1.2953   H         1 RES1   0.0000
   263 H139     -3.6720    7.2154   -0.6923   H         1 RES1   0.0000
   264 H140     -5.5640    5.0496   -1.6985   H         1 RES1   0.0000
   265 H141     -3.9061    4.7864   -1.1465   H         1 RES1   0.0000
   266 H142     -3.1254    6.3090   -3.0391   H         1 RES1   0.0000
   267 H143     -4.7876    6.4625   -3.5480   H         1 RES1   0.0000
   268 H144     -3.6399    4.8518   -4.9403   H         1 RES1   0.0000
   269 H145     -4.9260    4.0447   -4.0364   H         1 RES1   0.0000
   270 H146     -2.8663    2.7174   -4.1541   H         1 RES1   0.0000
   271 H147     -3.3189    3.0770   -2.4843   H         1 RES1   0.0000
   272 H148     -1.5412    4.8407   -2.4023   H         1 RES1   0.0000
   273 H149     -1.1394    4.5159   -4.0999   H         1 RES1   0.0000
   274 H150     -0.7340    2.3533   -4.7729   H         1 RES1   0.0000
   275 H151     -0.1473    1.1318   -3.6078   H         1 RES1   0.0000
   276 H152      1.9162    2.4372   -3.2957   H         1 RES1   0.0000
   277 H153      1.3404    3.6691   -4.4442   H         1 RES1   0.0000
   278 H154      1.1460    1.6174   -6.0927   H         1 RES1   0.0000
   279 H155      3.5394    0.4942   -4.7535   H         1 RES1   0.0000
   280 H156      2.2534   -0.3481   -5.5942   H         1 RES1   0.0000
   281 H157      2.0155    0.1718   -3.9269   H         1 RES1   0.0000
   282 H158      3.9495    2.5985   -5.4784   H         1 RES1   0.0000
   283 H159      2.7408    3.6341   -6.2374   H         1 RES1   0.0000
   284 H160      3.3491    0.8968   -7.4043   H         1 RES1   0.0000
   285 H161      4.3207    2.3037   -7.8020   H         1 RES1   0.0000
   286 H162      1.3679    1.8767   -8.4626   H         1 RES1   0.0000
   287 H163      4.1706    4.3992   -8.4155   H         1 RES1   0.0000
   288 H164      3.4286    5.2897   -9.7510   H         1 RES1   0.0000
   289 H165      4.3777    3.8458  -10.0705   H         1 RES1   0.0000
   290 H166      0.4895    3.2019  -10.2073   H         1 RES1   0.0000
   291 H167      1.7952    3.6753  -11.2997   H         1 RES1   0.0000
   292 H168      1.1057    4.8644  -10.2212   H         1 RES1   0.0000
   293 H169     -2.1292    3.5112   -0.2028   H         1 RES1   0.0000
   294 H170     -0.5027    4.2236   -0.4567   H         1 RES1   0.0000
   295 H171     -1.2023    3.1526    2.5902   H         1 RES1   0.0000
   296 H172     -0.0853    4.2666    1.7499   H         1 RES1   0.0000
   297 H173      0.9594    4.0937    5.4132   H         1 RES1   0.0000
   298 H174     -0.1040    4.4043    4.0548   H         1 RES1   0.0000
   299 H175      1.1070    6.3602    4.0354   H         1 RES1   0.0000
   300 H176      2.0705    5.3918    2.9199   H         1 RES1   0.0000
   301 H177      3.5334    6.6089    4.3915   H         1 RES1   0.0000
   302 H178      3.6747    4.9010    4.7799   H         1 RES1   0.0000
   303 H179      2.1340    5.2592    6.7451   H         1 RES1   0.0000
   304 H180      2.0020    6.9543    6.2940   H         1 RES1   0.0000
   305 H181      3.5699    6.7213    8.1077   H         1 RES1   0.0000
   306 H182      4.4569    7.2249    6.6707   H         1 RES1   0.0000
   307 H183      4.2564    4.3219    7.6088   H         1 RES1   0.0000
   308 H184      5.5861    5.4039    8.0207   H         1 RES1   0.0000
   309 H185      5.3269    4.9500    6.3413   H         1 RES1   0.0000
   310 H186      2.2116    1.3765    4.7016   H         1 RES1   0.0000
   311 H187      2.8062    2.9513    5.2175   H         1 RES1   0.0000
   312 H188      3.7306    2.9914    2.6733   H         1 RES1   0.0000
   313 H189      3.7180    1.2489    2.9213   H         1 RES1   0.0000
   314 H190      4.9154    2.7522    5.1839   H         1 RES1   0.0000
   315 H191      6.3241    2.9113    2.4836   H         1 RES1   0.0000
   316 H192      7.0344    3.2875    4.0549   H         1 RES1   0.0000
   317 H193      5.7036    4.2576    3.4336   H         1 RES1   0.0000
   318 H194      5.0014    0.3275    4.9651   H         1 RES1   0.0000
   319 H195      6.5805    1.0689    5.1727   H         1 RES1   0.0000
   320 H196      7.2740    0.6085    2.9796   H         1 RES1   0.0000
   321 H197      5.6300    0.4365    2.3761   H         1 RES1   0.0000
   322 H198      6.1124   -1.6002    4.4318   H         1 RES1   0.0000
   323 H199      7.0851   -0.7556    0.9460   H         1 RES1   0.0000
   324 H200      6.4405   -2.3167    0.3914   H         1 RES1   0.0000
   325 H201      8.0979   -2.1944    0.9701   H         1 RES1   0.0000
   326 H202      6.1355   -3.8602    3.7478   H         1 RES1   0.0000
   327 H203      7.6939   -3.9789    2.9471   H         1 RES1   0.0000
   328 H204      6.2295   -4.2053    2.0090   H         1 RES1   0.0000
@<TRIPOS>BOND
     1     1    20    1
     2     1    22    1
     3     1    25    1
     4     1   129    1
     5     1   131    1
     6     1   134    1
     7     1   238    1
     8     1   240    1
     9     1   243    1
    10     2     3    1
    11     2    43    1
    12     2    44    1
    13     2    45    1
    14     3     4    1
    15     3    46    1
    16     3    47    1
    17     4     5    1
    18     4    48    1
    19     4    49    1
    20     5     6    1
    21     5    50    1
    22     5    51    1
    23     6     7    1
    24     6    52    1
    25     6    53    1
    26     7     8    1
    27     7    54    1
    28     7    55    1
    29     8     9    1
    30     8    19    1
    31     9    10    1
    32     9    56    1
    33     9    57    1
    34    10    11    1
    35    10    58    1
    36    10    59    1
    37    11    12    1
    38    11    13    1
    39    11    60    1
    40    12    61    1
    41    12    62    1
    42    12    63    1
    43    13    14    1
    44    13    64    1
    45    13    65    1
    46    14    15    1
    47    14    66    1
    48    14    67    1
    49    15    16    2
    50    15    68    1
    51    16    17    1
    52    16    18    1
    53    17    69    1
    54    17    70    1
    55    17    71    1
    56    18    72    1
    57    18    73    1
    58    18    74    1
    59    19    20    2
    60    19    21    1
    61    21    22    1
    62    21    75    1
    63    21    76    1
    64    22    23    1
    65    23    24    1
    66    23    77    1
    67    23    78    1
    68    24    25    2
    69    24    26    1
    70    26    27    1
    71    26    33    1
    72    27    28    1
    73    27    79    1
    74    27    80    1
    75    28    29    1
    76    28    81    1
    77    28    82    1
    78    29    30    1
    79    29    83    1
    80    29    84    1
    81    30    31    1
    82    30    85    1
    83    30    86    1
    84    31    32    1
    85    31    87    1
    86    31    88    1
    87    32    89    1
    88    32    90    1
    89    32    91    1
    90    33    34    1
    91    33    92    1
    92    33    93    1
    93    34    35    1
    94    34    94    1
    95    34    95    1
    96    35    36    1
    97    35    37    1
    98    35    96    1
    99    36    97    1
   100    36    98    1
   101    36    99    1
   102    37    38    1
   103    37   100    1
   104    37   101    1
   105    38    39    1
   106    38   102    1
   107    38   103    1
   108    39    40    2
   109    39   104    1
   110    40    41    1
   111    40    42    1
   112    41   105    1
   113    41   106    1
   114    41   107    1
   115    42   108    1
   116    42   109    1
   117    42   110    1
   118   111   112    1
   119   111   152    1
   120   111   153    1
   121   111   154    1
   122   112   113    1
   123   112   155    1
   124   112   156    1
   125   113   114    1
   126   113   157    1
   127   113   158    1
   128   114   115    1
   129   114   159    1
   130   114   160    1
   131   115   116    1
   132   115   161    1
   133   115   162    1
   134   116   117    1
   135   116   163    1
   136   116   164    1
   137   117   118    1
   138   117   128    1
   139   118   119    1
   140   118   165    1
   141   118   166    1
   142   119   120    1
   143   119   167    1
   144   119   168    1
   145   120   121    1
   146   120   122    1
   147   120   169    1
   148   121   170    1
   149   121   171    1
   150   121   172    1
   151   122   123    1
   152   122   173    1
   153   122   174    1
   154   123   124    1
   155   123   175    1
   156   123   176    1
   157   124   125    2
   158   124   177    1
   159   125   126    1
   160   125   127    1
   161   126   178    1
   162   126   179    1
   163   126   180    1
   164   127   181    1
   165   127   182    1
   166   127   183    1
   167   128   129    2
   168   128   130    1
   169   130   131    1
   170   130   184    1
   171   130   185    1
   172   131   132    1
   173   132   133    1
   174   132   186    1
   175   132   187    1
   176   133   134    2
   177   133   135    1
   178   135   136    1
   179   135   142    1
   180   136   137    1
   181   136   188    1
   182   136   189    1
   183   137   138    1
   184   137   190    1
   185   137   191    1
   186   138   139    1
   187   138   192    1
   188   138   193    1
   189   139   140    1
   190   139   194    1
   191   139   195    1
   192   140   141    1
   193   140   196    1
   194   140   197    1
   195   141   198    1
   196   141   199    1
   197   141   200    1
   198   142   143    1
   199   142   201    1
   200   142   202    1
   201   143   144    1
   202   143   203    1
   203   143   204    1
   204   144   145    1
   205   144   146    1
   206   144   205    1
   207   145   206    1
   208   145   207    1
   209   145   208    1
   210   146   147    1
   211   146   209    1
   212   146   210    1
   213   147   148    1
   214   147   211    1
   215   147   212    1
   216   148   149    2
   217   148   213    1
   218   149   150    1
   219   149   151    1
   220   150   214    1
   221   150   215    1
   222   150   216    1
   223   151   217    1
   224   151   218    1
   225   151   219    1
   226   220   221    1
   227   220   261    1
   228   220   262    1
   229   220   263    1
   230   221   222    1
   231   221   264    1
   232   221   265    1
   233   222   223    1
   234   222   266    1
   235   222   267    1
   236   223   224    1
   237   223   268    1
   238   223   269    1
   239   224   225    1
   240   224   270    1
   241   224   271    1
   242   225   226    1
   243   225   272    1
   244   225   273    1
   245   226   227    1
   246   226   237    1
   247   227   228    1
   248   227   274    1
   249   227   275    1
   250   228   229    1
   251   228   276    1
   252   228   277    1
   253   229   230    1
   254   229   231    1
   255   229   278    1
   256   230   279    1
   257   230   280    1
   258   230   281    1
   259   231   232    1
   260   231   282    1
   261   231   283    1
   262   232   233    1
   263   232   284    1
   264   232   285    1
   265   233   234    2
   266   233   286    1
   267   234   235    1
   268   234   236    1
   269   235   287    1
   270   235   288    1
   271   235   289    1
   272   236   290    1
   273   236   291    1
   274   236   292    1
   275   237   238    2
   276   237   239    1
   277   239   240    1
   278   239   293    1
   279   239   294    1
   280   240   241    1
   281   241   242    1
   282   241   295    1
   283   241   296    1
   284   242   243    2
   285   242   244    1
   286   244   245    1
   287   244   251    1
   288   245   246    1
   289   245   297    1
   290   245   298    1
   291   246   247    1
   292   246   299    1
   293   246   300    1
   294   247   248    1
   295   247   301    1
   296   247   302    1
   297   248   249    1
   298   248   303    1
   299   248   304    1
   300   249   250    1
   301   249   305    1
   302   249   306    1
   303   250   307    1
   304   250   308    1
   305   250   309    1
   306   251   252    1
   307   251   310    1
   308   251   311    1
   309   252   253    1
   310   252   312    1
   311   252   313    1
   312   253   254    1
   313   253   255    1
   314   253   314    1
   315   254   315    1
   316   254   316    1
   317   254   317    1
   318   255   256    1
   319   255   318    1
   320   255   319    1
   321   256   257    1
   322   256   320    1
   323   256   321    1
   324   257   258    2
   325   257   322    1
   326   258   259    1
   327   258   260    1
   328   259   323    1
   329   259   324    1
   330   259   325    1
   331   260   326    1
   332   260   327    1
   333   260   328    1
@<TRIPOS>SUBSTRUCTURE
     1 RES1      328 GROUP             0 ****  ****    0  
