@<TRIPOS>MOLECULE
am_c3_9H2O_c0_0_nunpairedes_0_charge_3 Charge: 3 Unpaired_Electrons: 6 XTB_Unpaired_Electrons: 0 XTB_Charge: 3
   232   237     1     0     0
SMALL
NoCharges
****
Generated from Architector

@<TRIPOS>ATOM
     1 Eu1      -0.2221    0.1178   -0.6336   Eu        1 RES1   0.0000
     2 C1       -3.4986   -6.2115    0.3947   C.3       1 RES1   0.0000
     3 C2       -3.5166   -5.8216    1.8726   C.3       1 RES1   0.0000
     4 C3       -3.4566   -4.3074    2.1109   C.3       1 RES1   0.0000
     5 C4       -4.7959   -3.6246    1.8005   C.3       1 RES1   0.0000
     6 C5       -4.7334   -2.2397    1.1485   C.3       1 RES1   0.0000
     7 N1       -4.1359   -1.0936    1.8522   N.am      1 RES1   0.0000
     8 C6       -4.8827   -0.5880    2.9997   C.3       1 RES1   0.0000
     9 C7       -4.7255   -1.3435    4.3272   C.3       1 RES1   0.0000
    10 C8       -3.4082   -1.1293    5.0735   C.3       1 RES1   0.0000
    11 C9       -2.2980   -2.0735    4.6286   C.3       1 RES1   0.0000
    12 C10      -1.0362   -1.9131    5.4641   C.3       1 RES1   0.0000
    13 C11      -3.2409   -0.3640    1.1922   C.2       1 RES1   0.0000
    14 O1       -2.6701   -0.7374    0.1444   O.2       1 RES1   0.0000
    15 C12      -2.8492    1.0529    1.6581   C.3       1 RES1   0.0000
    16 O2       -2.0385    1.6370    0.6372   O.3       1 RES1   0.0000
    17 C13      -2.7656    2.3267   -0.3909   C.3       1 RES1   0.0000
    18 C14      -1.9179    2.3661   -1.6674   C.2       1 RES1   0.0000
    19 O3       -1.5222    1.2450   -2.0697   O.2       1 RES1   0.0000
    20 N2       -1.7254    3.4780   -2.3651   N.am      1 RES1   0.0000
    21 C15      -1.2387    3.3199   -3.7457   C.3       1 RES1   0.0000
    22 C16       0.0632    4.0357   -4.0963   C.3       1 RES1   0.0000
    23 C17       1.2159    3.6597   -3.1699   C.3       1 RES1   0.0000
    24 C18       2.5042    4.3796   -3.5693   C.3       1 RES1   0.0000
    25 C19       3.6764    3.9921   -2.6789   C.3       1 RES1   0.0000
    26 C20      -1.7303    4.8338   -1.8128   C.3       1 RES1   0.0000
    27 C21      -2.9774    5.7189   -1.9159   C.3       1 RES1   0.0000
    28 C22      -3.6567    5.7849   -3.2795   C.3       1 RES1   0.0000
    29 C23      -4.6569    4.6452   -3.4679   C.3       1 RES1   0.0000
    30 C24      -5.4025    4.7496   -4.7913   C.3       1 RES1   0.0000
    31 H1       -3.7573   -7.2634    0.2800   H         1 RES1   0.0000
    32 H2       -2.5096   -6.0592   -0.0416   H         1 RES1   0.0000
    33 H3       -4.2239   -5.6341   -0.1810   H         1 RES1   0.0000
    34 H4       -2.6761   -6.3107    2.3682   H         1 RES1   0.0000
    35 H5       -4.4265   -6.2057    2.3338   H         1 RES1   0.0000
    36 H6       -2.6565   -3.8693    1.5114   H         1 RES1   0.0000
    37 H7       -3.1951   -4.1446    3.1525   H         1 RES1   0.0000
    38 H8       -5.4174   -3.6066    2.6948   H         1 RES1   0.0000
    39 H9       -5.3335   -4.2458    1.0781   H         1 RES1   0.0000
    40 H10      -5.7714   -1.9610    0.9297   H         1 RES1   0.0000
    41 H11      -4.1911   -2.3171    0.2046   H         1 RES1   0.0000
    42 H12      -5.9424   -0.6062    2.7254   H         1 RES1   0.0000
    43 H13      -4.6136    0.4512    3.1740   H         1 RES1   0.0000
    44 H14      -4.8832   -2.4094    4.1879   H         1 RES1   0.0000
    45 H15      -5.5422   -0.9899    4.9563   H         1 RES1   0.0000
    46 H16      -3.5956   -1.3085    6.1311   H         1 RES1   0.0000
    47 H17      -3.0841   -0.0946    4.9746   H         1 RES1   0.0000
    48 H18      -2.0720   -1.9111    3.5690   H         1 RES1   0.0000
    49 H19      -2.6561   -3.0958    4.7552   H         1 RES1   0.0000
    50 H20      -0.6348   -0.9059    5.3836   H         1 RES1   0.0000
    51 H21      -0.2745   -2.6238    5.1519   H         1 RES1   0.0000
    52 H22      -1.2553   -2.1032    6.5103   H         1 RES1   0.0000
    53 H23      -2.2292    1.0144    2.5612   H         1 RES1   0.0000
    54 H24      -3.7235    1.6861    1.8321   H         1 RES1   0.0000
    55 H25      -3.0652    3.3142   -0.0418   H         1 RES1   0.0000
    56 H26      -3.6568    1.7499   -0.6690   H         1 RES1   0.0000
    57 H27      -2.0217    3.6733   -4.4170   H         1 RES1   0.0000
    58 H28      -1.0947    2.2470   -3.8915   H         1 RES1   0.0000
    59 H29      -0.0669    5.1198   -4.1214   H         1 RES1   0.0000
    60 H30       0.3092    3.7373   -5.1152   H         1 RES1   0.0000
    61 H31       1.3669    2.5761   -3.2104   H         1 RES1   0.0000
    62 H32       0.9665    3.9164   -2.1349   H         1 RES1   0.0000
    63 H33       2.3549    5.4593   -3.5117   H         1 RES1   0.0000
    64 H34       2.7448    4.1369   -4.6064   H         1 RES1   0.0000
    65 H35       3.5145    4.3323   -1.6571   H         1 RES1   0.0000
    66 H36       4.5909    4.4412   -3.0554   H         1 RES1   0.0000
    67 H37       3.8046    2.9125   -2.6728   H         1 RES1   0.0000
    68 H38      -0.9164    5.3471   -2.3239   H         1 RES1   0.0000
    69 H39      -1.4617    4.7624   -0.7601   H         1 RES1   0.0000
    70 H40      -2.6398    6.7190   -1.6484   H         1 RES1   0.0000
    71 H41      -3.7114    5.4196   -1.1699   H         1 RES1   0.0000
    72 H42      -2.9134    5.7886   -4.0791   H         1 RES1   0.0000
    73 H43      -4.2052    6.7251   -3.3518   H         1 RES1   0.0000
    74 H44      -5.3852    4.6902   -2.6536   H         1 RES1   0.0000
    75 H45      -4.1486    3.6767   -3.4022   H         1 RES1   0.0000
    76 H46      -5.9414    5.6899   -4.8478   H         1 RES1   0.0000
    77 H47      -6.1217    3.9411   -4.8797   H         1 RES1   0.0000
    78 H48      -4.7161    4.7014   -5.6320   H         1 RES1   0.0000
    79 C25      -4.8234    4.9285    1.9371   C.3       1 RES1   0.0000
    80 C26      -3.5570    5.7552    2.0961   C.3       1 RES1   0.0000
    81 C27      -2.3126    4.8931    2.3219   C.3       1 RES1   0.0000
    82 C28      -1.0269    5.7269    2.2964   C.3       1 RES1   0.0000
    83 C29       0.1680    5.0806    1.5825   C.3       1 RES1   0.0000
    84 N3        0.8629    3.9469    2.2068   N.am      1 RES1   0.0000
    85 C30       1.7483    4.2896    3.3237   C.3       1 RES1   0.0000
    86 C31       1.1353    4.5712    4.7048   C.3       1 RES1   0.0000
    87 C32       0.5743    3.3802    5.4788   C.3       1 RES1   0.0000
    88 C33      -0.8728    3.0467    5.1366   C.3       1 RES1   0.0000
    89 C34      -1.4358    2.0298    6.1174   C.3       1 RES1   0.0000
    90 C35       0.9502    2.8088    1.5122   C.2       1 RES1   0.0000
    91 O4        0.2854    2.5574    0.4878   O.2       1 RES1   0.0000
    92 C36       1.9136    1.6853    1.9504   C.3       1 RES1   0.0000
    93 O5        1.9439    0.6911    0.9208   O.3       1 RES1   0.0000
    94 C37       3.0976    0.7775    0.0706   C.3       1 RES1   0.0000
    95 C38       2.7254    0.3605   -1.3645   C.2       1 RES1   0.0000
    96 O6        1.5725    0.6591   -1.7525   O.2       1 RES1   0.0000
    97 N4        3.6317   -0.1648   -2.1713   N.am      1 RES1   0.0000
    98 C39       3.2578   -0.4652   -3.5559   C.3       1 RES1   0.0000
    99 C40       3.2480   -1.9611   -3.8808   C.3       1 RES1   0.0000
   100 C41       2.1545   -2.7327   -3.1461   C.3       1 RES1   0.0000
   101 C42       2.1857   -4.2060   -3.5566   C.3       1 RES1   0.0000
   102 C43       1.1722   -5.0715   -2.8171   C.3       1 RES1   0.0000
   103 C44       4.9553   -0.6161   -1.7572   C.3       1 RES1   0.0000
   104 C45       5.9744    0.4612   -1.3422   C.3       1 RES1   0.0000
   105 C46       7.0432    0.7357   -2.4045   C.3       1 RES1   0.0000
   106 C47       6.5889    1.6905   -3.5034   C.3       1 RES1   0.0000
   107 C48       7.6513    1.8549   -4.5805   C.3       1 RES1   0.0000
   108 H49      -4.8493    4.4348    0.9705   H         1 RES1   0.0000
   109 H50      -4.8989    4.1743    2.7160   H         1 RES1   0.0000
   110 H51      -5.6969    5.5694    2.0048   H         1 RES1   0.0000
   111 H52      -3.6752    6.4330    2.9373   H         1 RES1   0.0000
   112 H53      -3.4333    6.3729    1.2072   H         1 RES1   0.0000
   113 H54      -2.2607    4.1153    1.5626   H         1 RES1   0.0000
   114 H55      -2.4216    4.3847    3.2813   H         1 RES1   0.0000
   115 H56      -0.7644    6.0326    3.3023   H         1 RES1   0.0000
   116 H57      -1.2373    6.6446    1.7424   H         1 RES1   0.0000
   117 H58       0.9241    5.8554    1.4228   H         1 RES1   0.0000
   118 H59      -0.1563    4.7282    0.6031   H         1 RES1   0.0000
   119 H60       2.2792    5.2019    3.0313   H         1 RES1   0.0000
   120 H61       2.4865    3.5024    3.4575   H         1 RES1   0.0000
   121 H62       0.3685    5.3383    4.6507   H         1 RES1   0.0000
   122 H63       1.9510    4.9986    5.2892   H         1 RES1   0.0000
   123 H64       0.6028    3.6382    6.5381   H         1 RES1   0.0000
   124 H65       1.2039    2.4977    5.3473   H         1 RES1   0.0000
   125 H66      -0.9423    2.6739    4.1093   H         1 RES1   0.0000
   126 H67      -1.4641    3.9600    5.2151   H         1 RES1   0.0000
   127 H68      -0.8751    1.0979    6.0801   H         1 RES1   0.0000
   128 H69      -2.4814    1.8240    5.9135   H         1 RES1   0.0000
   129 H70      -1.3669    2.4151    7.1300   H         1 RES1   0.0000
   130 H71       1.5362    1.2088    2.8627   H         1 RES1   0.0000
   131 H72       2.9283    2.0561    2.1371   H         1 RES1   0.0000
   132 H73       3.8944    0.1705    0.5106   H         1 RES1   0.0000
   133 H74       3.4208    1.8230   -0.0097   H         1 RES1   0.0000
   134 H75       3.9755    0.0409   -4.2069   H         1 RES1   0.0000
   135 H76       2.2601   -0.0594   -3.7305   H         1 RES1   0.0000
   136 H77       4.2214   -2.4098   -3.6687   H         1 RES1   0.0000
   137 H78       3.0924   -2.0624   -4.9563   H         1 RES1   0.0000
   138 H79       1.1851   -2.2928   -3.3856   H         1 RES1   0.0000
   139 H80       2.2983   -2.6351   -2.0678   H         1 RES1   0.0000
   140 H81       3.1838   -4.6087   -3.3715   H         1 RES1   0.0000
   141 H82       1.9989   -4.2835   -4.6292   H         1 RES1   0.0000
   142 H83       1.3181   -5.0010   -1.7376   H         1 RES1   0.0000
   143 H84       1.2963   -6.1123   -3.1044   H         1 RES1   0.0000
   144 H85       0.1522   -4.7781   -3.0648   H         1 RES1   0.0000
   145 H86       5.3738   -1.1635   -2.6004   H         1 RES1   0.0000
   146 H87       4.8202   -1.3406   -0.9503   H         1 RES1   0.0000
   147 H88       6.4821    0.1059   -0.4448   H         1 RES1   0.0000
   148 H89       5.4671    1.3937   -1.0960   H         1 RES1   0.0000
   149 H90       7.3658   -0.2028   -2.8541   H         1 RES1   0.0000
   150 H91       7.9120    1.1686   -1.9111   H         1 RES1   0.0000
   151 H92       6.3717    2.6665   -3.0658   H         1 RES1   0.0000
   152 H93       5.6697    1.3191   -3.9628   H         1 RES1   0.0000
   153 H94       8.5726    2.2340   -4.1528   H         1 RES1   0.0000
   154 H95       7.3148    2.5519   -5.3398   H         1 RES1   0.0000
   155 H96       7.8681    0.9060   -5.0617   H         1 RES1   0.0000
   156 C49      -6.5780    0.0188   -1.1906   C.3       1 RES1   0.0000
   157 C50      -5.5676   -0.7751   -2.0145   C.3       1 RES1   0.0000
   158 C51      -6.0092   -2.2271   -2.1797   C.3       1 RES1   0.0000
   159 C52      -5.0965   -3.0855   -3.0583   C.3       1 RES1   0.0000
   160 C53      -3.6746   -3.3390   -2.5274   C.3       1 RES1   0.0000
   161 N5       -2.6704   -2.2877   -2.7164   N.am      1 RES1   0.0000
   162 C54      -2.7710   -1.4700   -3.9230   C.3       1 RES1   0.0000
   163 C55      -2.5756   -2.3021   -5.1941   C.3       1 RES1   0.0000
   164 C56      -1.1736   -2.9123   -5.3049   C.3       1 RES1   0.0000
   165 C57      -0.2393   -2.1386   -6.2346   C.3       1 RES1   0.0000
   166 C58      -0.0045   -0.6912   -5.8070   C.3       1 RES1   0.0000
   167 C59      -1.5777   -2.1547   -1.9782   C.2       1 RES1   0.0000
   168 O7       -0.6923   -1.3041   -2.2316   O.2       1 RES1   0.0000
   169 C60      -1.2377   -3.0874   -0.8118   C.3       1 RES1   0.0000
   170 O8       -0.7363   -2.2898    0.2716   O.3       1 RES1   0.0000
   171 C61       0.1092   -2.9958    1.1759   C.3       1 RES1   0.0000
   172 C62       1.5733   -2.7039    0.8042   C.2       1 RES1   0.0000
   173 O9        1.7497   -1.8319   -0.0663   O.2       1 RES1   0.0000
   174 N6        2.5372   -3.4082    1.3905   N.am      1 RES1   0.0000
   175 C63       2.3757   -4.1624    2.6322   C.3       1 RES1   0.0000
   176 C64       2.6689   -5.6598    2.5174   C.3       1 RES1   0.0000
   177 C65       1.5027   -6.4730    1.9423   C.3       1 RES1   0.0000
   178 C66       0.5481   -7.0333    3.0019   C.3       1 RES1   0.0000
   179 C67      -0.1085   -5.9987    3.9101   C.3       1 RES1   0.0000
   180 C68       3.9107   -3.3708    0.8850   C.3       1 RES1   0.0000
   181 C69       4.0997   -4.3328   -0.3053   C.3       1 RES1   0.0000
   182 C70       5.4279   -5.0977   -0.2886   C.3       1 RES1   0.0000
   183 C71       6.6295   -4.2692   -0.7517   C.3       1 RES1   0.0000
   184 C72       6.6982   -4.1524   -2.2730   C.3       1 RES1   0.0000
   185 H97      -6.2924    1.0666   -1.1280   H         1 RES1   0.0000
   186 H98      -7.5570   -0.0349   -1.6583   H         1 RES1   0.0000
   187 H99      -6.6725   -0.3720   -0.1801   H         1 RES1   0.0000
   188 H100     -5.4965   -0.3125   -3.0024   H         1 RES1   0.0000
   189 H101     -4.5766   -0.7317   -1.5486   H         1 RES1   0.0000
   190 H102     -6.1151   -2.6961   -1.2012   H         1 RES1   0.0000
   191 H103     -7.0007   -2.2265   -2.6353   H         1 RES1   0.0000
   192 H104     -5.5587   -4.0728   -3.1186   H         1 RES1   0.0000
   193 H105     -5.0897   -2.6888   -4.0695   H         1 RES1   0.0000
   194 H106     -3.7670   -3.5491   -1.4638   H         1 RES1   0.0000
   195 H107     -3.2888   -4.2347   -3.0214   H         1 RES1   0.0000
   196 H108     -3.7529   -1.0006   -3.9287   H         1 RES1   0.0000
   197 H109     -2.0099   -0.6904   -3.8565   H         1 RES1   0.0000
   198 H110     -3.3207   -3.0963   -5.2270   H         1 RES1   0.0000
   199 H111     -2.7580   -1.6521   -6.0512   H         1 RES1   0.0000
   200 H112     -0.7230   -2.9667   -4.3127   H         1 RES1   0.0000
   201 H113     -1.2510   -3.9322   -5.6836   H         1 RES1   0.0000
   202 H114      0.7168   -2.6650   -6.2719   H         1 RES1   0.0000
   203 H115     -0.6533   -2.1464   -7.2438   H         1 RES1   0.0000
   204 H116      0.2469   -0.6299   -4.7467   H         1 RES1   0.0000
   205 H117      0.8141   -0.2687   -6.3867   H         1 RES1   0.0000
   206 H118     -0.8890   -0.0838   -5.9883   H         1 RES1   0.0000
   207 H119     -2.0750   -3.6893   -0.4581   H         1 RES1   0.0000
   208 H120     -0.4465   -3.7466   -1.1906   H         1 RES1   0.0000
   209 H121     -0.1253   -2.6222    2.1792   H         1 RES1   0.0000
   210 H122     -0.0939   -4.0704    1.1268   H         1 RES1   0.0000
   211 H123      3.0778   -3.7205    3.3465   H         1 RES1   0.0000
   212 H124      1.3743   -4.0136    3.0214   H         1 RES1   0.0000
   213 H125      3.5595   -5.8103    1.9131   H         1 RES1   0.0000
   214 H126      2.9052   -6.0321    3.5125   H         1 RES1   0.0000
   215 H127      0.9436   -5.8668    1.2235   H         1 RES1   0.0000
   216 H128      1.9003   -7.3255    1.3887   H         1 RES1   0.0000
   217 H129     -0.2336   -7.5974    2.4894   H         1 RES1   0.0000
   218 H130      1.0998   -7.7349    3.6257   H         1 RES1   0.0000
   219 H131     -0.6430   -5.2418    3.3349   H         1 RES1   0.0000
   220 H132     -0.8255   -6.4898    4.5626   H         1 RES1   0.0000
   221 H133      0.6237   -5.5128    4.5506   H         1 RES1   0.0000
   222 H134      4.1432   -2.3463    0.5929   H         1 RES1   0.0000
   223 H135      4.5719   -3.6409    1.7108   H         1 RES1   0.0000
   224 H136      3.2827   -5.0569   -0.2915   H         1 RES1   0.0000
   225 H137      4.0293   -3.7728   -1.2372   H         1 RES1   0.0000
   226 H138      5.6123   -5.4778    0.7165   H         1 RES1   0.0000
   227 H139      5.3371   -5.9597   -0.9514   H         1 RES1   0.0000
   228 H140      6.5908   -3.2744   -0.3016   H         1 RES1   0.0000
   229 H141      7.5491   -4.7445   -0.4083   H         1 RES1   0.0000
   230 H142      5.7205   -3.9295   -2.6966   H         1 RES1   0.0000
   231 H143      7.3893   -3.3697   -2.5754   H         1 RES1   0.0000
   232 H144      7.0391   -5.0864   -2.7141   H         1 RES1   0.0000
@<TRIPOS>BOND
     1     1    14    1
     2     1    16    1
     3     1    19    1
     4     1    91    1
     5     1    93    1
     6     1    96    1
     7     1   168    1
     8     1   170    1
     9     1   173    1
    10     2     3    1
    11     2    31    1
    12     2    32    1
    13     2    33    1
    14     3     4    1
    15     3    34    1
    16     3    35    1
    17     4     5    1
    18     4    36    1
    19     4    37    1
    20     5     6    1
    21     5    38    1
    22     5    39    1
    23     6     7    1
    24     6    40    1
    25     6    41    1
    26     7     8    1
    27     7    13    1
    28     8     9    1
    29     8    42    1
    30     8    43    1
    31     9    10    1
    32     9    44    1
    33     9    45    1
    34    10    11    1
    35    10    46    1
    36    10    47    1
    37    11    12    1
    38    11    48    1
    39    11    49    1
    40    12    50    1
    41    12    51    1
    42    12    52    1
    43    13    14    2
    44    13    15    1
    45    15    16    1
    46    15    53    1
    47    15    54    1
    48    16    17    1
    49    17    18    1
    50    17    55    1
    51    17    56    1
    52    18    19    2
    53    18    20    1
    54    20    21    1
    55    20    26    1
    56    21    22    1
    57    21    57    1
    58    21    58    1
    59    22    23    1
    60    22    59    1
    61    22    60    1
    62    23    24    1
    63    23    61    1
    64    23    62    1
    65    24    25    1
    66    24    63    1
    67    24    64    1
    68    25    65    1
    69    25    66    1
    70    25    67    1
    71    26    27    1
    72    26    68    1
    73    26    69    1
    74    27    28    1
    75    27    70    1
    76    27    71    1
    77    28    29    1
    78    28    72    1
    79    28    73    1
    80    29    30    1
    81    29    74    1
    82    29    75    1
    83    30    76    1
    84    30    77    1
    85    30    78    1
    86    79    80    1
    87    79   108    1
    88    79   109    1
    89    79   110    1
    90    80    81    1
    91    80   111    1
    92    80   112    1
    93    81    82    1
    94    81   113    1
    95    81   114    1
    96    82    83    1
    97    82   115    1
    98    82   116    1
    99    83    84    1
   100    83   117    1
   101    83   118    1
   102    84    85    1
   103    84    90    1
   104    85    86    1
   105    85   119    1
   106    85   120    1
   107    86    87    1
   108    86   121    1
   109    86   122    1
   110    87    88    1
   111    87   123    1
   112    87   124    1
   113    88    89    1
   114    88   125    1
   115    88   126    1
   116    89   127    1
   117    89   128    1
   118    89   129    1
   119    90    91    2
   120    90    92    1
   121    92    93    1
   122    92   130    1
   123    92   131    1
   124    93    94    1
   125    94    95    1
   126    94   132    1
   127    94   133    1
   128    95    96    2
   129    95    97    1
   130    97    98    1
   131    97   103    1
   132    98    99    1
   133    98   134    1
   134    98   135    1
   135    99   100    1
   136    99   136    1
   137    99   137    1
   138   100   101    1
   139   100   138    1
   140   100   139    1
   141   101   102    1
   142   101   140    1
   143   101   141    1
   144   102   142    1
   145   102   143    1
   146   102   144    1
   147   103   104    1
   148   103   145    1
   149   103   146    1
   150   104   105    1
   151   104   147    1
   152   104   148    1
   153   105   106    1
   154   105   149    1
   155   105   150    1
   156   106   107    1
   157   106   151    1
   158   106   152    1
   159   107   153    1
   160   107   154    1
   161   107   155    1
   162   156   157    1
   163   156   185    1
   164   156   186    1
   165   156   187    1
   166   157   158    1
   167   157   188    1
   168   157   189    1
   169   158   159    1
   170   158   190    1
   171   158   191    1
   172   159   160    1
   173   159   192    1
   174   159   193    1
   175   160   161    1
   176   160   194    1
   177   160   195    1
   178   161   162    1
   179   161   167    1
   180   162   163    1
   181   162   196    1
   182   162   197    1
   183   163   164    1
   184   163   198    1
   185   163   199    1
   186   164   165    1
   187   164   200    1
   188   164   201    1
   189   165   166    1
   190   165   202    1
   191   165   203    1
   192   166   204    1
   193   166   205    1
   194   166   206    1
   195   167   168    2
   196   167   169    1
   197   169   170    1
   198   169   207    1
   199   169   208    1
   200   170   171    1
   201   171   172    1
   202   171   209    1
   203   171   210    1
   204   172   173    2
   205   172   174    1
   206   174   175    1
   207   174   180    1
   208   175   176    1
   209   175   211    1
   210   175   212    1
   211   176   177    1
   212   176   213    1
   213   176   214    1
   214   177   178    1
   215   177   215    1
   216   177   216    1
   217   178   179    1
   218   178   217    1
   219   178   218    1
   220   179   219    1
   221   179   220    1
   222   179   221    1
   223   180   181    1
   224   180   222    1
   225   180   223    1
   226   181   182    1
   227   181   224    1
   228   181   225    1
   229   182   183    1
   230   182   226    1
   231   182   227    1
   232   183   184    1
   233   183   228    1
   234   183   229    1
   235   184   230    1
   236   184   231    1
   237   184   232    1
@<TRIPOS>SUBSTRUCTURE
     1 RES1      232 GROUP             0 ****  ****    0  
