@<TRIPOS>MOLECULE
am_c3_9H2O_c0_0_nunpairedes_0_charge_3 Charge: 3 Unpaired_Electrons: 6 XTB_Unpaired_Electrons: 0 XTB_Charge: 3
   130   141     1     0     0
SMALL
NoCharges
****
Generated from Architector

@<TRIPOS>ATOM
     1 Eu1      -0.1369   -0.0635    0.0479   Eu        1 RES1   0.0000
     2 C1       -1.2605    3.6460    3.0798   C.3       1 RES1   0.0000
     3 N1       -1.1798    3.9033    1.6471   N.am      1 RES1   0.0000
     4 C2       -1.0126    2.8597    0.8402   C.2       1 RES1   0.0000
     5 O1       -0.7899    1.7170    1.2764   O.2       1 RES1   0.0000
     6 C3       -1.0730    3.0741   -0.6836   C.3       1 RES1   0.0000
     7 O2       -1.1826    1.8424   -1.3994   O.3       1 RES1   0.0000
     8 C4       -2.4889    1.5016   -1.8723   C.3       1 RES1   0.0000
     9 C5       -3.1416    0.4047   -0.9910   C.2       1 RES1   0.0000
    10 O3       -2.4933    0.0416    0.0029   O.2       1 RES1   0.0000
    11 N2       -4.3216   -0.0761   -1.3823   N.am      1 RES1   0.0000
    12 C6       -5.0624    0.5504   -2.4717   C.3       1 RES1   0.0000
    13 C7       -4.9915   -1.1947   -0.7684   C.ar      1 RES1   0.0000
    14 C8       -4.3560   -2.0515    0.1290   C.ar      1 RES1   0.0000
    15 C9       -5.0548   -3.0991    0.7100   C.ar      1 RES1   0.0000
    16 C10      -6.3806   -3.3370    0.3926   C.ar      1 RES1   0.0000
    17 C11      -7.0027   -2.5135   -0.5261   C.ar      1 RES1   0.0000
    18 C12      -6.3233   -1.4534   -1.0959   C.ar      1 RES1   0.0000
    19 C13      -1.2228    5.2588    1.1941   C.ar      1 RES1   0.0000
    20 C14      -2.2092    6.1161    1.6689   C.ar      1 RES1   0.0000
    21 C15      -2.2519    7.4354    1.2441   C.ar      1 RES1   0.0000
    22 C16      -1.3328    7.8926    0.3105   C.ar      1 RES1   0.0000
    23 C17      -0.3393    7.0465   -0.1605   C.ar      1 RES1   0.0000
    24 C18      -0.2643    5.7446    0.3066   C.ar      1 RES1   0.0000
    25 H1       -0.3801    3.1030    3.4175   H         1 RES1   0.0000
    26 H2       -2.1273    3.0300    3.3085   H         1 RES1   0.0000
    27 H3       -1.3340    4.5879    3.6103   H         1 RES1   0.0000
    28 H4       -0.1292    3.5107   -1.0254   H         1 RES1   0.0000
    29 H5       -1.8851    3.7636   -0.9415   H         1 RES1   0.0000
    30 H6       -2.3686    1.0895   -2.8824   H         1 RES1   0.0000
    31 H7       -3.1036    2.4048   -1.9125   H         1 RES1   0.0000
    32 H8       -4.4885    1.2849   -3.0226   H         1 RES1   0.0000
    33 H9       -5.9404    1.0530   -2.0655   H         1 RES1   0.0000
    34 H10      -5.3873   -0.2204   -3.1673   H         1 RES1   0.0000
    35 H11      -3.3185   -1.9144    0.3866   H         1 RES1   0.0000
    36 H12      -4.5585   -3.7357    1.4272   H         1 RES1   0.0000
    37 H13      -6.9269   -4.1492    0.8449   H         1 RES1   0.0000
    38 H14      -8.0289   -2.6834   -0.8058   H         1 RES1   0.0000
    39 H15      -6.8737   -0.8499   -1.7930   H         1 RES1   0.0000
    40 H16      -2.9458    5.7562    2.3684   H         1 RES1   0.0000
    41 H17      -2.9990    8.1062    1.6493   H         1 RES1   0.0000
    42 H18      -1.3773    8.9106   -0.0453   H         1 RES1   0.0000
    43 H19       0.3911    7.4058   -0.8751   H         1 RES1   0.0000
    44 H20       0.5627    5.1245   -0.0069   H         1 RES1   0.0000
    45 C19       1.7062    0.3113   -4.7584   C.3       1 RES1   0.0000
    46 N3        1.9905    1.3689   -3.7987   N.am      1 RES1   0.0000
    47 C20       1.7532    1.1587   -2.5142   C.2       1 RES1   0.0000
    48 O4        1.1481    0.1527   -2.0922   O.2       1 RES1   0.0000
    49 C21       2.3574    2.1157   -1.4898   C.3       1 RES1   0.0000
    50 O5        1.7726    1.7531   -0.2539   O.3       1 RES1   0.0000
    51 C22       2.4115    2.2950    0.8888   C.3       1 RES1   0.0000
    52 C23       2.2632    1.2514    2.0213   C.2       1 RES1   0.0000
    53 O6        1.6391    0.2165    1.7335   O.2       1 RES1   0.0000
    54 N4        2.8484    1.5265    3.1877   N.am      1 RES1   0.0000
    55 C24       3.4685    2.8251    3.4130   C.3       1 RES1   0.0000
    56 C25       3.0007    0.6027    4.2805   C.ar      1 RES1   0.0000
    57 C26       2.4734   -0.6857    4.2398   C.ar      1 RES1   0.0000
    58 C27       2.7224   -1.5774    5.2682   C.ar      1 RES1   0.0000
    59 C28       3.4763   -1.2038    6.3646   C.ar      1 RES1   0.0000
    60 C29       3.9697    0.0846    6.4285   C.ar      1 RES1   0.0000
    61 C30       3.7420    0.9806    5.4018   C.ar      1 RES1   0.0000
    62 C31       2.3584    2.6457   -4.3262   C.ar      1 RES1   0.0000
    63 C32       3.4338    2.7656   -5.1947   C.ar      1 RES1   0.0000
    64 C33       3.7345    3.9984   -5.7532   C.ar      1 RES1   0.0000
    65 C34       2.9727    5.1093   -5.4255   C.ar      1 RES1   0.0000
    66 C35       1.8854    4.9876   -4.5718   C.ar      1 RES1   0.0000
    67 C36       1.5663    3.7527   -4.0355   C.ar      1 RES1   0.0000
    68 H21       0.6697   -0.0181   -4.6733   H         1 RES1   0.0000
    69 H22       2.3527   -0.5466   -4.5664   H         1 RES1   0.0000
    70 H23       1.8958    0.6958   -5.7580   H         1 RES1   0.0000
    71 H24       2.1896    3.1702   -1.7185   H         1 RES1   0.0000
    72 H25       3.4442    1.9611   -1.4752   H         1 RES1   0.0000
    73 H26       1.9277    3.2404    1.1602   H         1 RES1   0.0000
    74 H27       3.4754    2.4784    0.7047   H         1 RES1   0.0000
    75 H28       3.2677    3.5414    2.6276   H         1 RES1   0.0000
    76 H29       4.5488    2.7102    3.4949   H         1 RES1   0.0000
    77 H30       3.0759    3.2361    4.3411   H         1 RES1   0.0000
    78 H31       1.8724   -1.0009    3.4066   H         1 RES1   0.0000
    79 H32       2.3282   -2.5789    5.2067   H         1 RES1   0.0000
    80 H33       3.6811   -1.8973    7.1611   H         1 RES1   0.0000
    81 H34       4.5497    0.4091    7.2751   H         1 RES1   0.0000
    82 H35       4.1714    1.9595    5.5118   H         1 RES1   0.0000
    83 H36       4.0311    1.9028   -5.4409   H         1 RES1   0.0000
    84 H37       4.5546    4.0799   -6.4536   H         1 RES1   0.0000
    85 H38       3.2080    6.0694   -5.8563   H         1 RES1   0.0000
    86 H39       1.2691    5.8487   -4.3511   H         1 RES1   0.0000
    87 H40       0.6853    3.6389   -3.4184   H         1 RES1   0.0000
    88 C37      -1.5225   -2.8981   -3.5917   C.3       1 RES1   0.0000
    89 N5       -0.1895   -3.1483   -3.0492   N.am      1 RES1   0.0000
    90 C38       0.0781   -2.5183   -1.9109   C.2       1 RES1   0.0000
    91 O7       -0.7665   -1.7575   -1.3912   O.2       1 RES1   0.0000
    92 C39       1.4192   -2.6800   -1.1938   C.3       1 RES1   0.0000
    93 O8        1.3485   -2.1231    0.1135   O.3       1 RES1   0.0000
    94 C40       1.0396   -3.0221    1.1813   C.3       1 RES1   0.0000
    95 C41      -0.1633   -2.4792    1.9905   C.2       1 RES1   0.0000
    96 O9       -0.7219   -1.4676    1.5348   O.2       1 RES1   0.0000
    97 N6       -0.5390   -3.1028    3.1016   N.am      1 RES1   0.0000
    98 C42       0.1487   -4.3092    3.5395   C.3       1 RES1   0.0000
    99 C43      -1.6459   -2.6742    3.9211   C.ar      1 RES1   0.0000
   100 C44      -2.4106   -1.5358    3.6599   C.ar      1 RES1   0.0000
   101 C45      -3.4826   -1.2112    4.4769   C.ar      1 RES1   0.0000
   102 C46      -3.8123   -1.9897    5.5707   C.ar      1 RES1   0.0000
   103 C47      -3.0471   -3.1068    5.8434   C.ar      1 RES1   0.0000
   104 C48      -1.9827   -3.4465    5.0322   C.ar      1 RES1   0.0000
   105 C49       0.6840   -3.9869   -3.8112   C.ar      1 RES1   0.0000
   106 C50       0.1520   -5.1294   -4.4067   C.ar      1 RES1   0.0000
   107 C51       0.9290   -5.9293   -5.2278   C.ar      1 RES1   0.0000
   108 C52       2.2628   -5.6141   -5.4380   C.ar      1 RES1   0.0000
   109 C53       2.8071   -4.4913   -4.8344   C.ar      1 RES1   0.0000
   110 C54       2.0205   -3.6705   -4.0397   C.ar      1 RES1   0.0000
   111 H41      -1.6660   -1.8221   -3.7097   H         1 RES1   0.0000
   112 H42      -2.2892   -3.2541   -2.9016   H         1 RES1   0.0000
   113 H43      -1.6285   -3.3942   -4.5511   H         1 RES1   0.0000
   114 H44       2.1561   -2.0556   -1.7034   H         1 RES1   0.0000
   115 H45       1.7770   -3.7113   -1.1790   H         1 RES1   0.0000
   116 H46       1.9226   -3.0818    1.8308   H         1 RES1   0.0000
   117 H47       0.7987   -4.0120    0.7871   H         1 RES1   0.0000
   118 H48       0.9992   -4.5551    2.9141   H         1 RES1   0.0000
   119 H49      -0.5482   -5.1465    3.5119   H         1 RES1   0.0000
   120 H50       0.4980   -4.1592    4.5596   H         1 RES1   0.0000
   121 H51      -2.2004   -0.8850    2.8283   H         1 RES1   0.0000
   122 H52      -4.0738   -0.3374    4.2489   H         1 RES1   0.0000
   123 H53      -4.6475   -1.7410    6.2043   H         1 RES1   0.0000
   124 H54      -3.2713   -3.7352    6.6877   H         1 RES1   0.0000
   125 H55      -1.4356   -4.3303    5.2974   H         1 RES1   0.0000
   126 H56      -0.8747   -5.4063   -4.2331   H         1 RES1   0.0000
   127 H57       0.4833   -6.7880   -5.7139   H         1 RES1   0.0000
   128 H58       2.8739   -6.2319   -6.0779   H         1 RES1   0.0000
   129 H59       3.8460   -4.2411   -5.0015   H         1 RES1   0.0000
   130 H60       2.4595   -2.7766   -3.6287   H         1 RES1   0.0000
@<TRIPOS>BOND
     1     1     5    1
     2     1     7    1
     3     1    10    1
     4     1    48    1
     5     1    50    1
     6     1    53    1
     7     1    91    1
     8     1    93    1
     9     1    96    1
    10     2     3    1
    11     2    25    1
    12     2    26    1
    13     2    27    1
    14     3     4    1
    15     3    19    1
    16     4     5    2
    17     4     6    1
    18     6     7    1
    19     6    28    1
    20     6    29    1
    21     7     8    1
    22     8     9    1
    23     8    30    1
    24     8    31    1
    25     9    10    2
    26     9    11    1
    27    11    12    1
    28    11    13    1
    29    12    32    1
    30    12    33    1
    31    12    34    1
    32    13    14    1
    33    13    18    2
    34    14    15    2
    35    14    35    1
    36    15    16    1
    37    15    36    1
    38    16    17    2
    39    16    37    1
    40    17    18    1
    41    17    38    1
    42    18    39    1
    43    19    20    1
    44    19    24    2
    45    20    21    2
    46    20    40    1
    47    21    22    1
    48    21    41    1
    49    22    23    2
    50    22    42    1
    51    23    24    1
    52    23    43    1
    53    24    44    1
    54    45    46    1
    55    45    68    1
    56    45    69    1
    57    45    70    1
    58    46    47    1
    59    46    62    1
    60    47    48    2
    61    47    49    1
    62    49    50    1
    63    49    71    1
    64    49    72    1
    65    50    51    1
    66    51    52    1
    67    51    73    1
    68    51    74    1
    69    52    53    2
    70    52    54    1
    71    54    55    1
    72    54    56    1
    73    55    75    1
    74    55    76    1
    75    55    77    1
    76    56    57    1
    77    56    61    2
    78    57    58    2
    79    57    78    1
    80    58    59    1
    81    58    79    1
    82    59    60    2
    83    59    80    1
    84    60    61    1
    85    60    81    1
    86    61    82    1
    87    62    63    1
    88    62    67    2
    89    63    64    2
    90    63    83    1
    91    64    65    1
    92    64    84    1
    93    65    66    2
    94    65    85    1
    95    66    67    1
    96    66    86    1
    97    67    87    1
    98    88    89    1
    99    88   111    1
   100    88   112    1
   101    88   113    1
   102    89    90    1
   103    89   105    1
   104    90    91    2
   105    90    92    1
   106    92    93    1
   107    92   114    1
   108    92   115    1
   109    93    94    1
   110    94    95    1
   111    94   116    1
   112    94   117    1
   113    95    96    2
   114    95    97    1
   115    97    98    1
   116    97    99    1
   117    98   118    1
   118    98   119    1
   119    98   120    1
   120    99   100    1
   121    99   104    2
   122   100   101    2
   123   100   121    1
   124   101   102    1
   125   101   122    1
   126   102   103    2
   127   102   123    1
   128   103   104    1
   129   103   124    1
   130   104   125    1
   131   105   106    1
   132   105   110    2
   133   106   107    2
   134   106   126    1
   135   107   108    1
   136   107   127    1
   137   108   109    2
   138   108   128    1
   139   109   110    1
   140   109   129    1
   141   110   130    1
@<TRIPOS>SUBSTRUCTURE
     1 RES1      130 GROUP             0 ****  ****    0  
