@<TRIPOS>MOLECULE
am_c3_9H2O_c0_0_nunpairedes_0_charge_3 Charge: 3 Unpaired_Electrons: 6 XTB_Unpaired_Electrons: 0 XTB_Charge: 3
   373   381     1     0     0
SMALL
NoCharges
****
Generated from Architector

@<TRIPOS>ATOM
     1 Eu1      -0.2247    0.0035   -0.0558   Eu        1 RES1   0.0000
     2 C1       -7.9805    1.5617   -5.8261   C.3       1 RES1   0.0000
     3 C2       -7.3086    0.2665   -5.3895   C.3       1 RES1   0.0000
     4 C3       -8.1650   -0.5339   -4.4105   C.3       1 RES1   0.0000
     5 C4       -7.4094   -1.6642   -3.7099   C.3       1 RES1   0.0000
     6 C5       -6.8619   -2.7080   -4.6892   C.3       1 RES1   0.0000
     7 C6       -5.4293   -2.4339   -5.1603   C.3       1 RES1   0.0000
     8 C7       -4.3577   -3.1710   -4.3598   C.3       1 RES1   0.0000
     9 C8       -4.3048   -2.7642   -2.8833   C.3       1 RES1   0.0000
    10 N1       -2.9941   -3.0157   -2.2700   N.am      1 RES1   0.0000
    11 C9       -2.0897   -4.0104   -2.8288   C.3       1 RES1   0.0000
    12 C10      -2.6116   -5.4354   -3.0626   C.3       1 RES1   0.0000
    13 C11      -3.3065   -6.1511   -1.9017   C.3       1 RES1   0.0000
    14 C12      -4.7109   -5.6412   -1.5758   C.3       1 RES1   0.0000
    15 C13      -5.5645   -6.6498   -0.8076   C.3       1 RES1   0.0000
    16 C14      -6.8536   -6.0116   -0.2863   C.3       1 RES1   0.0000
    17 C15      -7.7833   -7.0130    0.3985   C.3       1 RES1   0.0000
    18 C16      -7.2090   -7.5579    1.6999   C.3       1 RES1   0.0000
    19 C17      -2.4707   -2.1911   -1.3567   C.2       1 RES1   0.0000
    20 O1       -1.2476   -1.9308   -1.2775   O.2       1 RES1   0.0000
    21 C18      -3.3690   -1.7456   -0.2123   C.3       1 RES1   0.0000
    22 N2       -3.1245   -0.3542    0.2245   N.pl3     1 RES1   0.0000
    23 C19      -3.2497   -0.2130    1.6842   C.3       1 RES1   0.0000
    24 C20      -2.4607    0.9786    2.2031   C.2       1 RES1   0.0000
    25 O2       -1.3371    1.1877    1.6908   O.2       1 RES1   0.0000
    26 N3       -2.9202    1.6943    3.2263   N.am      1 RES1   0.0000
    27 C21      -4.2302    1.5277    3.8487   C.3       1 RES1   0.0000
    28 C22      -4.4348    0.2195    4.6178   C.3       1 RES1   0.0000
    29 C23      -3.9817    0.2221    6.0836   C.3       1 RES1   0.0000
    30 C24      -4.9212   -0.6528    6.9221   C.3       1 RES1   0.0000
    31 C25      -5.0671   -2.1032    6.4308   C.3       1 RES1   0.0000
    32 C26      -4.2540   -3.1106    7.2408   C.3       1 RES1   0.0000
    33 C27      -2.7535   -2.8398    7.1961   C.3       1 RES1   0.0000
    34 C28      -1.9638   -3.9955    7.7945   C.3       1 RES1   0.0000
    35 C29      -2.2498    2.9422    3.5609   C.3       1 RES1   0.0000
    36 C30      -2.9758    4.1351    2.9317   C.3       1 RES1   0.0000
    37 C31      -3.3149    3.8927    1.4649   C.3       1 RES1   0.0000
    38 C32      -4.1695    5.0043    0.8652   C.3       1 RES1   0.0000
    39 C33      -5.5454    5.2091    1.5019   C.3       1 RES1   0.0000
    40 C34      -6.4770    4.0154    1.3144   C.3       1 RES1   0.0000
    41 C35      -7.8480    4.2131    1.9613   C.3       1 RES1   0.0000
    42 C36      -8.6803    5.2847    1.2698   C.3       1 RES1   0.0000
    43 C37      -4.0842    0.4241   -0.5386   C.ar      1 RES1   0.0000
    44 C38      -5.3146    0.8523   -0.0509   C.ar      1 RES1   0.0000
    45 C39      -6.2623    1.3848   -0.9117   C.ar      1 RES1   0.0000
    46 C40      -5.9899    1.5047   -2.2607   C.ar      1 RES1   0.0000
    47 C41      -4.7637    1.0866   -2.7518   C.ar      1 RES1   0.0000
    48 C42      -3.8158    0.5502   -1.8990   C.ar      1 RES1   0.0000
    49 H1       -7.3374    2.1106   -6.5105   H         1 RES1   0.0000
    50 H2       -8.1962    2.2024   -4.9732   H         1 RES1   0.0000
    51 H3       -8.9181    1.3531   -6.3314   H         1 RES1   0.0000
    52 H4       -6.3520    0.5056   -4.9222   H         1 RES1   0.0000
    53 H5       -7.1013   -0.3350   -6.2742   H         1 RES1   0.0000
    54 H6       -9.0187   -0.9483   -4.9456   H         1 RES1   0.0000
    55 H7       -8.5622    0.1369   -3.6468   H         1 RES1   0.0000
    56 H8       -8.0982   -2.1441   -3.0131   H         1 RES1   0.0000
    57 H9       -6.5953   -1.2355   -3.1208   H         1 RES1   0.0000
    58 H10      -7.5237   -2.7313   -5.5536   H         1 RES1   0.0000
    59 H11      -6.9077   -3.7042   -4.2465   H         1 RES1   0.0000
    60 H12      -5.2278   -1.3647   -5.1423   H         1 RES1   0.0000
    61 H13      -5.3273   -2.7673   -6.1936   H         1 RES1   0.0000
    62 H14      -3.3995   -2.9802   -4.8383   H         1 RES1   0.0000
    63 H15      -4.5684   -4.2352   -4.4372   H         1 RES1   0.0000
    64 H16      -5.0979   -3.2906   -2.3545   H         1 RES1   0.0000
    65 H17      -4.4966   -1.6943   -2.8017   H         1 RES1   0.0000
    66 H18      -1.2889   -4.0815   -2.0960   H         1 RES1   0.0000
    67 H19      -1.6548   -3.6452   -3.7634   H         1 RES1   0.0000
    68 H20      -1.7123   -6.0100   -3.2982   H         1 RES1   0.0000
    69 H21      -3.2517   -5.4829   -3.9388   H         1 RES1   0.0000
    70 H22      -2.6820   -6.1003   -1.0085   H         1 RES1   0.0000
    71 H23      -3.3879   -7.2021   -2.1855   H         1 RES1   0.0000
    72 H24      -5.2314   -5.4072   -2.5061   H         1 RES1   0.0000
    73 H25      -4.6287   -4.7337   -0.9721   H         1 RES1   0.0000
    74 H26      -4.9864   -7.0416    0.0286   H         1 RES1   0.0000
    75 H27      -5.8167   -7.4864   -1.4607   H         1 RES1   0.0000
    76 H28      -7.3849   -5.5503   -1.1222   H         1 RES1   0.0000
    77 H29      -6.6041   -5.2169    0.4239   H         1 RES1   0.0000
    78 H30      -7.9860   -7.8380   -0.2847   H         1 RES1   0.0000
    79 H31      -8.7338   -6.5208    0.6108   H         1 RES1   0.0000
    80 H32      -6.3126   -8.1443    1.5170   H         1 RES1   0.0000
    81 H33      -7.9323   -8.2034    2.1884   H         1 RES1   0.0000
    82 H34      -6.9635   -6.7427    2.3785   H         1 RES1   0.0000
    83 H35      -3.0648   -2.4497    0.5717   H         1 RES1   0.0000
    84 H36      -4.4281   -1.9313   -0.4273   H         1 RES1   0.0000
    85 H37      -2.7267   -1.0635    2.1266   H         1 RES1   0.0000
    86 H38      -4.2883   -0.2258    2.0191   H         1 RES1   0.0000
    87 H39      -4.3665    2.3557    4.5448   H         1 RES1   0.0000
    88 H40      -5.0104    1.6340    3.0887   H         1 RES1   0.0000
    89 H41      -3.9288   -0.5935    4.1045   H         1 RES1   0.0000
    90 H42      -5.5043    0.0060    4.6101   H         1 RES1   0.0000
    91 H43      -4.0186    1.2303    6.4974   H         1 RES1   0.0000
    92 H44      -2.9517   -0.1250    6.1595   H         1 RES1   0.0000
    93 H45      -5.9017   -0.1752    6.8993   H         1 RES1   0.0000
    94 H46      -4.5924   -0.6663    7.9620   H         1 RES1   0.0000
    95 H47      -4.7761   -2.1797    5.3810   H         1 RES1   0.0000
    96 H48      -6.1149   -2.4005    6.4936   H         1 RES1   0.0000
    97 H49      -4.4474   -4.1135    6.8511   H         1 RES1   0.0000
    98 H50      -4.5914   -3.0992    8.2771   H         1 RES1   0.0000
    99 H51      -2.5280   -1.9299    7.7531   H         1 RES1   0.0000
   100 H52      -2.4482   -2.6786    6.1582   H         1 RES1   0.0000
   101 H53      -2.2792   -4.1689    8.8191   H         1 RES1   0.0000
   102 H54      -0.8978   -3.7811    7.7943   H         1 RES1   0.0000
   103 H55      -2.1354   -4.9121    7.2339   H         1 RES1   0.0000
   104 H56      -1.2268    2.8854    3.1900   H         1 RES1   0.0000
   105 H57      -2.2382    3.0478    4.6452   H         1 RES1   0.0000
   106 H58      -2.3365    5.0136    3.0221   H         1 RES1   0.0000
   107 H59      -3.8908    4.3399    3.4862   H         1 RES1   0.0000
   108 H60      -3.8473    2.9473    1.3471   H         1 RES1   0.0000
   109 H61      -2.3924    3.8031    0.8809   H         1 RES1   0.0000
   110 H62      -4.3208    4.7532   -0.1832   H         1 RES1   0.0000
   111 H63      -3.6168    5.9414    0.9129   H         1 RES1   0.0000
   112 H64      -5.9997    6.0775    1.0245   H         1 RES1   0.0000
   113 H65      -5.4522    5.4422    2.5632   H         1 RES1   0.0000
   114 H66      -6.0155    3.1250    1.7477   H         1 RES1   0.0000
   115 H67      -6.6060    3.8360    0.2442   H         1 RES1   0.0000
   116 H68      -7.7178    4.4746    3.0131   H         1 RES1   0.0000
   117 H69      -8.3927    3.2667    1.9258   H         1 RES1   0.0000
   118 H70      -8.2391    6.2685    1.3991   H         1 RES1   0.0000
   119 H71      -9.6823    5.3107    1.6876   H         1 RES1   0.0000
   120 H72      -8.7609    5.0789    0.2048   H         1 RES1   0.0000
   121 H73      -5.5873    0.7635    0.9901   H         1 RES1   0.0000
   122 H74      -7.2242    1.6779   -0.5177   H         1 RES1   0.0000
   123 H75      -6.7390    1.8896   -2.9305   H         1 RES1   0.0000
   124 H76      -4.5485    1.1674   -3.8064   H         1 RES1   0.0000
   125 H77      -2.8517    0.2176   -2.2749   H         1 RES1   0.0000
   126 C43       4.8881    4.4035   -4.8695   C.3       1 RES1   0.0000
   127 C44       3.4323    4.8342   -4.7459   C.3       1 RES1   0.0000
   128 C45       3.2988    6.3485   -4.5905   C.3       1 RES1   0.0000
   129 C46       1.9061    6.8518   -4.1961   C.3       1 RES1   0.0000
   130 C47       0.8380    6.8000   -5.2973   C.3       1 RES1   0.0000
   131 C48       0.2204    5.4371   -5.6304   C.3       1 RES1   0.0000
   132 C49      -0.9398    4.9801   -4.7430   C.3       1 RES1   0.0000
   133 C50      -0.4937    4.7628   -3.2985   C.3       1 RES1   0.0000
   134 N4       -1.2650    3.7923   -2.5105   N.am      1 RES1   0.0000
   135 C51      -2.6090    3.3470   -2.8961   C.3       1 RES1   0.0000
   136 C52      -3.6236    4.3154   -3.5284   C.3       1 RES1   0.0000
   137 C53      -4.1051    5.5351   -2.7296   C.3       1 RES1   0.0000
   138 C54      -3.0189    6.4189   -2.1210   C.3       1 RES1   0.0000
   139 C55      -3.5944    7.6100   -1.3475   C.3       1 RES1   0.0000
   140 C56      -2.5467    8.2513   -0.4334   C.3       1 RES1   0.0000
   141 C57      -3.1153    9.2868    0.5412   C.3       1 RES1   0.0000
   142 C58      -3.9081    8.6662    1.6868   C.3       1 RES1   0.0000
   143 C59      -0.6696    3.1026   -1.5314   C.2       1 RES1   0.0000
   144 O3       -1.0910    1.9897   -1.1336   O.2       1 RES1   0.0000
   145 C60       0.4739    3.7895   -0.7849   C.3       1 RES1   0.0000
   146 N5        1.4511    2.8641   -0.1987   N.pl3     1 RES1   0.0000
   147 C61       1.3693    2.8026    1.2703   C.3       1 RES1   0.0000
   148 C62       2.0760    1.5597    1.8140   C.2       1 RES1   0.0000
   149 O4        1.6565    0.4339    1.4406   O.2       1 RES1   0.0000
   150 N6        3.0766    1.6806    2.6769   N.am      1 RES1   0.0000
   151 C63       3.5571    2.9616    3.1872   C.3       1 RES1   0.0000
   152 C64       2.6530    3.5886    4.2546   C.3       1 RES1   0.0000
   153 C65       2.3962    2.6969    5.4685   C.3       1 RES1   0.0000
   154 C66       1.5888    3.4135    6.5562   C.3       1 RES1   0.0000
   155 C67       0.2752    3.9729    6.0085   C.3       1 RES1   0.0000
   156 C68      -0.7598    4.3491    7.0713   C.3       1 RES1   0.0000
   157 C69      -1.4885    3.1453    7.6675   C.3       1 RES1   0.0000
   158 C70      -2.7307    3.5755    8.4367   C.3       1 RES1   0.0000
   159 C71       3.6499    0.4952    3.3213   C.3       1 RES1   0.0000
   160 C72       4.4654   -0.4473    2.4261   C.3       1 RES1   0.0000
   161 C73       5.4714    0.1824    1.4574   C.3       1 RES1   0.0000
   162 C74       6.8846    0.4208    2.0006   C.3       1 RES1   0.0000
   163 C75       7.1027    1.7617    2.6995   C.3       1 RES1   0.0000
   164 C76       6.8770    2.9534    1.7702   C.3       1 RES1   0.0000
   165 C77       7.1315    4.3051    2.4374   C.3       1 RES1   0.0000
   166 C78       8.6131    4.5895    2.6446   C.3       1 RES1   0.0000
   167 C79       2.8083    3.2261   -0.5734   C.ar      1 RES1   0.0000
   168 C80       3.2582    4.5448   -0.6312   C.ar      1 RES1   0.0000
   169 C81       4.5651    4.8240   -0.9995   C.ar      1 RES1   0.0000
   170 C82       5.4430    3.7953   -1.2833   C.ar      1 RES1   0.0000
   171 C83       5.0087    2.4874   -1.1940   C.ar      1 RES1   0.0000
   172 C84       3.7003    2.1995   -0.8447   C.ar      1 RES1   0.0000
   173 H78       4.9506    3.3304   -5.0393   H         1 RES1   0.0000
   174 H79       5.4454    4.6450   -3.9682   H         1 RES1   0.0000
   175 H80       5.3592    4.9079   -5.7076   H         1 RES1   0.0000
   176 H81       2.9821    4.3292   -3.8836   H         1 RES1   0.0000
   177 H82       2.9113    4.5068   -5.6450   H         1 RES1   0.0000
   178 H83       3.6058    6.8291   -5.5195   H         1 RES1   0.0000
   179 H84       3.9970    6.6706   -3.8142   H         1 RES1   0.0000
   180 H85       2.0168    7.9017   -3.9156   H         1 RES1   0.0000
   181 H86       1.5809    6.3190   -3.3022   H         1 RES1   0.0000
   182 H87       1.2985    7.1892   -6.2068   H         1 RES1   0.0000
   183 H88       0.0319    7.4895   -5.0352   H         1 RES1   0.0000
   184 H89       0.9854    4.6671   -5.6248   H         1 RES1   0.0000
   185 H90      -0.1733    5.4932   -6.6455   H         1 RES1   0.0000
   186 H91      -1.3145    4.0468   -5.1635   H         1 RES1   0.0000
   187 H92      -1.7235    5.7330   -4.7911   H         1 RES1   0.0000
   188 H93      -0.4870    5.7282   -2.7902   H         1 RES1   0.0000
   189 H94       0.5293    4.3836   -3.3571   H         1 RES1   0.0000
   190 H95      -3.0448    2.9567   -1.9730   H         1 RES1   0.0000
   191 H96      -2.4915    2.5044   -3.5863   H         1 RES1   0.0000
   192 H97      -4.5073    3.6933   -3.6995   H         1 RES1   0.0000
   193 H98      -3.2904    4.6388   -4.5072   H         1 RES1   0.0000
   194 H99      -4.7720    5.1982   -1.9348   H         1 RES1   0.0000
   195 H100     -4.7115    6.1446   -3.4023   H         1 RES1   0.0000
   196 H101     -2.3774    6.8056   -2.9118   H         1 RES1   0.0000
   197 H102     -2.4118    5.8139   -1.4427   H         1 RES1   0.0000
   198 H103     -4.4456    7.2776   -0.7557   H         1 RES1   0.0000
   199 H104     -3.9590    8.3561   -2.0535   H         1 RES1   0.0000
   200 H105     -1.7880    8.7313   -1.0545   H         1 RES1   0.0000
   201 H106     -2.0441    7.4716    0.1495   H         1 RES1   0.0000
   202 H107     -3.7498    9.9893    0.0014   H         1 RES1   0.0000
   203 H108     -2.2851    9.8556    0.9643   H         1 RES1   0.0000
   204 H109     -4.8179    8.1942    1.3267   H         1 RES1   0.0000
   205 H110     -4.1921    9.4306    2.4046   H         1 RES1   0.0000
   206 H111     -3.3115    7.9187    2.2088   H         1 RES1   0.0000
   207 H112     -0.0265    4.3986   -0.0155   H         1 RES1   0.0000
   208 H113      0.9911    4.4870   -1.4375   H         1 RES1   0.0000
   209 H114      0.3159    2.6817    1.5489   H         1 RES1   0.0000
   210 H115      1.7566    3.7249    1.7166   H         1 RES1   0.0000
   211 H116      3.6924    3.6580    2.3586   H         1 RES1   0.0000
   212 H117      4.5448    2.7917    3.6106   H         1 RES1   0.0000
   213 H118      1.6915    3.8510    3.8158   H         1 RES1   0.0000
   214 H119      3.1304    4.5115    4.5862   H         1 RES1   0.0000
   215 H120      3.3433    2.3726    5.8984   H         1 RES1   0.0000
   216 H121      1.8411    1.8090    5.1563   H         1 RES1   0.0000
   217 H122      2.1836    4.2216    6.9818   H         1 RES1   0.0000
   218 H123      1.3734    2.7032    7.3564   H         1 RES1   0.0000
   219 H124     -0.1614    3.2200    5.3461   H         1 RES1   0.0000
   220 H125      0.4865    4.8637    5.4140   H         1 RES1   0.0000
   221 H126     -1.4993    5.0100    6.6099   H         1 RES1   0.0000
   222 H127     -0.2807    4.9122    7.8715   H         1 RES1   0.0000
   223 H128     -0.8234    2.6022    8.3390   H         1 RES1   0.0000
   224 H129     -1.7740    2.4561    6.8657   H         1 RES1   0.0000
   225 H130     -2.4593    4.2534    9.2400   H         1 RES1   0.0000
   226 H131     -3.2321    2.7161    8.8731   H         1 RES1   0.0000
   227 H132     -3.4327    4.0923    7.7848   H         1 RES1   0.0000
   228 H133      2.8219   -0.0808    3.7482   H         1 RES1   0.0000
   229 H134      4.2737    0.8471    4.1393   H         1 RES1   0.0000
   230 H135      3.7598   -1.0286    1.8328   H         1 RES1   0.0000
   231 H136      4.9847   -1.1431    3.0889   H         1 RES1   0.0000
   232 H137      5.0640    1.1099    1.0604   H         1 RES1   0.0000
   233 H138      5.5719   -0.5038    0.6146   H         1 RES1   0.0000
   234 H139      7.5829    0.3701    1.1626   H         1 RES1   0.0000
   235 H140      7.1527   -0.3882    2.6826   H         1 RES1   0.0000
   236 H141      8.1329    1.7863    3.0546   H         1 RES1   0.0000
   237 H142      6.4566    1.8380    3.5767   H         1 RES1   0.0000
   238 H143      5.8521    2.9472    1.3945   H         1 RES1   0.0000
   239 H144      7.5378    2.8562    0.9072   H         1 RES1   0.0000
   240 H145      6.6172    4.3419    3.4010   H         1 RES1   0.0000
   241 H146      6.7053    5.0901    1.8070   H         1 RES1   0.0000
   242 H147      9.0533    3.8820    3.3418   H         1 RES1   0.0000
   243 H148      8.7527    5.5897    3.0451   H         1 RES1   0.0000
   244 H149      9.1498    4.5228    1.7009   H         1 RES1   0.0000
   245 H150      2.6131    5.3762   -0.3777   H         1 RES1   0.0000
   246 H151      4.8921    5.8503   -1.0543   H         1 RES1   0.0000
   247 H152      6.4646    4.0043   -1.5607   H         1 RES1   0.0000
   248 H153      5.7021    1.6885   -1.3824   H         1 RES1   0.0000
   249 H154      3.3502    1.1792   -0.7623   H         1 RES1   0.0000
   250 C85       0.1160   -6.7848   -6.9030   C.3       1 RES1   0.0000
   251 C86       1.2794   -5.8468   -6.6049   C.3       1 RES1   0.0000
   252 C87       2.4220   -6.5632   -5.8830   C.3       1 RES1   0.0000
   253 C88       3.4000   -5.6498   -5.1383   C.3       1 RES1   0.0000
   254 C89       4.1517   -4.6681   -6.0418   C.3       1 RES1   0.0000
   255 C90       3.4187   -3.3481   -6.3092   C.3       1 RES1   0.0000
   256 C91       3.7425   -2.2131   -5.3292   C.3       1 RES1   0.0000
   257 C92       3.0444   -2.3675   -3.9764   C.3       1 RES1   0.0000
   258 N7        2.9262   -1.1448   -3.1610   N.am      1 RES1   0.0000
   259 C93       3.4104    0.1278   -3.6767   C.3       1 RES1   0.0000
   260 C94       4.9566    0.1765   -3.7436   C.3       1 RES1   0.0000
   261 C95       5.7101   -0.5615   -2.6161   C.3       1 RES1   0.0000
   262 C96       6.3316   -1.9083   -3.0066   C.3       1 RES1   0.0000
   263 C97       7.0520   -2.6103   -1.8469   C.3       1 RES1   0.0000
   264 C98       6.0976   -3.3070   -0.8752   C.3       1 RES1   0.0000
   265 C99       6.8028   -4.1801    0.1655   C.3       1 RES1   0.0000
   266 C100      7.5543   -3.3609    1.2059   C.3       1 RES1   0.0000
   267 C101      2.2805   -1.1201   -1.9839   C.2       1 RES1   0.0000
   268 O5        1.5628   -0.1484   -1.6346   O.2       1 RES1   0.0000
   269 C102      2.6200   -2.1583   -0.9162   C.3       1 RES1   0.0000
   270 N8        1.4708   -2.8061   -0.2700   N.pl3     1 RES1   0.0000
   271 C103      1.5132   -2.8447    1.1939   C.3       1 RES1   0.0000
   272 C104      0.1235   -2.7458    1.8330   C.2       1 RES1   0.0000
   273 O6       -0.5674   -1.7295    1.5778   O.2       1 RES1   0.0000
   274 N9       -0.2899   -3.6568    2.7086   N.am      1 RES1   0.0000
   275 C105      0.3917   -4.9228    2.9539   C.3       1 RES1   0.0000
   276 C106      1.5961   -4.8621    3.8979   C.3       1 RES1   0.0000
   277 C107      1.2492   -4.4690    5.3326   C.3       1 RES1   0.0000
   278 C108      2.4207   -4.7336    6.2828   C.3       1 RES1   0.0000
   279 C109      3.6948   -3.9247    5.9932   C.3       1 RES1   0.0000
   280 C110      3.8801   -2.7105    6.9021   C.3       1 RES1   0.0000
   281 C111      2.7743   -1.6685    6.7605   C.3       1 RES1   0.0000
   282 C112      3.1072   -0.3958    7.5278   C.3       1 RES1   0.0000
   283 C113     -1.4106   -3.3833    3.6116   C.3       1 RES1   0.0000
   284 C114     -2.8519   -3.5913    3.1042   C.3       1 RES1   0.0000
   285 C115     -3.1168   -4.7156    2.0961   C.3       1 RES1   0.0000
   286 C116     -3.6338   -6.0234    2.7154   C.3       1 RES1   0.0000
   287 C117     -2.6013   -7.1355    2.8828   C.3       1 RES1   0.0000
   288 C118     -1.9820   -7.5597    1.5522   C.3       1 RES1   0.0000
   289 C119     -1.0759   -8.7839    1.6719   C.3       1 RES1   0.0000
   290 C120     -1.8769  -10.0663    1.8518   C.3       1 RES1   0.0000
   291 C121      1.3088   -4.0851   -0.9137   C.ar      1 RES1   0.0000
   292 C122      1.6792   -5.3070   -0.3634   C.ar      1 RES1   0.0000
   293 C123      1.5433   -6.4769   -1.0943   C.ar      1 RES1   0.0000
   294 C124      1.0826   -6.4406   -2.3953   C.ar      1 RES1   0.0000
   295 C125      0.7705   -5.2215   -2.9707   C.ar      1 RES1   0.0000
   296 C126      0.8764   -4.0546   -2.2349   C.ar      1 RES1   0.0000
   297 H155     -0.6532   -6.2673   -7.4708   H         1 RES1   0.0000
   298 H156     -0.3317   -7.1591   -5.9838   H         1 RES1   0.0000
   299 H157      0.4539   -7.6358   -7.4856   H         1 RES1   0.0000
   300 H158      0.9095   -5.0180   -5.9944   H         1 RES1   0.0000
   301 H159      1.6437   -5.4279   -7.5428   H         1 RES1   0.0000
   302 H160      2.9743   -7.1598   -6.6090   H         1 RES1   0.0000
   303 H161      1.9987   -7.2593   -5.1565   H         1 RES1   0.0000
   304 H162      4.1268   -6.2939   -4.6382   H         1 RES1   0.0000
   305 H163      2.8621   -5.1059   -4.3595   H         1 RES1   0.0000
   306 H164      4.3440   -5.1675   -6.9918   H         1 RES1   0.0000
   307 H165      5.1287   -4.4443   -5.6082   H         1 RES1   0.0000
   308 H166      2.3446   -3.5122   -6.3301   H         1 RES1   0.0000
   309 H167      3.7072   -2.9980   -7.3001   H         1 RES1   0.0000
   310 H168      3.4272   -1.2870   -5.8033   H         1 RES1   0.0000
   311 H169      4.8203   -2.1842   -5.2012   H         1 RES1   0.0000
   312 H170      3.5391   -3.1558   -3.4081   H         1 RES1   0.0000
   313 H171      2.0258   -2.7069   -4.1845   H         1 RES1   0.0000
   314 H172      3.0575    0.8932   -2.9838   H         1 RES1   0.0000
   315 H173      2.9837    0.3560   -4.6541   H         1 RES1   0.0000
   316 H174      5.2106    1.2377   -3.7119   H         1 RES1   0.0000
   317 H175      5.3062   -0.1983   -4.7022   H         1 RES1   0.0000
   318 H176      5.0438   -0.7098   -1.7659   H         1 RES1   0.0000
   319 H177      6.5379    0.0643   -2.2779   H         1 RES1   0.0000
   320 H178      7.0504   -1.7374   -3.8105   H         1 RES1   0.0000
   321 H179      5.5714   -2.5903   -3.3781   H         1 RES1   0.0000
   322 H180      7.6681   -1.8911   -1.3078   H         1 RES1   0.0000
   323 H181      7.7213   -3.3644   -2.2636   H         1 RES1   0.0000
   324 H182      5.4155   -3.9426   -1.4488   H         1 RES1   0.0000
   325 H183      5.5029   -2.5582   -0.3452   H         1 RES1   0.0000
   326 H184      7.4943   -4.8601   -0.3325   H         1 RES1   0.0000
   327 H185      6.0539   -4.7943    0.6728   H         1 RES1   0.0000
   328 H186      8.3344   -2.7680    0.7390   H         1 RES1   0.0000
   329 H187      8.0203   -4.0136    1.9385   H         1 RES1   0.0000
   330 H188      6.8745   -2.6895    1.7275   H         1 RES1   0.0000
   331 H189      3.1581   -1.5504   -0.1756   H         1 RES1   0.0000
   332 H190      3.3233   -2.8993   -1.3056   H         1 RES1   0.0000
   333 H191      2.0043   -1.9274    1.5401   H         1 RES1   0.0000
   334 H192      2.0847   -3.6961    1.5653   H         1 RES1   0.0000
   335 H193      0.6772   -5.3551    1.9969   H         1 RES1   0.0000
   336 H194     -0.3442   -5.5927    3.3947   H         1 RES1   0.0000
   337 H195      2.3477   -4.1699    3.5222   H         1 RES1   0.0000
   338 H196      2.0480   -5.8564    3.9116   H         1 RES1   0.0000
   339 H197      0.4078   -5.0735    5.6756   H         1 RES1   0.0000
   340 H198      0.9573   -3.4191    5.3719   H         1 RES1   0.0000
   341 H199      2.6519   -5.7970    6.2170   H         1 RES1   0.0000
   342 H200      2.1043   -4.5362    7.3085   H         1 RES1   0.0000
   343 H201      3.7062   -3.5873    4.9546   H         1 RES1   0.0000
   344 H202      4.5632   -4.5708    6.1271   H         1 RES1   0.0000
   345 H203      4.8391   -2.2442    6.6633   H         1 RES1   0.0000
   346 H204      3.9286   -3.0404    7.9402   H         1 RES1   0.0000
   347 H205      1.8358   -2.0746    7.1407   H         1 RES1   0.0000
   348 H206      2.6319   -1.4318    5.7005   H         1 RES1   0.0000
   349 H207      3.2768   -0.6236    8.5761   H         1 RES1   0.0000
   350 H208      2.2933    0.3218    7.4589   H         1 RES1   0.0000
   351 H209      4.0108    0.0656    7.1358   H         1 RES1   0.0000
   352 H210     -1.3076   -2.3424    3.9362   H         1 RES1   0.0000
   353 H211     -1.2566   -4.0325    4.4712   H         1 RES1   0.0000
   354 H212     -3.2085   -2.6664    2.6589   H         1 RES1   0.0000
   355 H213     -3.4717   -3.7530    3.9890   H         1 RES1   0.0000
   356 H214     -2.2277   -4.8944    1.4904   H         1 RES1   0.0000
   357 H215     -3.8940   -4.3655    1.4139   H         1 RES1   0.0000
   358 H216     -4.4277   -6.4154    2.0803   H         1 RES1   0.0000
   359 H217     -4.0903   -5.8076    3.6834   H         1 RES1   0.0000
   360 H218     -3.1127   -7.9940    3.3187   H         1 RES1   0.0000
   361 H219     -1.8223   -6.8355    3.5876   H         1 RES1   0.0000
   362 H220     -1.4051   -6.7353    1.1235   H         1 RES1   0.0000
   363 H221     -2.7872   -7.7935    0.8534   H         1 RES1   0.0000
   364 H222     -0.3916   -8.6544    2.5132   H         1 RES1   0.0000
   365 H223     -0.4735   -8.8663    0.7641   H         1 RES1   0.0000
   366 H224     -2.4330  -10.0513    2.7848   H         1 RES1   0.0000
   367 H225     -1.2182  -10.9290    1.8662   H         1 RES1   0.0000
   368 H226     -2.5824  -10.1894    1.0329   H         1 RES1   0.0000
   369 H227      2.1194   -5.3843    0.6184   H         1 RES1   0.0000
   370 H228      1.8187   -7.4144   -0.6374   H         1 RES1   0.0000
   371 H229      0.9826   -7.3493   -2.9642   H         1 RES1   0.0000
   372 H230      0.4266   -5.1825   -3.9909   H         1 RES1   0.0000
   373 H231      0.6134   -3.0926   -2.6554   H         1 RES1   0.0000
@<TRIPOS>BOND
     1     1    20    1
     2     1    22    1
     3     1    25    1
     4     1   144    1
     5     1   146    1
     6     1   149    1
     7     1   268    1
     8     1   270    1
     9     1   273    1
    10     2     3    1
    11     2    49    1
    12     2    50    1
    13     2    51    1
    14     3     4    1
    15     3    52    1
    16     3    53    1
    17     4     5    1
    18     4    54    1
    19     4    55    1
    20     5     6    1
    21     5    56    1
    22     5    57    1
    23     6     7    1
    24     6    58    1
    25     6    59    1
    26     7     8    1
    27     7    60    1
    28     7    61    1
    29     8     9    1
    30     8    62    1
    31     8    63    1
    32     9    10    1
    33     9    64    1
    34     9    65    1
    35    10    11    1
    36    10    19    1
    37    11    12    1
    38    11    66    1
    39    11    67    1
    40    12    13    1
    41    12    68    1
    42    12    69    1
    43    13    14    1
    44    13    70    1
    45    13    71    1
    46    14    15    1
    47    14    72    1
    48    14    73    1
    49    15    16    1
    50    15    74    1
    51    15    75    1
    52    16    17    1
    53    16    76    1
    54    16    77    1
    55    17    18    1
    56    17    78    1
    57    17    79    1
    58    18    80    1
    59    18    81    1
    60    18    82    1
    61    19    20    2
    62    19    21    1
    63    21    22    1
    64    21    83    1
    65    21    84    1
    66    22    23    1
    67    22    43    1
    68    23    24    1
    69    23    85    1
    70    23    86    1
    71    24    25    2
    72    24    26    1
    73    26    27    1
    74    26    35    1
    75    27    28    1
    76    27    87    1
    77    27    88    1
    78    28    29    1
    79    28    89    1
    80    28    90    1
    81    29    30    1
    82    29    91    1
    83    29    92    1
    84    30    31    1
    85    30    93    1
    86    30    94    1
    87    31    32    1
    88    31    95    1
    89    31    96    1
    90    32    33    1
    91    32    97    1
    92    32    98    1
    93    33    34    1
    94    33    99    1
    95    33   100    1
    96    34   101    1
    97    34   102    1
    98    34   103    1
    99    35    36    1
   100    35   104    1
   101    35   105    1
   102    36    37    1
   103    36   106    1
   104    36   107    1
   105    37    38    1
   106    37   108    1
   107    37   109    1
   108    38    39    1
   109    38   110    1
   110    38   111    1
   111    39    40    1
   112    39   112    1
   113    39   113    1
   114    40    41    1
   115    40   114    1
   116    40   115    1
   117    41    42    1
   118    41   116    1
   119    41   117    1
   120    42   118    1
   121    42   119    1
   122    42   120    1
   123    43    44    1
   124    43    48    2
   125    44    45    2
   126    44   121    1
   127    45    46    1
   128    45   122    1
   129    46    47    2
   130    46   123    1
   131    47    48    1
   132    47   124    1
   133    48   125    1
   134   126   127    1
   135   126   173    1
   136   126   174    1
   137   126   175    1
   138   127   128    1
   139   127   176    1
   140   127   177    1
   141   128   129    1
   142   128   178    1
   143   128   179    1
   144   129   130    1
   145   129   180    1
   146   129   181    1
   147   130   131    1
   148   130   182    1
   149   130   183    1
   150   131   132    1
   151   131   184    1
   152   131   185    1
   153   132   133    1
   154   132   186    1
   155   132   187    1
   156   133   134    1
   157   133   188    1
   158   133   189    1
   159   134   135    1
   160   134   143    1
   161   135   136    1
   162   135   190    1
   163   135   191    1
   164   136   137    1
   165   136   192    1
   166   136   193    1
   167   137   138    1
   168   137   194    1
   169   137   195    1
   170   138   139    1
   171   138   196    1
   172   138   197    1
   173   139   140    1
   174   139   198    1
   175   139   199    1
   176   140   141    1
   177   140   200    1
   178   140   201    1
   179   141   142    1
   180   141   202    1
   181   141   203    1
   182   142   204    1
   183   142   205    1
   184   142   206    1
   185   143   144    2
   186   143   145    1
   187   145   146    1
   188   145   207    1
   189   145   208    1
   190   146   147    1
   191   146   167    1
   192   147   148    1
   193   147   209    1
   194   147   210    1
   195   148   149    2
   196   148   150    1
   197   150   151    1
   198   150   159    1
   199   151   152    1
   200   151   211    1
   201   151   212    1
   202   152   153    1
   203   152   213    1
   204   152   214    1
   205   153   154    1
   206   153   215    1
   207   153   216    1
   208   154   155    1
   209   154   217    1
   210   154   218    1
   211   155   156    1
   212   155   219    1
   213   155   220    1
   214   156   157    1
   215   156   221    1
   216   156   222    1
   217   157   158    1
   218   157   223    1
   219   157   224    1
   220   158   225    1
   221   158   226    1
   222   158   227    1
   223   159   160    1
   224   159   228    1
   225   159   229    1
   226   160   161    1
   227   160   230    1
   228   160   231    1
   229   161   162    1
   230   161   232    1
   231   161   233    1
   232   162   163    1
   233   162   234    1
   234   162   235    1
   235   163   164    1
   236   163   236    1
   237   163   237    1
   238   164   165    1
   239   164   238    1
   240   164   239    1
   241   165   166    1
   242   165   240    1
   243   165   241    1
   244   166   242    1
   245   166   243    1
   246   166   244    1
   247   167   168    1
   248   167   172    2
   249   168   169    2
   250   168   245    1
   251   169   170    1
   252   169   246    1
   253   170   171    2
   254   170   247    1
   255   171   172    1
   256   171   248    1
   257   172   249    1
   258   250   251    1
   259   250   297    1
   260   250   298    1
   261   250   299    1
   262   251   252    1
   263   251   300    1
   264   251   301    1
   265   252   253    1
   266   252   302    1
   267   252   303    1
   268   253   254    1
   269   253   304    1
   270   253   305    1
   271   254   255    1
   272   254   306    1
   273   254   307    1
   274   255   256    1
   275   255   308    1
   276   255   309    1
   277   256   257    1
   278   256   310    1
   279   256   311    1
   280   257   258    1
   281   257   312    1
   282   257   313    1
   283   258   259    1
   284   258   267    1
   285   259   260    1
   286   259   314    1
   287   259   315    1
   288   260   261    1
   289   260   316    1
   290   260   317    1
   291   261   262    1
   292   261   318    1
   293   261   319    1
   294   262   263    1
   295   262   320    1
   296   262   321    1
   297   263   264    1
   298   263   322    1
   299   263   323    1
   300   264   265    1
   301   264   324    1
   302   264   325    1
   303   265   266    1
   304   265   326    1
   305   265   327    1
   306   266   328    1
   307   266   329    1
   308   266   330    1
   309   267   268    2
   310   267   269    1
   311   269   270    1
   312   269   331    1
   313   269   332    1
   314   270   271    1
   315   270   291    1
   316   271   272    1
   317   271   333    1
   318   271   334    1
   319   272   273    2
   320   272   274    1
   321   274   275    1
   322   274   283    1
   323   275   276    1
   324   275   335    1
   325   275   336    1
   326   276   277    1
   327   276   337    1
   328   276   338    1
   329   277   278    1
   330   277   339    1
   331   277   340    1
   332   278   279    1
   333   278   341    1
   334   278   342    1
   335   279   280    1
   336   279   343    1
   337   279   344    1
   338   280   281    1
   339   280   345    1
   340   280   346    1
   341   281   282    1
   342   281   347    1
   343   281   348    1
   344   282   349    1
   345   282   350    1
   346   282   351    1
   347   283   284    1
   348   283   352    1
   349   283   353    1
   350   284   285    1
   351   284   354    1
   352   284   355    1
   353   285   286    1
   354   285   356    1
   355   285   357    1
   356   286   287    1
   357   286   358    1
   358   286   359    1
   359   287   288    1
   360   287   360    1
   361   287   361    1
   362   288   289    1
   363   288   362    1
   364   288   363    1
   365   289   290    1
   366   289   364    1
   367   289   365    1
   368   290   366    1
   369   290   367    1
   370   290   368    1
   371   291   292    1
   372   291   296    2
   373   292   293    2
   374   292   369    1
   375   293   294    1
   376   293   370    1
   377   294   295    2
   378   294   371    1
   379   295   296    1
   380   295   372    1
   381   296   373    1
@<TRIPOS>SUBSTRUCTURE
     1 RES1      373 GROUP             0 ****  ****    0  
