@<TRIPOS>MOLECULE
am_c3_9H2O_c0_0_nunpairedes_0_charge_3 Charge: 3 Unpaired_Electrons: 6 XTB_Unpaired_Electrons: 0 XTB_Charge: 3
   358   363     1     0     0
SMALL
NoCharges
****
Generated from Architector

@<TRIPOS>ATOM
     1 Eu1      -0.2221   -0.0304    0.0797   Eu        1 RES1   0.0000
     2 C1       -4.8141    1.7687   -7.0927   C.3       1 RES1   0.0000
     3 C2       -3.5576    2.3424   -7.7377   C.3       1 RES1   0.0000
     4 C3       -2.2701    1.6499   -7.2884   C.3       1 RES1   0.0000
     5 C4       -1.9015    1.8300   -5.8111   C.3       1 RES1   0.0000
     6 C5       -1.5771    3.2838   -5.4339   C.3       1 RES1   0.0000
     7 C6       -2.7114    4.0087   -4.7041   C.3       1 RES1   0.0000
     8 C7       -2.9554    3.5343   -3.2689   C.3       1 RES1   0.0000
     9 C8       -1.7882    3.8853   -2.3472   C.3       1 RES1   0.0000
    10 N1       -2.1068    3.8439   -0.9178   N.am      1 RES1   0.0000
    11 C9       -2.6137    5.0716   -0.3027   C.3       1 RES1   0.0000
    12 C10      -4.0192    5.0622    0.3196   C.3       1 RES1   0.0000
    13 C11      -5.1959    4.8492   -0.6276   C.3       1 RES1   0.0000
    14 C12      -6.5139    5.0583    0.1258   C.3       1 RES1   0.0000
    15 C13      -7.7622    4.9536   -0.7550   C.3       1 RES1   0.0000
    16 C14      -8.0520    3.5304   -1.2249   C.3       1 RES1   0.0000
    17 C15      -9.3476    3.4024   -2.0280   C.3       1 RES1   0.0000
    18 C16      -9.2754    4.0287   -3.4152   C.3       1 RES1   0.0000
    19 C17      -1.7763    2.7379   -0.2634   C.2       1 RES1   0.0000
    20 O1       -1.4263    1.6991   -0.8596   O.2       1 RES1   0.0000
    21 C18      -1.7872    2.7270    1.2724   C.3       1 RES1   0.0000
    22 C19      -0.5844    3.4452    1.8821   C.3       1 RES1   0.0000
    23 O2       -1.6596    1.3810    1.7244   O.3       1 RES1   0.0000
    24 C20      -2.8152    0.8285    2.3696   C.3       1 RES1   0.0000
    25 C21      -2.3126    0.2452    3.6897   C.3       1 RES1   0.0000
    26 C22      -3.3827   -0.2127    1.3834   C.2       1 RES1   0.0000
    27 O3       -2.5777   -0.7180    0.5791   O.2       1 RES1   0.0000
    28 N2       -4.6804   -0.4866    1.4036   N.am      1 RES1   0.0000
    29 C23      -5.2362   -1.4430    0.4493   C.3       1 RES1   0.0000
    30 C24      -5.5878   -2.7687    1.1375   C.3       1 RES1   0.0000
    31 C25      -5.6323   -3.9763    0.1995   C.3       1 RES1   0.0000
    32 C26      -6.8243   -3.9967   -0.7723   C.3       1 RES1   0.0000
    33 C27      -6.3993   -4.2652   -2.2171   C.3       1 RES1   0.0000
    34 C28      -5.8930   -5.6813   -2.4814   C.3       1 RES1   0.0000
    35 C29      -5.5067   -5.9054   -3.9453   C.3       1 RES1   0.0000
    36 C30      -4.8090   -7.2454   -4.1491   C.3       1 RES1   0.0000
    37 C31      -5.5945    0.0711    2.3922   C.3       1 RES1   0.0000
    38 C32      -6.2206    1.4098    1.9877   C.3       1 RES1   0.0000
    39 C33      -6.9916    2.0438    3.1544   C.3       1 RES1   0.0000
    40 C34      -6.1623    2.8307    4.1790   C.3       1 RES1   0.0000
    41 C35      -5.4195    2.0478    5.2684   C.3       1 RES1   0.0000
    42 C36      -6.3296    1.1345    6.0944   C.3       1 RES1   0.0000
    43 C37      -5.8469    0.9338    7.5339   C.3       1 RES1   0.0000
    44 C38      -4.4810    0.2664    7.6537   C.3       1 RES1   0.0000
    45 H1       -5.6971    2.2311   -7.5258   H         1 RES1   0.0000
    46 H2       -4.8707    0.6972   -7.2663   H         1 RES1   0.0000
    47 H3       -4.8350    1.9445   -6.0190   H         1 RES1   0.0000
    48 H4       -3.6390    2.2189   -8.8198   H         1 RES1   0.0000
    49 H5       -3.4975    3.4142   -7.5411   H         1 RES1   0.0000
    50 H6       -2.3691    0.5824   -7.4981   H         1 RES1   0.0000
    51 H7       -1.4444    2.0231   -7.8977   H         1 RES1   0.0000
    52 H8       -2.7132    1.4556   -5.1859   H         1 RES1   0.0000
    53 H9       -1.0278    1.2013   -5.6149   H         1 RES1   0.0000
    54 H10      -0.6748    3.3185   -4.8181   H         1 RES1   0.0000
    55 H11      -1.3536    3.8296   -6.3516   H         1 RES1   0.0000
    56 H12      -2.4923    5.0790   -4.6877   H         1 RES1   0.0000
    57 H13      -3.6335    3.8754   -5.2678   H         1 RES1   0.0000
    58 H14      -3.8608    4.0133   -2.8973   H         1 RES1   0.0000
    59 H15      -3.1109    2.4547   -3.2465   H         1 RES1   0.0000
    60 H16      -0.9776    3.1704   -2.5085   H         1 RES1   0.0000
    61 H17      -1.4201    4.8870   -2.5821   H         1 RES1   0.0000
    62 H18      -1.9224    5.3836    0.4859   H         1 RES1   0.0000
    63 H19      -2.5933    5.8332   -1.0838   H         1 RES1   0.0000
    64 H20      -4.0952    4.3377    1.1312   H         1 RES1   0.0000
    65 H21      -4.1269    6.0471    0.7795   H         1 RES1   0.0000
    66 H22      -5.1384    5.5686   -1.4444   H         1 RES1   0.0000
    67 H23      -5.1662    3.8417   -1.0455   H         1 RES1   0.0000
    68 H24      -6.5829    4.3299    0.9381   H         1 RES1   0.0000
    69 H25      -6.4983    6.0516    0.5795   H         1 RES1   0.0000
    70 H26      -8.6170    5.3117   -0.1770   H         1 RES1   0.0000
    71 H27      -7.6487    5.6115   -1.6172   H         1 RES1   0.0000
    72 H28      -7.2218    3.1737   -1.8353   H         1 RES1   0.0000
    73 H29      -8.1261    2.8839   -0.3455   H         1 RES1   0.0000
    74 H30      -9.5813    2.3411   -2.1382   H         1 RES1   0.0000
    75 H31     -10.1657    3.8607   -1.4713   H         1 RES1   0.0000
    76 H32      -8.4445    3.6172   -3.9864   H         1 RES1   0.0000
    77 H33     -10.1948    3.8266   -3.9592   H         1 RES1   0.0000
    78 H34      -9.1529    5.1066   -3.3586   H         1 RES1   0.0000
    79 H35      -2.7231    3.1649    1.6372   H         1 RES1   0.0000
    80 H36       0.2838    2.7943    1.7597   H         1 RES1   0.0000
    81 H37      -0.3792    4.3961    1.4102   H         1 RES1   0.0000
    82 H38      -0.7638    3.6038    2.9402   H         1 RES1   0.0000
    83 H39      -3.5450    1.6204    2.5589   H         1 RES1   0.0000
    84 H40      -2.9793   -0.5032    4.1055   H         1 RES1   0.0000
    85 H41      -1.3381   -0.1935    3.4806   H         1 RES1   0.0000
    86 H42      -2.1785    1.0435    4.4150   H         1 RES1   0.0000
    87 H43      -6.1177   -0.9919   -0.0146   H         1 RES1   0.0000
    88 H44      -4.4748   -1.6078   -0.3165   H         1 RES1   0.0000
    89 H45      -4.8241   -2.9603    1.8959   H         1 RES1   0.0000
    90 H46      -6.5472   -2.6780    1.6463   H         1 RES1   0.0000
    91 H47      -4.6930   -4.0148   -0.3576   H         1 RES1   0.0000
    92 H48      -5.6670   -4.8699    0.8232   H         1 RES1   0.0000
    93 H49      -7.5451   -4.7537   -0.4618   H         1 RES1   0.0000
    94 H50      -7.3407   -3.0356   -0.7449   H         1 RES1   0.0000
    95 H51      -7.2422   -4.0665   -2.8802   H         1 RES1   0.0000
    96 H52      -5.6069   -3.5547   -2.4665   H         1 RES1   0.0000
    97 H53      -5.0214   -5.8769   -1.8533   H         1 RES1   0.0000
    98 H54      -6.6684   -6.3983   -2.2111   H         1 RES1   0.0000
    99 H55      -6.4022   -5.8680   -4.5683   H         1 RES1   0.0000
   100 H56      -4.8443   -5.1018   -4.2829   H         1 RES1   0.0000
   101 H57      -5.4531   -8.0622   -3.8377   H         1 RES1   0.0000
   102 H58      -4.5578   -7.3899   -5.1963   H         1 RES1   0.0000
   103 H59      -3.8901   -7.2997   -3.5671   H         1 RES1   0.0000
   104 H60      -6.3951   -0.6529    2.5520   H         1 RES1   0.0000
   105 H61      -5.0718    0.1926    3.3380   H         1 RES1   0.0000
   106 H62      -5.4494    2.0963    1.6271   H         1 RES1   0.0000
   107 H63      -6.9040    1.2424    1.1526   H         1 RES1   0.0000
   108 H64      -7.7102    2.7432    2.7236   H         1 RES1   0.0000
   109 H65      -7.5651    1.2691    3.6631   H         1 RES1   0.0000
   110 H66      -5.4512    3.4707    3.6480   H         1 RES1   0.0000
   111 H67      -6.8527    3.4977    4.6963   H         1 RES1   0.0000
   112 H68      -4.5940    1.4704    4.8495   H         1 RES1   0.0000
   113 H69      -4.9770    2.7863    5.9408   H         1 RES1   0.0000
   114 H70      -7.3227    1.5810    6.1461   H         1 RES1   0.0000
   115 H71      -6.4289    0.1605    5.6108   H         1 RES1   0.0000
   116 H72      -5.8079    1.9039    8.0338   H         1 RES1   0.0000
   117 H73      -6.5812    0.3224    8.0636   H         1 RES1   0.0000
   118 H74      -3.7004    0.8870    7.2210   H         1 RES1   0.0000
   119 H75      -4.2394    0.1061    8.7018   H         1 RES1   0.0000
   120 H76      -4.4733   -0.7015    7.1559   H         1 RES1   0.0000
   121 C39       1.8374    6.4624    5.7181   C.3       1 RES1   0.0000
   122 C40       1.2005    7.6692    5.0369   C.3       1 RES1   0.0000
   123 C41      -0.1458    7.3498    4.3842   C.3       1 RES1   0.0000
   124 C42      -0.0869    6.4292    3.1579   C.3       1 RES1   0.0000
   125 C43       0.2347    7.1209    1.8232   C.3       1 RES1   0.0000
   126 C44       1.6943    7.0008    1.3817   C.3       1 RES1   0.0000
   127 C45       2.1737    5.5993    0.9726   C.3       1 RES1   0.0000
   128 C46       1.7129    5.1483   -0.4220   C.3       1 RES1   0.0000
   129 N3        2.4982    4.0567   -1.0197   N.am      1 RES1   0.0000
   130 C47       3.6859    4.4337   -1.7943   C.3       1 RES1   0.0000
   131 C48       5.0492    3.9842   -1.2319   C.3       1 RES1   0.0000
   132 C49       5.2429    4.3937    0.2242   C.3       1 RES1   0.0000
   133 C50       6.5957    4.0178    0.8229   C.3       1 RES1   0.0000
   134 C51       6.7223    4.4933    2.2751   C.3       1 RES1   0.0000
   135 C52       5.6334    3.9467    3.2001   C.3       1 RES1   0.0000
   136 C53       5.8033    4.3540    4.6659   C.3       1 RES1   0.0000
   137 C54       5.6799    5.8547    4.9071   C.3       1 RES1   0.0000
   138 C55       2.0025    2.8209   -0.9774   C.2       1 RES1   0.0000
   139 O4        1.0247    2.4925   -0.2841   O.2       1 RES1   0.0000
   140 C56       2.5683    1.7123   -1.8749   C.3       1 RES1   0.0000
   141 C57       1.6810    1.6366   -3.1168   C.3       1 RES1   0.0000
   142 O5        2.4175    0.4642   -1.1929   O.3       1 RES1   0.0000
   143 C58       3.5532    0.0566   -0.4139   C.3       1 RES1   0.0000
   144 C59       4.1274   -1.2113   -1.0408   C.3       1 RES1   0.0000
   145 C60       3.0854   -0.1081    1.0401   C.2       1 RES1   0.0000
   146 O6        1.8692    0.0770    1.2779   O.2       1 RES1   0.0000
   147 N4        3.9684   -0.3770    1.9981   N.am      1 RES1   0.0000
   148 C61       3.4927   -0.3569    3.3869   C.3       1 RES1   0.0000
   149 C62       3.6668   -1.6781    4.1413   C.3       1 RES1   0.0000
   150 C63       2.9180   -1.6789    5.4764   C.3       1 RES1   0.0000
   151 C64       3.4358   -0.6527    6.4934   C.3       1 RES1   0.0000
   152 C65       2.6958    0.6887    6.4923   C.3       1 RES1   0.0000
   153 C66       1.2567    0.5689    6.9863   C.3       1 RES1   0.0000
   154 C67       0.5295    1.9096    6.9676   C.3       1 RES1   0.0000
   155 C68      -0.9282    1.7465    7.3732   C.3       1 RES1   0.0000
   156 C69       5.3735   -0.7820    1.8494   C.3       1 RES1   0.0000
   157 C70       6.3920    0.1768    1.2269   C.3       1 RES1   0.0000
   158 C71       7.8163   -0.4043    1.3766   C.3       1 RES1   0.0000
   159 C72       8.4670   -0.9623    0.1029   C.3       1 RES1   0.0000
   160 C73       7.8866   -2.2498   -0.4908   C.3       1 RES1   0.0000
   161 C74       7.9686   -3.4487    0.4522   C.3       1 RES1   0.0000
   162 C75       7.4263   -4.7480   -0.1474   C.3       1 RES1   0.0000
   163 C76       5.9075   -4.7569   -0.2869   C.3       1 RES1   0.0000
   164 H77       2.6660    6.7822    6.3418   H         1 RES1   0.0000
   165 H78       1.1129    5.9579    6.3533   H         1 RES1   0.0000
   166 H79       2.2213    5.7413    4.9991   H         1 RES1   0.0000
   167 H80       1.0259    8.4372    5.7940   H         1 RES1   0.0000
   168 H81       1.8908    8.0882    4.3019   H         1 RES1   0.0000
   169 H82      -0.7702    6.8672    5.1442   H         1 RES1   0.0000
   170 H83      -0.6444    8.2809    4.1048   H         1 RES1   0.0000
   171 H84       0.6377    5.6381    3.3537   H         1 RES1   0.0000
   172 H85      -1.0715    5.9635    3.0766   H         1 RES1   0.0000
   173 H86      -0.4033    6.7235    1.0295   H         1 RES1   0.0000
   174 H87      -0.0055    8.1800    1.9143   H         1 RES1   0.0000
   175 H88       1.8760    7.6856    0.5490   H         1 RES1   0.0000
   176 H89       2.3199    7.3326    2.2113   H         1 RES1   0.0000
   177 H90       3.2580    5.6371    0.9761   H         1 RES1   0.0000
   178 H91       1.8590    4.8543    1.7055   H         1 RES1   0.0000
   179 H92       0.6802    4.7931   -0.3846   H         1 RES1   0.0000
   180 H93       1.7588    5.9974   -1.1095   H         1 RES1   0.0000
   181 H94       3.5786    4.0693   -2.8205   H         1 RES1   0.0000
   182 H95       3.6931    5.5239   -1.8367   H         1 RES1   0.0000
   183 H96       5.1823    2.9034   -1.3231   H         1 RES1   0.0000
   184 H97       5.8182    4.4533   -1.8495   H         1 RES1   0.0000
   185 H98       5.1390    5.4776    0.2928   H         1 RES1   0.0000
   186 H99       4.4594    3.9126    0.8115   H         1 RES1   0.0000
   187 H100      6.7351    2.9375    0.7748   H         1 RES1   0.0000
   188 H101      7.3914    4.4743    0.2334   H         1 RES1   0.0000
   189 H102      7.6964    4.1837    2.6579   H         1 RES1   0.0000
   190 H103      6.6904    5.5826    2.2885   H         1 RES1   0.0000
   191 H104      4.6544    4.2980    2.8687   H         1 RES1   0.0000
   192 H105      5.6306    2.8524    3.1425   H         1 RES1   0.0000
   193 H106      5.0299    3.8448    5.2486   H         1 RES1   0.0000
   194 H107      6.7727    4.0106    5.0297   H         1 RES1   0.0000
   195 H108      4.7571    6.2467    4.4836   H         1 RES1   0.0000
   196 H109      5.6735    6.0558    5.9753   H         1 RES1   0.0000
   197 H110      6.5171    6.3948    4.4756   H         1 RES1   0.0000
   198 H111      3.6114    1.8620   -2.1660   H         1 RES1   0.0000
   199 H112      0.6696    1.3463   -2.8039   H         1 RES1   0.0000
   200 H113      1.6495    2.5959   -3.6263   H         1 RES1   0.0000
   201 H114      2.0721    0.8938   -3.8071   H         1 RES1   0.0000
   202 H115      4.3071    0.8544   -0.4236   H         1 RES1   0.0000
   203 H116      5.1161   -1.4295   -0.6599   H         1 RES1   0.0000
   204 H117      3.4675   -2.0484   -0.8464   H         1 RES1   0.0000
   205 H118      4.2094   -1.0573   -2.1149   H         1 RES1   0.0000
   206 H119      4.0368    0.4327    3.9138   H         1 RES1   0.0000
   207 H120      2.4281   -0.1092    3.3651   H         1 RES1   0.0000
   208 H121      3.2866   -2.4972    3.5258   H         1 RES1   0.0000
   209 H122      4.7214   -1.8764    4.3379   H         1 RES1   0.0000
   210 H123      1.8555   -1.5159    5.2903   H         1 RES1   0.0000
   211 H124      3.0267   -2.6783    5.9001   H         1 RES1   0.0000
   212 H125      3.3376   -1.0802    7.4918   H         1 RES1   0.0000
   213 H126      4.5015   -0.4807    6.3239   H         1 RES1   0.0000
   214 H127      3.2323    1.3757    7.1496   H         1 RES1   0.0000
   215 H128      2.6891    1.1300    5.4927   H         1 RES1   0.0000
   216 H129      0.7065   -0.1347    6.3560   H         1 RES1   0.0000
   217 H130      1.2553    0.1709    8.0013   H         1 RES1   0.0000
   218 H131      1.0222    2.6018    7.6504   H         1 RES1   0.0000
   219 H132      0.5883    2.3392    5.9627   H         1 RES1   0.0000
   220 H133     -0.9999    1.3907    8.3968   H         1 RES1   0.0000
   221 H134     -1.4599    2.6918    7.3029   H         1 RES1   0.0000
   222 H135     -1.4177    1.0170    6.7296   H         1 RES1   0.0000
   223 H136      5.7246   -0.9498    2.8673   H         1 RES1   0.0000
   224 H137      5.4143   -1.7393    1.3274   H         1 RES1   0.0000
   225 H138      6.2046    0.3693    0.1717   H         1 RES1   0.0000
   226 H139      6.3327    1.1277    1.7574   H         1 RES1   0.0000
   227 H140      8.4747    0.3879    1.7329   H         1 RES1   0.0000
   228 H141      7.8191   -1.1809    2.1407   H         1 RES1   0.0000
   229 H142      8.4630   -0.1890   -0.6696   H         1 RES1   0.0000
   230 H143      9.5121   -1.1634    0.3464   H         1 RES1   0.0000
   231 H144      6.8555   -2.0911   -0.8093   H         1 RES1   0.0000
   232 H145      8.4608   -2.4829   -1.3920   H         1 RES1   0.0000
   233 H146      9.0150   -3.5969    0.7181   H         1 RES1   0.0000
   234 H147      7.4224   -3.2386    1.3739   H         1 RES1   0.0000
   235 H148      7.8808   -4.9248   -1.1232   H         1 RES1   0.0000
   236 H149      7.7191   -5.5726    0.5048   H         1 RES1   0.0000
   237 H150      5.5786   -4.0444   -1.0399   H         1 RES1   0.0000
   238 H151      5.5658   -5.7443   -0.5845   H         1 RES1   0.0000
   239 H152      5.4419   -4.5094    0.6655   H         1 RES1   0.0000
   240 C77      -8.6399   -4.0846    2.8423   C.3       1 RES1   0.0000
   241 C78      -8.4807   -3.7701    4.3247   C.3       1 RES1   0.0000
   242 C79      -7.2324   -2.9487    4.6550   C.3       1 RES1   0.0000
   243 C80      -5.9190   -3.7363    4.6423   C.3       1 RES1   0.0000
   244 C81      -4.7500   -2.8066    4.9750   C.3       1 RES1   0.0000
   245 C82      -3.3585   -3.4578    5.0269   C.3       1 RES1   0.0000
   246 C83      -2.5903   -3.4708    3.6900   C.3       1 RES1   0.0000
   247 C84      -1.0873   -3.2075    3.8894   C.3       1 RES1   0.0000
   248 N5       -0.2756   -3.7746    2.8097   N.am      1 RES1   0.0000
   249 C85       0.1818   -5.1374    3.1036   C.3       1 RES1   0.0000
   250 C86      -0.0333   -6.2565    2.0823   C.3       1 RES1   0.0000
   251 C87      -1.5002   -6.5662    1.7926   C.3       1 RES1   0.0000
   252 C88      -1.6322   -7.8313    0.9389   C.3       1 RES1   0.0000
   253 C89      -3.0300   -8.4525    0.9791   C.3       1 RES1   0.0000
   254 C90      -4.1224   -7.4704    0.5687   C.3       1 RES1   0.0000
   255 C91      -5.4907   -8.1192    0.3643   C.3       1 RES1   0.0000
   256 C92      -6.1159   -8.6599    1.6443   C.3       1 RES1   0.0000
   257 C93       0.0619   -2.9689    1.8029   C.2       1 RES1   0.0000
   258 O7       -0.2873   -1.7692    1.7768   O.2       1 RES1   0.0000
   259 C94       0.8730   -3.4938    0.6060   C.3       1 RES1   0.0000
   260 C95       2.3122   -3.8631    0.9691   C.3       1 RES1   0.0000
   261 O8        0.9143   -2.4646   -0.4033   O.3       1 RES1   0.0000
   262 C96       0.6721   -2.9471   -1.7345   C.3       1 RES1   0.0000
   263 C97       1.5563   -2.2052   -2.7405   C.3       1 RES1   0.0000
   264 C98      -0.7552   -2.5683   -2.1547   C.2       1 RES1   0.0000
   265 O9       -1.1787   -1.4733   -1.7256   O.2       1 RES1   0.0000
   266 N6       -1.3766   -3.3460   -3.0294   N.am      1 RES1   0.0000
   267 C99      -2.5989   -2.9013   -3.7068   C.3       1 RES1   0.0000
   268 C100     -2.3630   -2.7888   -5.2261   C.3       1 RES1   0.0000
   269 C101     -3.2470   -1.8056   -6.0013   C.3       1 RES1   0.0000
   270 C102     -4.6781   -2.2550   -6.2941   C.3       1 RES1   0.0000
   271 C103     -5.6294   -2.1825   -5.1036   C.3       1 RES1   0.0000
   272 C104     -5.9106   -0.7636   -4.6131   C.3       1 RES1   0.0000
   273 C105     -6.6436   -0.7687   -3.2747   C.3       1 RES1   0.0000
   274 C106     -6.8208    0.6356   -2.7201   C.3       1 RES1   0.0000
   275 C107     -0.7936   -4.5946   -3.5290   C.3       1 RES1   0.0000
   276 C108     -0.8252   -5.7908   -2.5656   C.3       1 RES1   0.0000
   277 C109      0.1605   -6.8913   -2.9920   C.3       1 RES1   0.0000
   278 C110      1.6378   -6.6913   -2.6206   C.3       1 RES1   0.0000
   279 C111      2.4783   -5.7047   -3.4419   C.3       1 RES1   0.0000
   280 C112      2.4522   -5.9499   -4.9487   C.3       1 RES1   0.0000
   281 C113      3.5064   -5.1422   -5.7118   C.3       1 RES1   0.0000
   282 C114      3.3183   -3.6288   -5.6530   C.3       1 RES1   0.0000
   283 H153     -9.5283   -4.6907    2.6861   H         1 RES1   0.0000
   284 H154     -8.7571   -3.1674    2.2658   H         1 RES1   0.0000
   285 H155     -7.7855   -4.6371    2.4594   H         1 RES1   0.0000
   286 H156     -9.3576   -3.2066    4.6497   H         1 RES1   0.0000
   287 H157     -8.4622   -4.7006    4.8928   H         1 RES1   0.0000
   288 H158     -7.1616   -2.1135    3.9528   H         1 RES1   0.0000
   289 H159     -7.3577   -2.5203    5.6508   H         1 RES1   0.0000
   290 H160     -5.9745   -4.5248    5.3943   H         1 RES1   0.0000
   291 H161     -5.7656   -4.2090    3.6722   H         1 RES1   0.0000
   292 H162     -4.7368   -1.9837    4.2545   H         1 RES1   0.0000
   293 H163     -4.9543   -2.3696    5.9552   H         1 RES1   0.0000
   294 H164     -2.7619   -2.9080    5.7588   H         1 RES1   0.0000
   295 H165     -3.4560   -4.4795    5.3979   H         1 RES1   0.0000
   296 H166     -2.7243   -4.4339    3.1966   H         1 RES1   0.0000
   297 H167     -2.9768   -2.7026    3.0165   H         1 RES1   0.0000
   298 H168     -0.9026   -2.1334    3.9309   H         1 RES1   0.0000
   299 H169     -0.7539   -3.6447    4.8316   H         1 RES1   0.0000
   300 H170      1.2395   -5.0862    3.3839   H         1 RES1   0.0000
   301 H171     -0.3637   -5.4445    3.9986   H         1 RES1   0.0000
   302 H172      0.5031   -6.0838    1.1521   H         1 RES1   0.0000
   303 H173      0.4126   -7.1452    2.5338   H         1 RES1   0.0000
   304 H174     -2.0224   -6.7264    2.7374   H         1 RES1   0.0000
   305 H175     -1.9687   -5.7218    1.2816   H         1 RES1   0.0000
   306 H176     -1.3650   -7.6040   -0.0962   H         1 RES1   0.0000
   307 H177     -0.9209   -8.5741    1.3043   H         1 RES1   0.0000
   308 H178     -3.0435   -9.3076    0.3004   H         1 RES1   0.0000
   309 H179     -3.2259   -8.8257    1.9847   H         1 RES1   0.0000
   310 H180     -4.2123   -6.6900    1.3269   H         1 RES1   0.0000
   311 H181     -3.8204   -6.9942   -0.3682   H         1 RES1   0.0000
   312 H182     -6.1635   -7.3710   -0.0593   H         1 RES1   0.0000
   313 H183     -5.3997   -8.9290   -0.3608   H         1 RES1   0.0000
   314 H184     -6.1799   -7.8848    2.4068   H         1 RES1   0.0000
   315 H185     -7.1229   -9.0161    1.4404   H         1 RES1   0.0000
   316 H186     -5.5441   -9.4925    2.0442   H         1 RES1   0.0000
   317 H187      0.3394   -4.3623    0.2047   H         1 RES1   0.0000
   318 H188      2.8097   -2.9879    1.3798   H         1 RES1   0.0000
   319 H189      2.3628   -4.6715    1.6897   H         1 RES1   0.0000
   320 H190      2.8417   -4.1824    0.0735   H         1 RES1   0.0000
   321 H191      0.8688   -4.0179   -1.7671   H         1 RES1   0.0000
   322 H192      1.1202   -2.2573   -3.7346   H         1 RES1   0.0000
   323 H193      1.6158   -1.1622   -2.4329   H         1 RES1   0.0000
   324 H194      2.5482   -2.6411   -2.7836   H         1 RES1   0.0000
   325 H195     -3.3848   -3.6315   -3.4968   H         1 RES1   0.0000
   326 H196     -2.8753   -1.9350   -3.2782   H         1 RES1   0.0000
   327 H197     -1.3256   -2.4694   -5.3703   H         1 RES1   0.0000
   328 H198     -2.4769   -3.7715   -5.6881   H         1 RES1   0.0000
   329 H199     -3.2539   -0.8425   -5.4945   H         1 RES1   0.0000
   330 H200     -2.7541   -1.6636   -6.9644   H         1 RES1   0.0000
   331 H201     -5.0720   -1.6230   -7.0902   H         1 RES1   0.0000
   332 H202     -4.6631   -3.2773   -6.6757   H         1 RES1   0.0000
   333 H203     -6.5751   -2.6530   -5.3800   H         1 RES1   0.0000
   334 H204     -5.2101   -2.7578   -4.2816   H         1 RES1   0.0000
   335 H205     -4.9703   -0.2216   -4.4888   H         1 RES1   0.0000
   336 H206     -6.5071   -0.2312   -5.3550   H         1 RES1   0.0000
   337 H207     -7.6202   -1.2391   -3.3969   H         1 RES1   0.0000
   338 H208     -6.0722   -1.3655   -2.5594   H         1 RES1   0.0000
   339 H209     -7.3548    1.2582   -3.4307   H         1 RES1   0.0000
   340 H210     -7.3882    0.6092   -1.7943   H         1 RES1   0.0000
   341 H211     -5.8529    1.0919   -2.5184   H         1 RES1   0.0000
   342 H212     -1.3616   -4.8791   -4.4104   H         1 RES1   0.0000
   343 H213      0.2270   -4.4102   -3.8587   H         1 RES1   0.0000
   344 H214     -0.6183   -5.4839   -1.5371   H         1 RES1   0.0000
   345 H215     -1.8343   -6.2112   -2.5689   H         1 RES1   0.0000
   346 H216     -0.1568   -7.8122   -2.4990   H         1 RES1   0.0000
   347 H217      0.0694   -7.0629   -4.0641   H         1 RES1   0.0000
   348 H218      1.7025   -6.4157   -1.5621   H         1 RES1   0.0000
   349 H219      2.1175   -7.6659   -2.7145   H         1 RES1   0.0000
   350 H220      2.1727   -4.6804   -3.2455   H         1 RES1   0.0000
   351 H221      3.5116   -5.7977   -3.0978   H         1 RES1   0.0000
   352 H222      2.6383   -7.0073   -5.1346   H         1 RES1   0.0000
   353 H223      1.4670   -5.7121   -5.3543   H         1 RES1   0.0000
   354 H224      4.4981   -5.3892   -5.3286   H         1 RES1   0.0000
   355 H225      3.4752   -5.4498   -6.7579   H         1 RES1   0.0000
   356 H226      3.5593   -3.2369   -4.6678   H         1 RES1   0.0000
   357 H227      3.9826   -3.1495   -6.3667   H         1 RES1   0.0000
   358 H228      2.2971   -3.3512   -5.9077   H         1 RES1   0.0000
@<TRIPOS>BOND
     1     1    20    1
     2     1    23    1
     3     1    27    1
     4     1   139    1
     5     1   142    1
     6     1   146    1
     7     1   258    1
     8     1   261    1
     9     1   265    1
    10     2     3    1
    11     2    45    1
    12     2    46    1
    13     2    47    1
    14     3     4    1
    15     3    48    1
    16     3    49    1
    17     4     5    1
    18     4    50    1
    19     4    51    1
    20     5     6    1
    21     5    52    1
    22     5    53    1
    23     6     7    1
    24     6    54    1
    25     6    55    1
    26     7     8    1
    27     7    56    1
    28     7    57    1
    29     8     9    1
    30     8    58    1
    31     8    59    1
    32     9    10    1
    33     9    60    1
    34     9    61    1
    35    10    11    1
    36    10    19    1
    37    11    12    1
    38    11    62    1
    39    11    63    1
    40    12    13    1
    41    12    64    1
    42    12    65    1
    43    13    14    1
    44    13    66    1
    45    13    67    1
    46    14    15    1
    47    14    68    1
    48    14    69    1
    49    15    16    1
    50    15    70    1
    51    15    71    1
    52    16    17    1
    53    16    72    1
    54    16    73    1
    55    17    18    1
    56    17    74    1
    57    17    75    1
    58    18    76    1
    59    18    77    1
    60    18    78    1
    61    19    20    2
    62    19    21    1
    63    21    22    1
    64    21    23    1
    65    21    79    1
    66    22    80    1
    67    22    81    1
    68    22    82    1
    69    23    24    1
    70    24    25    1
    71    24    26    1
    72    24    83    1
    73    25    84    1
    74    25    85    1
    75    25    86    1
    76    26    27    2
    77    26    28    1
    78    28    29    1
    79    28    37    1
    80    29    30    1
    81    29    87    1
    82    29    88    1
    83    30    31    1
    84    30    89    1
    85    30    90    1
    86    31    32    1
    87    31    91    1
    88    31    92    1
    89    32    33    1
    90    32    93    1
    91    32    94    1
    92    33    34    1
    93    33    95    1
    94    33    96    1
    95    34    35    1
    96    34    97    1
    97    34    98    1
    98    35    36    1
    99    35    99    1
   100    35   100    1
   101    36   101    1
   102    36   102    1
   103    36   103    1
   104    37    38    1
   105    37   104    1
   106    37   105    1
   107    38    39    1
   108    38   106    1
   109    38   107    1
   110    39    40    1
   111    39   108    1
   112    39   109    1
   113    40    41    1
   114    40   110    1
   115    40   111    1
   116    41    42    1
   117    41   112    1
   118    41   113    1
   119    42    43    1
   120    42   114    1
   121    42   115    1
   122    43    44    1
   123    43   116    1
   124    43   117    1
   125    44   118    1
   126    44   119    1
   127    44   120    1
   128   121   122    1
   129   121   164    1
   130   121   165    1
   131   121   166    1
   132   122   123    1
   133   122   167    1
   134   122   168    1
   135   123   124    1
   136   123   169    1
   137   123   170    1
   138   124   125    1
   139   124   171    1
   140   124   172    1
   141   125   126    1
   142   125   173    1
   143   125   174    1
   144   126   127    1
   145   126   175    1
   146   126   176    1
   147   127   128    1
   148   127   177    1
   149   127   178    1
   150   128   129    1
   151   128   179    1
   152   128   180    1
   153   129   130    1
   154   129   138    1
   155   130   131    1
   156   130   181    1
   157   130   182    1
   158   131   132    1
   159   131   183    1
   160   131   184    1
   161   132   133    1
   162   132   185    1
   163   132   186    1
   164   133   134    1
   165   133   187    1
   166   133   188    1
   167   134   135    1
   168   134   189    1
   169   134   190    1
   170   135   136    1
   171   135   191    1
   172   135   192    1
   173   136   137    1
   174   136   193    1
   175   136   194    1
   176   137   195    1
   177   137   196    1
   178   137   197    1
   179   138   139    2
   180   138   140    1
   181   140   141    1
   182   140   142    1
   183   140   198    1
   184   141   199    1
   185   141   200    1
   186   141   201    1
   187   142   143    1
   188   143   144    1
   189   143   145    1
   190   143   202    1
   191   144   203    1
   192   144   204    1
   193   144   205    1
   194   145   146    2
   195   145   147    1
   196   147   148    1
   197   147   156    1
   198   148   149    1
   199   148   206    1
   200   148   207    1
   201   149   150    1
   202   149   208    1
   203   149   209    1
   204   150   151    1
   205   150   210    1
   206   150   211    1
   207   151   152    1
   208   151   212    1
   209   151   213    1
   210   152   153    1
   211   152   214    1
   212   152   215    1
   213   153   154    1
   214   153   216    1
   215   153   217    1
   216   154   155    1
   217   154   218    1
   218   154   219    1
   219   155   220    1
   220   155   221    1
   221   155   222    1
   222   156   157    1
   223   156   223    1
   224   156   224    1
   225   157   158    1
   226   157   225    1
   227   157   226    1
   228   158   159    1
   229   158   227    1
   230   158   228    1
   231   159   160    1
   232   159   229    1
   233   159   230    1
   234   160   161    1
   235   160   231    1
   236   160   232    1
   237   161   162    1
   238   161   233    1
   239   161   234    1
   240   162   163    1
   241   162   235    1
   242   162   236    1
   243   163   237    1
   244   163   238    1
   245   163   239    1
   246   240   241    1
   247   240   283    1
   248   240   284    1
   249   240   285    1
   250   241   242    1
   251   241   286    1
   252   241   287    1
   253   242   243    1
   254   242   288    1
   255   242   289    1
   256   243   244    1
   257   243   290    1
   258   243   291    1
   259   244   245    1
   260   244   292    1
   261   244   293    1
   262   245   246    1
   263   245   294    1
   264   245   295    1
   265   246   247    1
   266   246   296    1
   267   246   297    1
   268   247   248    1
   269   247   298    1
   270   247   299    1
   271   248   249    1
   272   248   257    1
   273   249   250    1
   274   249   300    1
   275   249   301    1
   276   250   251    1
   277   250   302    1
   278   250   303    1
   279   251   252    1
   280   251   304    1
   281   251   305    1
   282   252   253    1
   283   252   306    1
   284   252   307    1
   285   253   254    1
   286   253   308    1
   287   253   309    1
   288   254   255    1
   289   254   310    1
   290   254   311    1
   291   255   256    1
   292   255   312    1
   293   255   313    1
   294   256   314    1
   295   256   315    1
   296   256   316    1
   297   257   258    2
   298   257   259    1
   299   259   260    1
   300   259   261    1
   301   259   317    1
   302   260   318    1
   303   260   319    1
   304   260   320    1
   305   261   262    1
   306   262   263    1
   307   262   264    1
   308   262   321    1
   309   263   322    1
   310   263   323    1
   311   263   324    1
   312   264   265    2
   313   264   266    1
   314   266   267    1
   315   266   275    1
   316   267   268    1
   317   267   325    1
   318   267   326    1
   319   268   269    1
   320   268   327    1
   321   268   328    1
   322   269   270    1
   323   269   329    1
   324   269   330    1
   325   270   271    1
   326   270   331    1
   327   270   332    1
   328   271   272    1
   329   271   333    1
   330   271   334    1
   331   272   273    1
   332   272   335    1
   333   272   336    1
   334   273   274    1
   335   273   337    1
   336   273   338    1
   337   274   339    1
   338   274   340    1
   339   274   341    1
   340   275   276    1
   341   275   342    1
   342   275   343    1
   343   276   277    1
   344   276   344    1
   345   276   345    1
   346   277   278    1
   347   277   346    1
   348   277   347    1
   349   278   279    1
   350   278   348    1
   351   278   349    1
   352   279   280    1
   353   279   350    1
   354   279   351    1
   355   280   281    1
   356   280   352    1
   357   280   353    1
   358   281   282    1
   359   281   354    1
   360   281   355    1
   361   282   356    1
   362   282   357    1
   363   282   358    1
@<TRIPOS>SUBSTRUCTURE
     1 RES1      358 GROUP             0 ****  ****    0  
