@<TRIPOS>MOLECULE
cn9_YICLED_0_nunpairedes_0_charge_3 Charge: 3 Unpaired_Electrons: 6 XTB_Unpaired_Electrons: 0 XTB_Charge: 3
   190   198     1     0     0
SMALL
NoCharges
****
Generated from Architector

@<TRIPOS>ATOM
     1 Eu1      -0.0009    0.1845    0.0276   Eu        1 RES1   0.0000
     2 C1       -0.4523    5.5472    0.4794   C.3       1 RES1   0.0000
     3 C2       -1.4042    6.2941    1.4176   C.3       1 RES1   0.0000
     4 C3       -1.0264    6.1833    2.8986   C.3       1 RES1   0.0000
     5 C4       -1.0875    4.7546    3.4500   C.3       1 RES1   0.0000
     6 C5       -2.5088    4.2566    3.7312   C.3       1 RES1   0.0000
     7 C6       -2.5684    2.7986    4.2304   C.3       1 RES1   0.0000
     8 N1       -2.6815    1.8086    3.1650   N.am      1 RES1   0.0000
     9 C7       -4.0279    1.4494    2.7078   C.3       1 RES1   0.0000
    10 C8       -4.3739   -0.0004    3.0620   C.3       1 RES1   0.0000
    11 C9       -5.8341   -0.3115    2.7335   C.3       1 RES1   0.0000
    12 C10      -6.2464   -1.7368    3.1162   C.3       1 RES1   0.0000
    13 C11      -5.5181   -2.8606    2.3703   C.3       1 RES1   0.0000
    14 C12      -5.7596   -2.8500    0.8623   C.3       1 RES1   0.0000
    15 C13      -1.6442    1.2056    2.6084   C.2       1 RES1   0.0000
    16 O1       -1.7466    0.4221    1.6433   O.2       1 RES1   0.0000
    17 C14      -0.2503    1.4523    3.1921   C.3       1 RES1   0.0000
    18 O2        0.7091    0.7681    2.3934   O.3       1 RES1   0.0000
    19 C15       1.3460   -0.3274    3.0287   C.3       1 RES1   0.0000
    20 C16       0.8150   -1.6687    2.5128   C.2       1 RES1   0.0000
    21 O3        0.2433   -1.7323    1.3969   O.2       1 RES1   0.0000
    22 N2        1.0400   -2.7289    3.2645   N.am      1 RES1   0.0000
    23 C17       1.7479   -2.7709    4.5412   C.3       1 RES1   0.0000
    24 C18       1.3733   -4.1297    5.1309   C.3       1 RES1   0.0000
    25 C19       1.2729   -5.0019    3.8837   C.3       1 RES1   0.0000
    26 C20       0.5583   -4.0667    2.9125   C.3       1 RES1   0.0000
    27 H1       -0.7286    5.7385   -0.5557   H         1 RES1   0.0000
    28 H2        0.5647    5.9038    0.6286   H         1 RES1   0.0000
    29 H3       -0.4643    4.4646    0.6333   H         1 RES1   0.0000
    30 H4       -1.3807    7.3521    1.1506   H         1 RES1   0.0000
    31 H5       -2.4287    5.9457    1.2670   H         1 RES1   0.0000
    32 H6       -0.0061    6.5532    3.0170   H         1 RES1   0.0000
    33 H7       -1.6804    6.8295    3.4857   H         1 RES1   0.0000
    34 H8       -0.6025    4.1095    2.7150   H         1 RES1   0.0000
    35 H9       -0.5177    4.7200    4.3813   H         1 RES1   0.0000
    36 H10      -2.9445    4.8928    4.5027   H         1 RES1   0.0000
    37 H11      -3.1217    4.3770    2.8384   H         1 RES1   0.0000
    38 H12      -1.6912    2.5991    4.8452   H         1 RES1   0.0000
    39 H13      -3.4392    2.6755    4.8720   H         1 RES1   0.0000
    40 H14      -4.7381    2.1345    3.1736   H         1 RES1   0.0000
    41 H15      -4.0735    1.5814    1.6240   H         1 RES1   0.0000
    42 H16      -3.7139   -0.6653    2.5021   H         1 RES1   0.0000
    43 H17      -4.2038   -0.1657    4.1279   H         1 RES1   0.0000
    44 H18      -6.4758    0.3805    3.2824   H         1 RES1   0.0000
    45 H19      -6.0168   -0.1535    1.6680   H         1 RES1   0.0000
    46 H20      -6.0888   -1.8758    4.1876   H         1 RES1   0.0000
    47 H21      -7.3165   -1.8396    2.9302   H         1 RES1   0.0000
    48 H22      -4.4432   -2.8136    2.5699   H         1 RES1   0.0000
    49 H23      -5.8798   -3.8114    2.7695   H         1 RES1   0.0000
    50 H24      -5.3626   -1.9443    0.4024   H         1 RES1   0.0000
    51 H25      -5.2749   -3.7091    0.4023   H         1 RES1   0.0000
    52 H26      -6.8252   -2.9068    0.6545   H         1 RES1   0.0000
    53 H27       0.0032    2.5187    3.1579   H         1 RES1   0.0000
    54 H28      -0.2312    1.1165    4.2396   H         1 RES1   0.0000
    55 H29       2.4013   -0.2637    2.7358   H         1 RES1   0.0000
    56 H30       1.2533   -0.2445    4.1152   H         1 RES1   0.0000
    57 H31       2.8275   -2.7191    4.3712   H         1 RES1   0.0000
    58 H32       1.4626   -1.9553    5.2007   H         1 RES1   0.0000
    59 H33       2.1073   -4.4915    5.8460   H         1 RES1   0.0000
    60 H34       0.4041   -4.0769    5.6275   H         1 RES1   0.0000
    61 H35       2.2688   -5.2692    3.5254   H         1 RES1   0.0000
    62 H36       0.7090   -5.9146    4.0555   H         1 RES1   0.0000
    63 H37       0.7613   -4.2719    1.8624   H         1 RES1   0.0000
    64 H38      -0.5229   -4.0982    3.0765   H         1 RES1   0.0000
    65 C21       5.0895   -2.5459   -3.2266   C.3       1 RES1   0.0000
    66 C22       4.6722   -2.2881   -4.6730   C.3       1 RES1   0.0000
    67 C23       3.5999   -3.2234   -5.2587   C.3       1 RES1   0.0000
    68 C24       2.1228   -3.0991   -4.8283   C.3       1 RES1   0.0000
    69 C25       1.5426   -1.7067   -5.0796   C.3       1 RES1   0.0000
    70 C26       0.0131   -1.4592   -5.0529   C.3       1 RES1   0.0000
    71 N3       -0.8560   -2.0027   -3.9924   N.am      1 RES1   0.0000
    72 C27      -1.8882   -2.9148   -4.5008   C.3       1 RES1   0.0000
    73 C28      -1.4102   -4.3004   -4.9233   C.3       1 RES1   0.0000
    74 C29      -1.3414   -5.3067   -3.7773   C.3       1 RES1   0.0000
    75 C30      -0.1726   -5.1136   -2.8107   C.3       1 RES1   0.0000
    76 C31      -0.3294   -6.0593   -1.6173   C.3       1 RES1   0.0000
    77 C32       0.8129   -5.9549   -0.6127   C.3       1 RES1   0.0000
    78 C33      -1.0947   -1.2766   -2.8978   C.2       1 RES1   0.0000
    79 O4       -0.6399   -0.1458   -2.6684   O.2       1 RES1   0.0000
    80 C34      -1.9167   -1.9069   -1.7481   C.3       1 RES1   0.0000
    81 O5       -2.0794   -0.9210   -0.7415   O.3       1 RES1   0.0000
    82 C35      -3.1460   -0.0091   -1.0002   C.3       1 RES1   0.0000
    83 C36      -2.6718    1.4346   -0.8101   C.2       1 RES1   0.0000
    84 O6       -1.4723    1.7193   -0.6185   O.2       1 RES1   0.0000
    85 N4       -3.6184    2.3499   -0.7810   N.am      1 RES1   0.0000
    86 C37      -5.0278    2.1622   -1.0924   C.3       1 RES1   0.0000
    87 C38      -5.6093    3.5734   -0.9833   C.3       1 RES1   0.0000
    88 C39      -4.7250    4.2117    0.0859   C.3       1 RES1   0.0000
    89 C40      -3.3497    3.7142   -0.3383   C.3       1 RES1   0.0000
    90 H39       5.9798   -1.9651   -2.9914   H         1 RES1   0.0000
    91 H40       4.3117   -2.2541   -2.5239   H         1 RES1   0.0000
    92 H41       5.3288   -3.5973   -3.0862   H         1 RES1   0.0000
    93 H42       4.3763   -1.2433   -4.7836   H         1 RES1   0.0000
    94 H43       5.5658   -2.4309   -5.2842   H         1 RES1   0.0000
    95 H44       3.6281   -3.0811   -6.3392   H         1 RES1   0.0000
    96 H45       3.9158   -4.2502   -5.0629   H         1 RES1   0.0000
    97 H46       1.5808   -3.8413   -5.4160   H         1 RES1   0.0000
    98 H47       2.0123   -3.3677   -3.7771   H         1 RES1   0.0000
    99 H48       2.0448   -1.0327   -4.3955   H         1 RES1   0.0000
   100 H49       1.8365   -1.4069   -6.0889   H         1 RES1   0.0000
   101 H50      -0.1328   -0.3765   -5.0196   H         1 RES1   0.0000
   102 H51      -0.3868   -1.8298   -5.9941   H         1 RES1   0.0000
   103 H52      -2.6907   -3.0356   -3.7758   H         1 RES1   0.0000
   104 H53      -2.3217   -2.4066   -5.3681   H         1 RES1   0.0000
   105 H54      -2.1330   -4.6744   -5.6473   H         1 RES1   0.0000
   106 H55      -0.4522   -4.2379   -5.4336   H         1 RES1   0.0000
   107 H56      -2.2797   -5.2667   -3.2185   H         1 RES1   0.0000
   108 H57      -1.2638   -6.3084   -4.2014   H         1 RES1   0.0000
   109 H58       0.7636   -5.3382   -3.3268   H         1 RES1   0.0000
   110 H59      -0.1240   -4.0729   -2.4649   H         1 RES1   0.0000
   111 H60      -1.2759   -5.8515   -1.1094   H         1 RES1   0.0000
   112 H61      -0.3732   -7.0826   -1.9932   H         1 RES1   0.0000
   113 H62       0.8860   -4.9380   -0.2174   H         1 RES1   0.0000
   114 H63       0.6379   -6.6390    0.2140   H         1 RES1   0.0000
   115 H64       1.7573   -6.2189   -1.0833   H         1 RES1   0.0000
   116 H65      -2.8996   -2.2919   -2.0265   H         1 RES1   0.0000
   117 H66      -1.3246   -2.7201   -1.3063   H         1 RES1   0.0000
   118 H67      -3.5648   -0.1274   -2.0070   H         1 RES1   0.0000
   119 H68      -3.9351   -0.1945   -0.2559   H         1 RES1   0.0000
   120 H69      -5.1445    1.7318   -2.0868   H         1 RES1   0.0000
   121 H70      -5.5026    1.4947   -0.3661   H         1 RES1   0.0000
   122 H71      -5.4834    4.1045   -1.9265   H         1 RES1   0.0000
   123 H72      -6.6616    3.5686   -0.7154   H         1 RES1   0.0000
   124 H73      -4.7851    5.2958    0.0973   H         1 RES1   0.0000
   125 H74      -4.9922    3.8324    1.0747   H         1 RES1   0.0000
   126 H75      -2.9514    4.3047   -1.1679   H         1 RES1   0.0000
   127 H76      -2.6009    3.6761    0.4512   H         1 RES1   0.0000
   128 C41      -1.9824    3.3879   -3.8059   C.3       1 RES1   0.0000
   129 C42      -1.0671    4.1136   -4.7916   C.3       1 RES1   0.0000
   130 C43      -0.2291    3.1627   -5.6515   C.3       1 RES1   0.0000
   131 C44       0.8539    2.3897   -4.8831   C.3       1 RES1   0.0000
   132 C45       2.1023    3.2326   -4.6090   C.3       1 RES1   0.0000
   133 C46       3.0903    2.5373   -3.6581   C.3       1 RES1   0.0000
   134 N5        2.5810    2.5408   -2.2956   N.am      1 RES1   0.0000
   135 C47       2.6264    3.8376   -1.6178   C.3       1 RES1   0.0000
   136 C48       3.6679    3.8108   -0.4980   C.3       1 RES1   0.0000
   137 C49       3.8686    5.1997    0.1057   C.3       1 RES1   0.0000
   138 C50       4.9745    5.2180    1.1640   C.3       1 RES1   0.0000
   139 C51       4.7502    4.2683    2.3455   C.3       1 RES1   0.0000
   140 C52       3.4505    4.5380    3.1012   C.3       1 RES1   0.0000
   141 C53       2.0255    1.5312   -1.6454   C.2       1 RES1   0.0000
   142 O7        1.4238    1.6924   -0.5644   O.2       1 RES1   0.0000
   143 C54       2.1596    0.1264   -2.2603   C.3       1 RES1   0.0000
   144 O8        1.3593   -0.8560   -1.5783   O.3       1 RES1   0.0000
   145 C55       2.0369   -1.9985   -1.0812   C.3       1 RES1   0.0000
   146 C56       2.8893   -1.5450    0.0974   C.2       1 RES1   0.0000
   147 O9        2.6512   -0.4163    0.5500   O.2       1 RES1   0.0000
   148 N6        3.8211   -2.3504    0.5675   N.am      1 RES1   0.0000
   149 C57       4.0940   -3.7273    0.1738   C.3       1 RES1   0.0000
   150 C58       5.3819   -4.0636    0.9261   C.3       1 RES1   0.0000
   151 C59       5.2276   -3.2523    2.2092   C.3       1 RES1   0.0000
   152 C60       4.6970   -1.9373    1.6593   C.3       1 RES1   0.0000
   153 H77      -2.6299    4.1141   -3.3183   H         1 RES1   0.0000
   154 H78      -2.6129    2.6744   -4.3349   H         1 RES1   0.0000
   155 H79      -1.4112    2.8559   -3.0433   H         1 RES1   0.0000
   156 H80      -1.6885    4.7137   -5.4601   H         1 RES1   0.0000
   157 H81      -0.4181    4.8028   -4.2470   H         1 RES1   0.0000
   158 H82      -0.9086    2.4480   -6.1221   H         1 RES1   0.0000
   159 H83       0.2429    3.7343   -6.4522   H         1 RES1   0.0000
   160 H84       0.4311    2.0330   -3.9385   H         1 RES1   0.0000
   161 H85       1.1457    1.5226   -5.4833   H         1 RES1   0.0000
   162 H86       2.6131    3.4391   -5.5512   H         1 RES1   0.0000
   163 H87       1.7990    4.1917   -4.1899   H         1 RES1   0.0000
   164 H88       3.2877    1.5288   -4.0143   H         1 RES1   0.0000
   165 H89       4.0402    3.0739   -3.6637   H         1 RES1   0.0000
   166 H90       2.8844    4.5982   -2.3543   H         1 RES1   0.0000
   167 H91       1.6374    4.0544   -1.2067   H         1 RES1   0.0000
   168 H92       3.3327    3.1114    0.2706   H         1 RES1   0.0000
   169 H93       4.6214    3.4559   -0.8974   H         1 RES1   0.0000
   170 H94       4.1415    5.9039   -0.6835   H         1 RES1   0.0000
   171 H95       2.9313    5.5469    0.5428   H         1 RES1   0.0000
   172 H96       5.9253    4.9616    0.6914   H         1 RES1   0.0000
   173 H97       5.0658    6.2360    1.5449   H         1 RES1   0.0000
   174 H98       4.7638    3.2306    1.9991   H         1 RES1   0.0000
   175 H99       5.5889    4.3894    3.0352   H         1 RES1   0.0000
   176 H100      2.5814    4.3569    2.4693   H         1 RES1   0.0000
   177 H101      3.3853    3.8869    3.9714   H         1 RES1   0.0000
   178 H102      3.4278    5.5701    3.4429   H         1 RES1   0.0000
   179 H103      1.7578    0.2084   -3.2751   H         1 RES1   0.0000
   180 H104      3.2135   -0.1653   -2.2631   H         1 RES1   0.0000
   181 H105      1.2579   -2.6829   -0.7179   H         1 RES1   0.0000
   182 H106      2.6120   -2.4816   -1.8751   H         1 RES1   0.0000
   183 H107      3.2779   -4.3769    0.5021   H         1 RES1   0.0000
   184 H108      4.2113   -3.8327   -0.9022   H         1 RES1   0.0000
   185 H109      5.4994   -5.1278    1.1059   H         1 RES1   0.0000
   186 H110      6.2486   -3.7092    0.3684   H         1 RES1   0.0000
   187 H111      4.4998   -3.7279    2.8703   H         1 RES1   0.0000
   188 H112      6.1607   -3.1299    2.7500   H         1 RES1   0.0000
   189 H113      4.1397   -1.3411    2.3789   H         1 RES1   0.0000
   190 H114      5.5121   -1.3280    1.2565   H         1 RES1   0.0000
@<TRIPOS>BOND
     1     1    16    1
     2     1    18    1
     3     1    21    1
     4     1    79    1
     5     1    81    1
     6     1    84    1
     7     1   142    1
     8     1   144    1
     9     1   147    1
    10     2     3    1
    11     2    27    1
    12     2    28    1
    13     2    29    1
    14     3     4    1
    15     3    30    1
    16     3    31    1
    17     4     5    1
    18     4    32    1
    19     4    33    1
    20     5     6    1
    21     5    34    1
    22     5    35    1
    23     6     7    1
    24     6    36    1
    25     6    37    1
    26     7     8    1
    27     7    38    1
    28     7    39    1
    29     8     9    1
    30     8    15    1
    31     9    10    1
    32     9    40    1
    33     9    41    1
    34    10    11    1
    35    10    42    1
    36    10    43    1
    37    11    12    1
    38    11    44    1
    39    11    45    1
    40    12    13    1
    41    12    46    1
    42    12    47    1
    43    13    14    1
    44    13    48    1
    45    13    49    1
    46    14    50    1
    47    14    51    1
    48    14    52    1
    49    15    16    2
    50    15    17    1
    51    17    18    1
    52    17    53    1
    53    17    54    1
    54    18    19    1
    55    19    20    1
    56    19    55    1
    57    19    56    1
    58    20    21    2
    59    20    22    1
    60    22    23    1
    61    22    26    1
    62    23    24    1
    63    23    57    1
    64    23    58    1
    65    24    25    1
    66    24    59    1
    67    24    60    1
    68    25    26    1
    69    25    61    1
    70    25    62    1
    71    26    63    1
    72    26    64    1
    73    65    66    1
    74    65    90    1
    75    65    91    1
    76    65    92    1
    77    66    67    1
    78    66    93    1
    79    66    94    1
    80    67    68    1
    81    67    95    1
    82    67    96    1
    83    68    69    1
    84    68    97    1
    85    68    98    1
    86    69    70    1
    87    69    99    1
    88    69   100    1
    89    70    71    1
    90    70   101    1
    91    70   102    1
    92    71    72    1
    93    71    78    1
    94    72    73    1
    95    72   103    1
    96    72   104    1
    97    73    74    1
    98    73   105    1
    99    73   106    1
   100    74    75    1
   101    74   107    1
   102    74   108    1
   103    75    76    1
   104    75   109    1
   105    75   110    1
   106    76    77    1
   107    76   111    1
   108    76   112    1
   109    77   113    1
   110    77   114    1
   111    77   115    1
   112    78    79    2
   113    78    80    1
   114    80    81    1
   115    80   116    1
   116    80   117    1
   117    81    82    1
   118    82    83    1
   119    82   118    1
   120    82   119    1
   121    83    84    2
   122    83    85    1
   123    85    86    1
   124    85    89    1
   125    86    87    1
   126    86   120    1
   127    86   121    1
   128    87    88    1
   129    87   122    1
   130    87   123    1
   131    88    89    1
   132    88   124    1
   133    88   125    1
   134    89   126    1
   135    89   127    1
   136   128   129    1
   137   128   153    1
   138   128   154    1
   139   128   155    1
   140   129   130    1
   141   129   156    1
   142   129   157    1
   143   130   131    1
   144   130   158    1
   145   130   159    1
   146   131   132    1
   147   131   160    1
   148   131   161    1
   149   132   133    1
   150   132   162    1
   151   132   163    1
   152   133   134    1
   153   133   164    1
   154   133   165    1
   155   134   135    1
   156   134   141    1
   157   135   136    1
   158   135   166    1
   159   135   167    1
   160   136   137    1
   161   136   168    1
   162   136   169    1
   163   137   138    1
   164   137   170    1
   165   137   171    1
   166   138   139    1
   167   138   172    1
   168   138   173    1
   169   139   140    1
   170   139   174    1
   171   139   175    1
   172   140   176    1
   173   140   177    1
   174   140   178    1
   175   141   142    2
   176   141   143    1
   177   143   144    1
   178   143   179    1
   179   143   180    1
   180   144   145    1
   181   145   146    1
   182   145   181    1
   183   145   182    1
   184   146   147    2
   185   146   148    1
   186   148   149    1
   187   148   152    1
   188   149   150    1
   189   149   183    1
   190   149   184    1
   191   150   151    1
   192   150   185    1
   193   150   186    1
   194   151   152    1
   195   151   187    1
   196   151   188    1
   197   152   189    1
   198   152   190    1
@<TRIPOS>SUBSTRUCTURE
     1 RES1      190 GROUP             0 ****  ****    0  
