@<TRIPOS>MOLECULE
cn9_YICLED_0_nunpairedes_0_charge_3 Charge: 3 Unpaired_Electrons: 6 XTB_Unpaired_Electrons: 0 XTB_Charge: 3
   172   186     1     0     0
SMALL
NoCharges
****
Generated from Architector

@<TRIPOS>ATOM
     1 Eu1       0.0534    0.0378   -0.0329   Eu        1 RES1   0.0000
     2 C1       -0.8804   -3.9420    3.8289   C.3       1 RES1   0.0000
     3 C2       -0.4315   -4.1817    2.3947   C.3       1 RES1   0.0000
     4 N1        0.9389   -3.7054    2.1655   N.am      1 RES1   0.0000
     5 C3        1.0934   -2.5664    1.4775   C.2       1 RES1   0.0000
     6 O1        0.0938   -1.8721    1.2030   O.2       1 RES1   0.0000
     7 C4        2.4085   -2.1451    0.8684   C.ar      1 RES1   0.0000
     8 C5        3.4355   -3.0322    0.5346   C.ar      1 RES1   0.0000
     9 C6        4.5024   -2.5498   -0.2052   C.ar      1 RES1   0.0000
    10 C7        4.4952   -1.2296   -0.6449   C.ar      1 RES1   0.0000
    11 C8        3.4182   -0.4133   -0.3059   C.ar      1 RES1   0.0000
    12 C9        3.0872    0.9664   -0.8495   C.2       1 RES1   0.0000
    13 O2        1.8827    1.1542   -1.1145   O.2       1 RES1   0.0000
    14 N2        3.9929    1.9325   -1.0486   N.am      1 RES1   0.0000
    15 C10       5.4298    1.7083   -1.1473   C.3       1 RES1   0.0000
    16 C11       6.1044    1.5058    0.1965   C.3       1 RES1   0.0000
    17 C12       3.5880    3.3081   -1.1532   C.ar      1 RES1   0.0000
    18 C13       4.1055    4.1414   -2.1398   C.ar      1 RES1   0.0000
    19 C14       3.8213    5.4950   -2.1367   C.ar      1 RES1   0.0000
    20 C15       3.0040    6.0571   -1.1650   C.ar      1 RES1   0.0000
    21 C16       2.7168    7.5208   -1.1531   C.3       1 RES1   0.0000
    22 C17       2.4743    5.2138   -0.1931   C.ar      1 RES1   0.0000
    23 C18       2.7705    3.8623   -0.1736   C.ar      1 RES1   0.0000
    24 N3        2.4134   -0.8765    0.4500   N.ar      1 RES1   0.0000
    25 C19       1.9606   -4.3549    2.9032   C.ar      1 RES1   0.0000
    26 C20       1.8966   -5.7177    3.1874   C.ar      1 RES1   0.0000
    27 C21       2.8448   -6.3087    4.0011   C.ar      1 RES1   0.0000
    28 C22       3.8998   -5.5709    4.5250   C.ar      1 RES1   0.0000
    29 C23       4.9300   -6.1949    5.3987   C.3       1 RES1   0.0000
    30 C24       3.9669   -4.2116    4.2240   C.ar      1 RES1   0.0000
    31 C25       3.0028   -3.6042    3.4482   C.ar      1 RES1   0.0000
    32 H1       -1.8953   -4.3040    3.9663   H         1 RES1   0.0000
    33 H2       -0.8577   -2.8789    4.0553   H         1 RES1   0.0000
    34 H3       -0.2285   -4.4688    4.5211   H         1 RES1   0.0000
    35 H4       -1.0865   -3.6510    1.7020   H         1 RES1   0.0000
    36 H5       -0.4622   -5.2474    2.1581   H         1 RES1   0.0000
    37 H6        3.4107   -4.0685    0.8345   H         1 RES1   0.0000
    38 H7        5.3183   -3.2049   -0.4828   H         1 RES1   0.0000
    39 H8        5.3126   -0.8808   -1.2516   H         1 RES1   0.0000
    40 H9        5.8573    2.6040   -1.5912   H         1 RES1   0.0000
    41 H10       5.6089    0.8876   -1.8389   H         1 RES1   0.0000
    42 H11       6.0236    2.4218    0.7714   H         1 RES1   0.0000
    43 H12       7.1531    1.2850    0.0319   H         1 RES1   0.0000
    44 H13       5.6666    0.6976    0.7710   H         1 RES1   0.0000
    45 H14       4.7446    3.7417   -2.9124   H         1 RES1   0.0000
    46 H15       4.2521    6.1317   -2.8942   H         1 RES1   0.0000
    47 H16       3.2483    8.0315   -1.9486   H         1 RES1   0.0000
    48 H17       3.0152    7.9749   -0.2102   H         1 RES1   0.0000
    49 H18       1.6535    7.7133   -1.2831   H         1 RES1   0.0000
    50 H19       1.8456    5.6426    0.5741   H         1 RES1   0.0000
    51 H20       2.4021    3.2250    0.6172   H         1 RES1   0.0000
    52 H21       1.1123   -6.3381    2.7866   H         1 RES1   0.0000
    53 H22       2.7533   -7.3597    4.2351   H         1 RES1   0.0000
    54 H23       4.7208   -7.2427    5.5822   H         1 RES1   0.0000
    55 H24       4.9783   -5.6860    6.3590   H         1 RES1   0.0000
    56 H25       5.9171   -6.1180    4.9466   H         1 RES1   0.0000
    57 H26       4.7758   -3.6192    4.6248   H         1 RES1   0.0000
    58 H27       3.0486   -2.5400    3.2731   H         1 RES1   0.0000
    59 C26       2.4661   -1.8298   -4.2770   C.3       1 RES1   0.0000
    60 C27       1.8313   -2.8712   -3.3667   C.3       1 RES1   0.0000
    61 N4        0.3600   -2.7989   -3.3127   N.am      1 RES1   0.0000
    62 C28      -0.1411   -2.1954   -2.2241   C.2       1 RES1   0.0000
    63 O3        0.6350   -1.5075   -1.5185   O.2       1 RES1   0.0000
    64 C29      -1.5217   -2.4064   -1.6658   C.ar      1 RES1   0.0000
    65 C30      -2.3675   -3.4885   -1.9153   C.ar      1 RES1   0.0000
    66 C31      -3.4958   -3.6041   -1.1189   C.ar      1 RES1   0.0000
    67 C32      -3.7607   -2.6774   -0.1124   C.ar      1 RES1   0.0000
    68 C33      -2.8726   -1.6160    0.0711   C.ar      1 RES1   0.0000
    69 C34      -2.8511   -0.4846    1.0905   C.2       1 RES1   0.0000
    70 O4       -1.8437    0.2464    1.0443   O.2       1 RES1   0.0000
    71 N5       -3.7765   -0.2459    2.0261   N.am      1 RES1   0.0000
    72 C35      -5.0378   -0.9510    2.2002   C.3       1 RES1   0.0000
    73 C36      -6.0405   -0.5743    1.1184   C.3       1 RES1   0.0000
    74 C37      -3.5488    0.8639    2.9139   C.ar      1 RES1   0.0000
    75 C38      -3.7389    0.6834    4.2817   C.ar      1 RES1   0.0000
    76 C39      -3.5575    1.7354    5.1553   C.ar      1 RES1   0.0000
    77 C40      -3.1378    2.9779    4.6954   C.ar      1 RES1   0.0000
    78 C41      -2.9013    4.0825    5.6678   C.3       1 RES1   0.0000
    79 C42      -2.9412    3.1486    3.3309   C.ar      1 RES1   0.0000
    80 C43      -3.1564    2.1110    2.4395   C.ar      1 RES1   0.0000
    81 N6       -1.7869   -1.5277   -0.7029   N.ar      1 RES1   0.0000
    82 C44      -0.3530   -3.1294   -4.4932   C.ar      1 RES1   0.0000
    83 C45       0.2547   -3.9289   -5.4602   C.ar      1 RES1   0.0000
    84 C46      -0.3299   -4.1297   -6.6929   C.ar      1 RES1   0.0000
    85 C47      -1.5631   -3.5695   -6.9986   C.ar      1 RES1   0.0000
    86 C48      -2.1872   -3.7627   -8.3347   C.3       1 RES1   0.0000
    87 C49      -2.1912   -2.8025   -6.0188   C.ar      1 RES1   0.0000
    88 C50      -1.5959   -2.5636   -4.7940   C.ar      1 RES1   0.0000
    89 H28       3.5418   -1.9775   -4.3118   H         1 RES1   0.0000
    90 H29       2.2732   -0.8311   -3.8946   H         1 RES1   0.0000
    91 H30       2.0807   -1.9090   -5.2893   H         1 RES1   0.0000
    92 H31       2.1936   -2.7244   -2.3485   H         1 RES1   0.0000
    93 H32       2.1093   -3.8773   -3.6810   H         1 RES1   0.0000
    94 H33      -2.1727   -4.2082   -2.6946   H         1 RES1   0.0000
    95 H34      -4.1782   -4.4269   -1.2713   H         1 RES1   0.0000
    96 H35      -4.6532   -2.8058    0.4776   H         1 RES1   0.0000
    97 H36      -5.4603   -0.6379    3.1534   H         1 RES1   0.0000
    98 H37      -4.8423   -2.0221    2.2616   H         1 RES1   0.0000
    99 H38      -6.2813    0.4796    1.2104   H         1 RES1   0.0000
   100 H39      -6.9551   -1.1423    1.2474   H         1 RES1   0.0000
   101 H40      -5.6554   -0.7482    0.1198   H         1 RES1   0.0000
   102 H41      -4.0218   -0.2801    4.6748   H         1 RES1   0.0000
   103 H42      -3.7440    1.5957    6.2090   H         1 RES1   0.0000
   104 H43      -3.8111    4.3054    6.2195   H         1 RES1   0.0000
   105 H44      -2.5731    4.9929    5.1768   H         1 RES1   0.0000
   106 H45      -2.1529    3.7922    6.4027   H         1 RES1   0.0000
   107 H46      -2.6427    4.1167    2.9537   H         1 RES1   0.0000
   108 H47      -3.0204    2.2764    1.3805   H         1 RES1   0.0000
   109 H48       1.2045   -4.3978   -5.2744   H         1 RES1   0.0000
   110 H49       0.1916   -4.7288   -7.4247   H         1 RES1   0.0000
   111 H50      -1.5442   -4.3378   -8.9926   H         1 RES1   0.0000
   112 H51      -2.3843   -2.8024   -8.8064   H         1 RES1   0.0000
   113 H52      -3.1407   -4.2811   -8.2531   H         1 RES1   0.0000
   114 H53      -3.1573   -2.3710   -6.2349   H         1 RES1   0.0000
   115 H54      -2.0974   -1.9152   -4.0912   H         1 RES1   0.0000
   116 C51      -0.4072    0.5277   -4.9363   C.3       1 RES1   0.0000
   117 C52      -1.5439    1.3300   -4.3233   C.3       1 RES1   0.0000
   118 N7       -1.0191    2.3399   -3.3958   N.am      1 RES1   0.0000
   119 C53      -0.9787    2.0353   -2.1012   C.2       1 RES1   0.0000
   120 O5       -1.3541    0.9187   -1.6904   O.2       1 RES1   0.0000
   121 C54      -0.6126    3.0304   -1.0338   C.ar      1 RES1   0.0000
   122 C55      -0.9573    4.3794   -1.0369   C.ar      1 RES1   0.0000
   123 C56      -0.8736    5.0503    0.1722   C.ar      1 RES1   0.0000
   124 C57      -0.3954    4.4060    1.3108   C.ar      1 RES1   0.0000
   125 C58       0.0707    3.0950    1.1952   C.ar      1 RES1   0.0000
   126 C59       0.7212    2.1620    2.2115   C.2       1 RES1   0.0000
   127 O6        0.6627    0.9564    1.9005   O.2       1 RES1   0.0000
   128 N8        1.3744    2.5725    3.3095   N.am      1 RES1   0.0000
   129 C60       1.6570    3.9889    3.5274   C.3       1 RES1   0.0000
   130 C61       0.7464    4.5986    4.5829   C.3       1 RES1   0.0000
   131 C62       1.9179    1.6600    4.2807   C.ar      1 RES1   0.0000
   132 C63       2.6686    2.1718    5.3444   C.ar      1 RES1   0.0000
   133 C64       3.2568    1.3444    6.2794   C.ar      1 RES1   0.0000
   134 C65       3.1218   -0.0319    6.2111   C.ar      1 RES1   0.0000
   135 C66       3.8061   -0.9128    7.1956   C.3       1 RES1   0.0000
   136 C67       2.3295   -0.5478    5.1929   C.ar      1 RES1   0.0000
   137 C68       1.7414    0.2696    4.2427   C.ar      1 RES1   0.0000
   138 N9       -0.1117    2.4378    0.0452   N.ar      1 RES1   0.0000
   139 C69      -0.1957    3.3150   -4.0265   C.ar      1 RES1   0.0000
   140 C70       1.1606    3.3810   -3.7318   C.ar      1 RES1   0.0000
   141 C71       1.9939    4.1162   -4.5524   C.ar      1 RES1   0.0000
   142 C72       1.5106    4.7904   -5.6662   C.ar      1 RES1   0.0000
   143 C73       2.4423    5.5069   -6.5805   C.3       1 RES1   0.0000
   144 C74       0.1412    4.7575   -5.9203   C.ar      1 RES1   0.0000
   145 C75      -0.7032    4.0349   -5.1026   C.ar      1 RES1   0.0000
   146 H55      -0.7997   -0.2055   -5.6331   H         1 RES1   0.0000
   147 H56       0.1415    0.0158   -4.1498   H         1 RES1   0.0000
   148 H57       0.2721    1.1863   -5.4704   H         1 RES1   0.0000
   149 H58      -2.2126    0.6779   -3.7610   H         1 RES1   0.0000
   150 H59      -2.1056    1.8330   -5.1105   H         1 RES1   0.0000
   151 H60      -1.3194    4.8659   -1.9281   H         1 RES1   0.0000
   152 H61      -1.2070    6.0751    0.2410   H         1 RES1   0.0000
   153 H62      -0.4110    4.9298    2.2530   H         1 RES1   0.0000
   154 H63       1.5559    4.5079    2.5797   H         1 RES1   0.0000
   155 H64       2.7031    4.0847    3.8184   H         1 RES1   0.0000
   156 H65      -0.2913    4.5143    4.2838   H         1 RES1   0.0000
   157 H66       0.9813    5.6460    4.7377   H         1 RES1   0.0000
   158 H67       0.8591    4.0834    5.5289   H         1 RES1   0.0000
   159 H68       2.8185    3.2253    5.4920   H         1 RES1   0.0000
   160 H69       3.8406    1.7811    7.0747   H         1 RES1   0.0000
   161 H70       4.3403   -0.3228    7.9327   H         1 RES1   0.0000
   162 H71       4.5244   -1.5667    6.7041   H         1 RES1   0.0000
   163 H72       3.0881   -1.5433    7.7138   H         1 RES1   0.0000
   164 H73       2.1789   -1.6177    5.1398   H         1 RES1   0.0000
   165 H74       1.1433   -0.2064    3.4848   H         1 RES1   0.0000
   166 H75       1.5583    2.8127   -2.9028   H         1 RES1   0.0000
   167 H76       3.0536    4.1130   -4.3594   H         1 RES1   0.0000
   168 H77       3.4717    5.4097   -6.2498   H         1 RES1   0.0000
   169 H78       2.1961    6.5648   -6.6376   H         1 RES1   0.0000
   170 H79       2.3738    5.1088   -7.5904   H         1 RES1   0.0000
   171 H80      -0.2668    5.2583   -6.7837   H         1 RES1   0.0000
   172 H81      -1.7611    4.0036   -5.3049   H         1 RES1   0.0000
@<TRIPOS>BOND
     1     1     6    1
     2     1    13    1
     3     1    24    1
     4     1    63    1
     5     1    70    1
     6     1    81    1
     7     1   120    1
     8     1   127    1
     9     1   138    1
    10     2     3    1
    11     2    32    1
    12     2    33    1
    13     2    34    1
    14     3     4    1
    15     3    35    1
    16     3    36    1
    17     4     5    1
    18     4    25    1
    19     5     6    2
    20     5     7    1
    21     7     8    1
    22     7    24    2
    23     8     9    2
    24     8    37    1
    25     9    10    1
    26     9    38    1
    27    10    11    2
    28    10    39    1
    29    11    12    1
    30    11    24    1
    31    12    13    2
    32    12    14    1
    33    14    15    1
    34    14    17    1
    35    15    16    1
    36    15    40    1
    37    15    41    1
    38    16    42    1
    39    16    43    1
    40    16    44    1
    41    17    18    1
    42    17    23    2
    43    18    19    2
    44    18    45    1
    45    19    20    1
    46    19    46    1
    47    20    21    1
    48    20    22    2
    49    21    47    1
    50    21    48    1
    51    21    49    1
    52    22    23    1
    53    22    50    1
    54    23    51    1
    55    25    26    1
    56    25    31    2
    57    26    27    2
    58    26    52    1
    59    27    28    1
    60    27    53    1
    61    28    29    1
    62    28    30    2
    63    29    54    1
    64    29    55    1
    65    29    56    1
    66    30    31    1
    67    30    57    1
    68    31    58    1
    69    59    60    1
    70    59    89    1
    71    59    90    1
    72    59    91    1
    73    60    61    1
    74    60    92    1
    75    60    93    1
    76    61    62    1
    77    61    82    1
    78    62    63    2
    79    62    64    1
    80    64    65    1
    81    64    81    2
    82    65    66    2
    83    65    94    1
    84    66    67    1
    85    66    95    1
    86    67    68    2
    87    67    96    1
    88    68    69    1
    89    68    81    1
    90    69    70    2
    91    69    71    1
    92    71    72    1
    93    71    74    1
    94    72    73    1
    95    72    97    1
    96    72    98    1
    97    73    99    1
    98    73   100    1
    99    73   101    1
   100    74    75    1
   101    74    80    2
   102    75    76    2
   103    75   102    1
   104    76    77    1
   105    76   103    1
   106    77    78    1
   107    77    79    2
   108    78   104    1
   109    78   105    1
   110    78   106    1
   111    79    80    1
   112    79   107    1
   113    80   108    1
   114    82    83    1
   115    82    88    2
   116    83    84    2
   117    83   109    1
   118    84    85    1
   119    84   110    1
   120    85    86    1
   121    85    87    2
   122    86   111    1
   123    86   112    1
   124    86   113    1
   125    87    88    1
   126    87   114    1
   127    88   115    1
   128   116   117    1
   129   116   146    1
   130   116   147    1
   131   116   148    1
   132   117   118    1
   133   117   149    1
   134   117   150    1
   135   118   119    1
   136   118   139    1
   137   119   120    2
   138   119   121    1
   139   121   122    1
   140   121   138    2
   141   122   123    2
   142   122   151    1
   143   123   124    1
   144   123   152    1
   145   124   125    2
   146   124   153    1
   147   125   126    1
   148   125   138    1
   149   126   127    2
   150   126   128    1
   151   128   129    1
   152   128   131    1
   153   129   130    1
   154   129   154    1
   155   129   155    1
   156   130   156    1
   157   130   157    1
   158   130   158    1
   159   131   132    1
   160   131   137    2
   161   132   133    2
   162   132   159    1
   163   133   134    1
   164   133   160    1
   165   134   135    1
   166   134   136    2
   167   135   161    1
   168   135   162    1
   169   135   163    1
   170   136   137    1
   171   136   164    1
   172   137   165    1
   173   139   140    1
   174   139   145    2
   175   140   141    2
   176   140   166    1
   177   141   142    1
   178   141   167    1
   179   142   143    1
   180   142   144    2
   181   143   168    1
   182   143   169    1
   183   143   170    1
   184   144   145    1
   185   144   171    1
   186   145   172    1
@<TRIPOS>SUBSTRUCTURE
     1 RES1      172 GROUP             0 ****  ****    0  
