@<TRIPOS>MOLECULE
am_c3_9H2O_c0_0_nunpairedes_0_charge_3 Charge: 3 Unpaired_Electrons: 6 XTB_Unpaired_Electrons: 0 XTB_Charge: 3
   214   219     1     0     0
SMALL
NoCharges
****
Generated from Architector

@<TRIPOS>ATOM
     1 Eu1      -0.0760    0.2970   -0.1026   Eu        1 RES1   0.0000
     2 C1        3.3198    5.3849   -1.4588   C.3       1 RES1   0.0000
     3 C2        3.1779    4.1447   -2.3353   C.3       1 RES1   0.0000
     4 C3        2.4730    4.4107   -3.6708   C.3       1 RES1   0.0000
     5 C4        0.9727    4.1084   -3.6911   C.3       1 RES1   0.0000
     6 C5        0.1197    5.1935   -3.0371   C.3       1 RES1   0.0000
     7 C6       -1.3562    5.1423   -3.4392   C.3       1 RES1   0.0000
     8 C7       -2.1167    3.9537   -2.8393   C.3       1 RES1   0.0000
     9 C8       -2.2876    2.7578   -3.7831   C.3       1 RES1   0.0000
    10 N1       -3.0868    1.7549   -3.0741   N.am      1 RES1   0.0000
    11 C9       -4.4858    1.5736   -3.4283   C.3       1 RES1   0.0000
    12 C10      -4.7455    0.2559   -4.1711   C.3       1 RES1   0.0000
    13 C11      -4.2192    0.2545   -5.6193   C.3       1 RES1   0.0000
    14 C12      -3.0727   -0.7224   -5.8917   C.3       1 RES1   0.0000
    15 C13      -3.5329   -2.1721   -6.0562   C.3       1 RES1   0.0000
    16 C14      -2.3658   -3.0834   -6.4371   C.3       1 RES1   0.0000
    17 C15      -2.7396   -4.5635   -6.4699   C.3       1 RES1   0.0000
    18 C16      -1.5465   -5.4198   -6.8766   C.3       1 RES1   0.0000
    19 C17      -2.5212    1.1743   -2.0285   C.2       1 RES1   0.0000
    20 O1       -1.2876    1.1964   -1.8298   O.2       1 RES1   0.0000
    21 C18      -3.4046    0.5225   -0.9475   C.3       1 RES1   0.0000
    22 O2       -2.5802    0.4089    0.2046   O.3       1 RES1   0.0000
    23 C19      -3.1344    0.8204    1.4410   C.3       1 RES1   0.0000
    24 C20      -2.0037    1.4728    2.2411   C.2       1 RES1   0.0000
    25 O3       -0.8950    1.6372    1.6928   O.2       1 RES1   0.0000
    26 N2       -2.2484    1.8718    3.4815   N.am      1 RES1   0.0000
    27 C21      -1.2465    2.6309    4.2041   C.3       1 RES1   0.0000
    28 C22      -3.5112    1.6973    4.1691   C.3       1 RES1   0.0000
    29 H1        3.8530    5.1460   -0.5380   H         1 RES1   0.0000
    30 H2        2.3523    5.8060   -1.2044   H         1 RES1   0.0000
    31 H3        3.8910    6.1465   -1.9832   H         1 RES1   0.0000
    32 H4        2.6414    3.3595   -1.7943   H         1 RES1   0.0000
    33 H5        4.1836    3.7762   -2.5415   H         1 RES1   0.0000
    34 H6        2.9450    3.7900   -4.4311   H         1 RES1   0.0000
    35 H7        2.6344    5.4474   -3.9644   H         1 RES1   0.0000
    36 H8        0.7877    3.1428   -3.2099   H         1 RES1   0.0000
    37 H9        0.6685    4.0352   -4.7370   H         1 RES1   0.0000
    38 H10       0.5110    6.1684   -3.3322   H         1 RES1   0.0000
    39 H11       0.1870    5.1198   -1.9509   H         1 RES1   0.0000
    40 H12      -1.4356    5.1269   -4.5264   H         1 RES1   0.0000
    41 H13      -1.8323    6.0625   -3.0949   H         1 RES1   0.0000
    42 H14      -3.1158    4.2794   -2.5406   H         1 RES1   0.0000
    43 H15      -1.5858    3.6151   -1.9434   H         1 RES1   0.0000
    44 H16      -1.3237    2.3334   -4.0642   H         1 RES1   0.0000
    45 H17      -2.8108    3.0570   -4.6894   H         1 RES1   0.0000
    46 H18      -4.7890    2.4037   -4.0638   H         1 RES1   0.0000
    47 H19      -5.1109    1.6059   -2.5342   H         1 RES1   0.0000
    48 H20      -5.8233    0.0973   -4.1773   H         1 RES1   0.0000
    49 H21      -4.2984   -0.5660   -3.6096   H         1 RES1   0.0000
    50 H22      -3.8772    1.2548   -5.8812   H         1 RES1   0.0000
    51 H23      -5.0298    0.0052   -6.3031   H         1 RES1   0.0000
    52 H24      -2.3257   -0.6512   -5.0910   H         1 RES1   0.0000
    53 H25      -2.5885   -0.4220   -6.8236   H         1 RES1   0.0000
    54 H26      -4.2835   -2.2155   -6.8456   H         1 RES1   0.0000
    55 H27      -4.0094   -2.5270   -5.1399   H         1 RES1   0.0000
    56 H28      -1.5321   -2.9312   -5.7430   H         1 RES1   0.0000
    57 H29      -2.0121   -2.7986   -7.4293   H         1 RES1   0.0000
    58 H30      -3.5489   -4.7084   -7.1852   H         1 RES1   0.0000
    59 H31      -3.1126   -4.8865   -5.4926   H         1 RES1   0.0000
    60 H32      -1.1931   -5.1222   -7.8599   H         1 RES1   0.0000
    61 H33      -0.7216   -5.3034   -6.1732   H         1 RES1   0.0000
    62 H34      -1.8188   -6.4699   -6.9149   H         1 RES1   0.0000
    63 H35      -3.7473   -0.4709   -1.2598   H         1 RES1   0.0000
    64 H36      -4.2756    1.1569   -0.7338   H         1 RES1   0.0000
    65 H37      -3.5336   -0.0628    1.9605   H         1 RES1   0.0000
    66 H38      -3.9407    1.5535    1.3063   H         1 RES1   0.0000
    67 H39      -0.3994    2.7998    3.5425   H         1 RES1   0.0000
    68 H40      -0.9171    2.0872    5.0919   H         1 RES1   0.0000
    69 H41      -1.6662    3.5877    4.5103   H         1 RES1   0.0000
    70 H42      -3.9757    0.7488    3.9127   H         1 RES1   0.0000
    71 H43      -4.2078    2.5057    3.9350   H         1 RES1   0.0000
    72 H44      -3.3352    1.7054    5.2425   H         1 RES1   0.0000
    73 C23      -0.7961   -6.5839    0.6121   C.3       1 RES1   0.0000
    74 C24       0.0824   -7.4813   -0.2590   C.3       1 RES1   0.0000
    75 C25       1.5774   -7.4513    0.0811   C.3       1 RES1   0.0000
    76 C26       2.1768   -6.0625   -0.1234   C.3       1 RES1   0.0000
    77 C27       3.6845   -5.9414    0.0830   C.3       1 RES1   0.0000
    78 C28       4.1564   -4.4763    0.0836   C.3       1 RES1   0.0000
    79 C29       4.3977   -3.9112   -1.3175   C.3       1 RES1   0.0000
    80 C30       4.7106   -2.3957   -1.3391   C.3       1 RES1   0.0000
    81 N3        3.5643   -1.5876   -1.7380   N.am      1 RES1   0.0000
    82 C31       3.2537   -1.6687   -3.1713   C.3       1 RES1   0.0000
    83 C32       4.1737   -0.7293   -3.9590   C.3       1 RES1   0.0000
    84 C33       3.6574    0.7072   -4.0925   C.3       1 RES1   0.0000
    85 C34       2.7491    0.9146   -5.3060   C.3       1 RES1   0.0000
    86 C35       1.3270    0.3777   -5.1461   C.3       1 RES1   0.0000
    87 C36       0.3724    0.9956   -6.1698   C.3       1 RES1   0.0000
    88 C37       0.7021    0.6727   -7.6289   C.3       1 RES1   0.0000
    89 C38       0.6750   -0.8164   -7.9513   C.3       1 RES1   0.0000
    90 C39       2.8788   -0.7198   -1.0016   C.2       1 RES1   0.0000
    91 O4        1.7981   -0.2261   -1.3905   O.2       1 RES1   0.0000
    92 C40       3.4147   -0.2611    0.3646   C.3       1 RES1   0.0000
    93 O5        2.4115    0.5125    1.0218   O.3       1 RES1   0.0000
    94 C41       2.7572    1.8633    1.3365   C.3       1 RES1   0.0000
    95 C42       1.6335    2.7732    0.8183   C.2       1 RES1   0.0000
    96 O6        0.9117    2.3350   -0.0976   O.2       1 RES1   0.0000
    97 N4        1.4507    3.9668    1.3690   N.am      1 RES1   0.0000
    98 C43       2.3717    4.6583    2.2453   C.3       1 RES1   0.0000
    99 C44       0.3076    4.7646    0.9639   C.3       1 RES1   0.0000
   100 H45      -1.8421   -6.8348    0.4603   H         1 RES1   0.0000
   101 H46      -0.5710   -6.7295    1.6654   H         1 RES1   0.0000
   102 H47      -0.6763   -5.5274    0.3725   H         1 RES1   0.0000
   103 H48      -0.2641   -8.5075   -0.1440   H         1 RES1   0.0000
   104 H49      -0.0501   -7.2073   -1.3095   H         1 RES1   0.0000
   105 H50       1.7223   -7.7596    1.1168   H         1 RES1   0.0000
   106 H51       2.0890   -8.1723   -0.5561   H         1 RES1   0.0000
   107 H52       1.9257   -5.7361   -1.1361   H         1 RES1   0.0000
   108 H53       1.7062   -5.3979    0.6045   H         1 RES1   0.0000
   109 H54       3.9427   -6.3940    1.0403   H         1 RES1   0.0000
   110 H55       4.2078   -6.4982   -0.6929   H         1 RES1   0.0000
   111 H56       3.4262   -3.8543    0.6107   H         1 RES1   0.0000
   112 H57       5.0958   -4.4240    0.6332   H         1 RES1   0.0000
   113 H58       5.2488   -4.4422   -1.7445   H         1 RES1   0.0000
   114 H59       3.5385   -4.1307   -1.9548   H         1 RES1   0.0000
   115 H60       5.0919   -2.0813   -0.3704   H         1 RES1   0.0000
   116 H61       5.4981   -2.2250   -2.0726   H         1 RES1   0.0000
   117 H62       3.4124   -2.6939   -3.4963   H         1 RES1   0.0000
   118 H63       2.2110   -1.3949   -3.3207   H         1 RES1   0.0000
   119 H64       5.1489   -0.7060   -3.4688   H         1 RES1   0.0000
   120 H65       4.3245   -1.1462   -4.9553   H         1 RES1   0.0000
   121 H66       3.1346    1.0141   -3.1832   H         1 RES1   0.0000
   122 H67       4.5227    1.3634   -4.2094   H         1 RES1   0.0000
   123 H68       2.6831    1.9863   -5.4966   H         1 RES1   0.0000
   124 H69       3.2238    0.4592   -6.1764   H         1 RES1   0.0000
   125 H70       1.3164   -0.7065   -5.2636   H         1 RES1   0.0000
   126 H71       0.9609    0.6118   -4.1375   H         1 RES1   0.0000
   127 H72      -0.6415    0.6530   -5.9571   H         1 RES1   0.0000
   128 H73       0.3872    2.0810   -6.0535   H         1 RES1   0.0000
   129 H74      -0.0317    1.1793   -8.2587   H         1 RES1   0.0000
   130 H75       1.6800    1.0788   -7.8854   H         1 RES1   0.0000
   131 H76      -0.2654   -1.2602   -7.6324   H         1 RES1   0.0000
   132 H77       0.7801   -0.9676   -9.0221   H         1 RES1   0.0000
   133 H78       1.4898   -1.3455   -7.4635   H         1 RES1   0.0000
   134 H79       3.6795   -1.1053    1.0093   H         1 RES1   0.0000
   135 H80       4.3089    0.3473    0.1798   H         1 RES1   0.0000
   136 H81       2.8700    1.9491    2.4241   H         1 RES1   0.0000
   137 H82       3.6946    2.1545    0.8483   H         1 RES1   0.0000
   138 H83       3.2578    4.0728    2.4617   H         1 RES1   0.0000
   139 H84       2.6839    5.5853    1.7621   H         1 RES1   0.0000
   140 H85       1.8791    4.9212    3.1843   H         1 RES1   0.0000
   141 H86      -0.3480    4.1517    0.3484   H         1 RES1   0.0000
   142 H87      -0.2276    5.1051    1.8511   H         1 RES1   0.0000
   143 H88       0.6385    5.6364    0.3979   H         1 RES1   0.0000
   144 C45       1.7276    3.6602    5.7511   C.3       1 RES1   0.0000
   145 C46       1.3834    2.7833    6.9514   C.3       1 RES1   0.0000
   146 C47       2.1585    1.4649    6.9601   C.3       1 RES1   0.0000
   147 C48       1.6084    0.4408    5.9675   C.3       1 RES1   0.0000
   148 C49       2.5353   -0.7658    5.8366   C.3       1 RES1   0.0000
   149 C50       2.0238   -1.7728    4.8049   C.3       1 RES1   0.0000
   150 C51       1.0133   -2.7426    5.4086   C.3       1 RES1   0.0000
   151 C52       0.2036   -3.4880    4.3452   C.3       1 RES1   0.0000
   152 N5       -0.6044   -2.5593    3.5659   N.am      1 RES1   0.0000
   153 C53      -1.8031   -2.0765    4.2458   C.3       1 RES1   0.0000
   154 C54      -2.8929   -3.1633    4.2755   C.3       1 RES1   0.0000
   155 C55      -3.9529   -3.0349    3.1730   C.3       1 RES1   0.0000
   156 C56      -5.2742   -2.3961    3.6473   C.3       1 RES1   0.0000
   157 C57      -5.8703   -1.4408    2.6088   C.3       1 RES1   0.0000
   158 C58      -7.3663   -1.1712    2.7729   C.3       1 RES1   0.0000
   159 C59      -7.7791   -0.5199    4.0931   C.3       1 RES1   0.0000
   160 C60      -7.1227    0.8327    4.3517   C.3       1 RES1   0.0000
   161 C61      -0.2139   -2.0452    2.4073   C.2       1 RES1   0.0000
   162 O7       -0.7282   -1.0530    1.8620   O.2       1 RES1   0.0000
   163 C62       0.9324   -2.7402    1.6534   C.3       1 RES1   0.0000
   164 O8        1.0736   -2.1737    0.3527   O.3       1 RES1   0.0000
   165 C63       0.7805   -3.0388   -0.7412   C.3       1 RES1   0.0000
   166 C64      -0.5106   -2.6181   -1.4382   C.2       1 RES1   0.0000
   167 O9       -1.0882   -1.5786   -1.0697   O.2       1 RES1   0.0000
   168 N6       -0.9892   -3.3973   -2.3905   N.am      1 RES1   0.0000
   169 C65      -0.3075   -4.5240   -2.9895   C.3       1 RES1   0.0000
   170 C66      -2.3117   -3.0975   -2.9152   C.3       1 RES1   0.0000
   171 H89       1.0762    4.5302    5.7218   H         1 RES1   0.0000
   172 H90       2.7544    4.0071    5.8276   H         1 RES1   0.0000
   173 H91       1.6221    3.1077    4.8187   H         1 RES1   0.0000
   174 H92       1.6182    3.3349    7.8608   H         1 RES1   0.0000
   175 H93       0.3115    2.5701    6.9672   H         1 RES1   0.0000
   176 H94       3.2067    1.6659    6.7312   H         1 RES1   0.0000
   177 H95       2.1199    1.0335    7.9614   H         1 RES1   0.0000
   178 H96       0.6193    0.1193    6.3044   H         1 RES1   0.0000
   179 H97       1.4877    0.8961    4.9781   H         1 RES1   0.0000
   180 H98       3.5253   -0.4144    5.5429   H         1 RES1   0.0000
   181 H99       2.6394   -1.2599    6.8023   H         1 RES1   0.0000
   182 H100      1.5641   -1.2176    3.9797   H         1 RES1   0.0000
   183 H101      2.8645   -2.3445    4.4069   H         1 RES1   0.0000
   184 H102      1.5357   -3.4758    6.0206   H         1 RES1   0.0000
   185 H103      0.3378   -2.2012    6.0687   H         1 RES1   0.0000
   186 H104      0.8746   -4.0464    3.6954   H         1 RES1   0.0000
   187 H105     -0.4617   -4.1964    4.8370   H         1 RES1   0.0000
   188 H106     -1.5303   -1.8030    5.2651   H         1 RES1   0.0000
   189 H107     -2.1294   -1.1756    3.7255   H         1 RES1   0.0000
   190 H108     -2.4091   -4.1352    4.1771   H         1 RES1   0.0000
   191 H109     -3.3793   -3.1448    5.2501   H         1 RES1   0.0000
   192 H110     -3.5296   -2.4693    2.3403   H         1 RES1   0.0000
   193 H111     -4.1803   -4.0302    2.7916   H         1 RES1   0.0000
   194 H112     -5.9996   -3.1861    3.8413   H         1 RES1   0.0000
   195 H113     -5.1231   -1.8623    4.5881   H         1 RES1   0.0000
   196 H114     -5.3481   -0.4818    2.6464   H         1 RES1   0.0000
   197 H115     -5.7170   -1.8668    1.6132   H         1 RES1   0.0000
   198 H116     -7.6797   -0.5222    1.9504   H         1 RES1   0.0000
   199 H117     -7.9025   -2.1147    2.6716   H         1 RES1   0.0000
   200 H118     -8.8602   -0.3848    4.0602   H         1 RES1   0.0000
   201 H119     -7.5625   -1.1899    4.9248   H         1 RES1   0.0000
   202 H120     -7.1124    1.4337    3.4445   H         1 RES1   0.0000
   203 H121     -7.6782    1.3746    5.1095   H         1 RES1   0.0000
   204 H122     -6.1033    0.7167    4.7098   H         1 RES1   0.0000
   205 H123      1.8788   -2.5782    2.1811   H         1 RES1   0.0000
   206 H124      0.7200   -3.8119    1.5897   H         1 RES1   0.0000
   207 H125      1.6206   -2.9614   -1.4367   H         1 RES1   0.0000
   208 H126      0.6898   -4.0749   -0.4085   H         1 RES1   0.0000
   209 H127      0.7353   -4.5723   -2.6924   H         1 RES1   0.0000
   210 H128     -0.8032   -5.4603   -2.7251   H         1 RES1   0.0000
   211 H129     -0.3416   -4.4188   -4.0741   H         1 RES1   0.0000
   212 H130     -3.0221   -3.0534   -2.0903   H         1 RES1   0.0000
   213 H131     -2.3003   -2.1390   -3.4321   H         1 RES1   0.0000
   214 H132     -2.6038   -3.8868   -3.6009   H         1 RES1   0.0000
@<TRIPOS>BOND
     1     1    20    1
     2     1    22    1
     3     1    25    1
     4     1    91    1
     5     1    93    1
     6     1    96    1
     7     1   162    1
     8     1   164    1
     9     1   167    1
    10     2     3    1
    11     2    29    1
    12     2    30    1
    13     2    31    1
    14     3     4    1
    15     3    32    1
    16     3    33    1
    17     4     5    1
    18     4    34    1
    19     4    35    1
    20     5     6    1
    21     5    36    1
    22     5    37    1
    23     6     7    1
    24     6    38    1
    25     6    39    1
    26     7     8    1
    27     7    40    1
    28     7    41    1
    29     8     9    1
    30     8    42    1
    31     8    43    1
    32     9    10    1
    33     9    44    1
    34     9    45    1
    35    10    11    1
    36    10    19    1
    37    11    12    1
    38    11    46    1
    39    11    47    1
    40    12    13    1
    41    12    48    1
    42    12    49    1
    43    13    14    1
    44    13    50    1
    45    13    51    1
    46    14    15    1
    47    14    52    1
    48    14    53    1
    49    15    16    1
    50    15    54    1
    51    15    55    1
    52    16    17    1
    53    16    56    1
    54    16    57    1
    55    17    18    1
    56    17    58    1
    57    17    59    1
    58    18    60    1
    59    18    61    1
    60    18    62    1
    61    19    20    2
    62    19    21    1
    63    21    22    1
    64    21    63    1
    65    21    64    1
    66    22    23    1
    67    23    24    1
    68    23    65    1
    69    23    66    1
    70    24    25    2
    71    24    26    1
    72    26    27    1
    73    26    28    1
    74    27    67    1
    75    27    68    1
    76    27    69    1
    77    28    70    1
    78    28    71    1
    79    28    72    1
    80    73    74    1
    81    73   100    1
    82    73   101    1
    83    73   102    1
    84    74    75    1
    85    74   103    1
    86    74   104    1
    87    75    76    1
    88    75   105    1
    89    75   106    1
    90    76    77    1
    91    76   107    1
    92    76   108    1
    93    77    78    1
    94    77   109    1
    95    77   110    1
    96    78    79    1
    97    78   111    1
    98    78   112    1
    99    79    80    1
   100    79   113    1
   101    79   114    1
   102    80    81    1
   103    80   115    1
   104    80   116    1
   105    81    82    1
   106    81    90    1
   107    82    83    1
   108    82   117    1
   109    82   118    1
   110    83    84    1
   111    83   119    1
   112    83   120    1
   113    84    85    1
   114    84   121    1
   115    84   122    1
   116    85    86    1
   117    85   123    1
   118    85   124    1
   119    86    87    1
   120    86   125    1
   121    86   126    1
   122    87    88    1
   123    87   127    1
   124    87   128    1
   125    88    89    1
   126    88   129    1
   127    88   130    1
   128    89   131    1
   129    89   132    1
   130    89   133    1
   131    90    91    2
   132    90    92    1
   133    92    93    1
   134    92   134    1
   135    92   135    1
   136    93    94    1
   137    94    95    1
   138    94   136    1
   139    94   137    1
   140    95    96    2
   141    95    97    1
   142    97    98    1
   143    97    99    1
   144    98   138    1
   145    98   139    1
   146    98   140    1
   147    99   141    1
   148    99   142    1
   149    99   143    1
   150   144   145    1
   151   144   171    1
   152   144   172    1
   153   144   173    1
   154   145   146    1
   155   145   174    1
   156   145   175    1
   157   146   147    1
   158   146   176    1
   159   146   177    1
   160   147   148    1
   161   147   178    1
   162   147   179    1
   163   148   149    1
   164   148   180    1
   165   148   181    1
   166   149   150    1
   167   149   182    1
   168   149   183    1
   169   150   151    1
   170   150   184    1
   171   150   185    1
   172   151   152    1
   173   151   186    1
   174   151   187    1
   175   152   153    1
   176   152   161    1
   177   153   154    1
   178   153   188    1
   179   153   189    1
   180   154   155    1
   181   154   190    1
   182   154   191    1
   183   155   156    1
   184   155   192    1
   185   155   193    1
   186   156   157    1
   187   156   194    1
   188   156   195    1
   189   157   158    1
   190   157   196    1
   191   157   197    1
   192   158   159    1
   193   158   198    1
   194   158   199    1
   195   159   160    1
   196   159   200    1
   197   159   201    1
   198   160   202    1
   199   160   203    1
   200   160   204    1
   201   161   162    2
   202   161   163    1
   203   163   164    1
   204   163   205    1
   205   163   206    1
   206   164   165    1
   207   165   166    1
   208   165   207    1
   209   165   208    1
   210   166   167    2
   211   166   168    1
   212   168   169    1
   213   168   170    1
   214   169   209    1
   215   169   210    1
   216   169   211    1
   217   170   212    1
   218   170   213    1
   219   170   214    1
@<TRIPOS>SUBSTRUCTURE
     1 RES1      214 GROUP             0 ****  ****    0  
