@<TRIPOS>MOLECULE
am_c3_9H2O_c0_0_nunpairedes_0_charge_3 Charge: 3 Unpaired_Electrons: 6 XTB_Unpaired_Electrons: 0 XTB_Charge: 3
   358   363     1     0     0
SMALL
NoCharges
****
Generated from Architector

@<TRIPOS>ATOM
     1 Eu1      -0.1911    0.0751   -0.2296   Eu        1 RES1   0.0000
     2 C1        0.4077   -3.8095    7.2832   C.3       1 RES1   0.0000
     3 C2       -0.7157   -4.4232    6.4572   C.3       1 RES1   0.0000
     4 C3       -2.0009   -3.6089    6.5844   C.3       1 RES1   0.0000
     5 C4       -3.1915   -4.3378    5.9701   C.3       1 RES1   0.0000
     6 C5       -4.4161   -3.4471    5.7664   C.3       1 RES1   0.0000
     7 C6       -4.2135   -2.3403    4.7194   C.3       1 RES1   0.0000
     8 C7       -5.5337   -1.9865    4.0355   C.3       1 RES1   0.0000
     9 C8       -5.4169   -1.2920    2.6687   C.3       1 RES1   0.0000
    10 N1       -4.3887   -1.8227    1.7772   N.am      1 RES1   0.0000
    11 C9       -4.6536   -3.1676    1.2456   C.3       1 RES1   0.0000
    12 C10      -4.5006   -4.3498    2.2075   C.3       1 RES1   0.0000
    13 C11      -4.3974   -5.7077    1.4934   C.3       1 RES1   0.0000
    14 C12      -3.4656   -6.6523    2.2745   C.3       1 RES1   0.0000
    15 C13      -2.5555   -7.5443    1.4217   C.3       1 RES1   0.0000
    16 C14      -1.2332   -7.8534    2.1477   C.3       1 RES1   0.0000
    17 C15       0.0033   -7.7112    1.2593   C.3       1 RES1   0.0000
    18 C16       1.2991   -7.8442    2.0555   C.3       1 RES1   0.0000
    19 C17      -3.4143   -1.0699    1.2584   C.2       1 RES1   0.0000
    20 O1       -2.5345   -1.4768    0.4761   O.2       1 RES1   0.0000
    21 C18      -3.2870    0.4138    1.6540   C.3       1 RES1   0.0000
    22 C19      -2.5082    0.5140    2.9642   C.3       1 RES1   0.0000
    23 O2       -2.5405    1.0742    0.6280   O.3       1 RES1   0.0000
    24 C20      -3.3670    1.8241   -0.2888   C.3       1 RES1   0.0000
    25 C21      -3.8563    3.0834    0.4018   C.3       1 RES1   0.0000
    26 C22      -2.5952    1.9103   -1.6271   C.2       1 RES1   0.0000
    27 O3       -1.7128    1.0391   -1.7911   O.2       1 RES1   0.0000
    28 N2       -2.9793    2.7226   -2.6158   N.am      1 RES1   0.0000
    29 C23      -3.6709    4.0069   -2.4912   C.3       1 RES1   0.0000
    30 C24      -2.8530    5.0541   -1.7175   C.3       1 RES1   0.0000
    31 C25      -2.4533    6.2872   -2.5308   C.3       1 RES1   0.0000
    32 C26      -1.4936    6.0165   -3.6845   C.3       1 RES1   0.0000
    33 C27      -0.2380    5.2461   -3.2807   C.3       1 RES1   0.0000
    34 C28       0.6818    5.0576   -4.4819   C.3       1 RES1   0.0000
    35 C29       1.8457    4.1062   -4.2263   C.3       1 RES1   0.0000
    36 C30       2.5539    3.8086   -5.5401   C.3       1 RES1   0.0000
    37 C31      -2.5775    2.3836   -3.9829   C.3       1 RES1   0.0000
    38 C32      -3.7224    1.7410   -4.7897   C.3       1 RES1   0.0000
    39 C33      -5.0019    2.5734   -4.8829   C.3       1 RES1   0.0000
    40 C34      -6.1284    1.9027   -5.6734   C.3       1 RES1   0.0000
    41 C35      -7.3516    2.8304   -5.7372   C.3       1 RES1   0.0000
    42 C36      -8.6728    2.0897   -5.9694   C.3       1 RES1   0.0000
    43 C37      -9.2622    1.4894   -4.6899   C.3       1 RES1   0.0000
    44 C38      -9.9112    2.5368   -3.7877   C.3       1 RES1   0.0000
    45 H1        1.3236   -4.3857    7.1826   H         1 RES1   0.0000
    46 H2        0.5956   -2.7812    6.9745   H         1 RES1   0.0000
    47 H3        0.1311   -3.7990    8.3343   H         1 RES1   0.0000
    48 H4       -0.4210   -4.4840    5.4028   H         1 RES1   0.0000
    49 H5       -0.8971   -5.4404    6.8052   H         1 RES1   0.0000
    50 H6       -2.1969   -3.4319    7.6422   H         1 RES1   0.0000
    51 H7       -1.8629   -2.6353    6.1052   H         1 RES1   0.0000
    52 H8       -2.9007   -4.7632    5.0089   H         1 RES1   0.0000
    53 H9       -3.4701   -5.1692    6.6132   H         1 RES1   0.0000
    54 H10      -5.2429   -4.0822    5.4490   H         1 RES1   0.0000
    55 H11      -4.6993   -3.0028    6.7194   H         1 RES1   0.0000
    56 H12      -3.7758   -1.4645    5.1997   H         1 RES1   0.0000
    57 H13      -3.4999   -2.6902    3.9754   H         1 RES1   0.0000
    58 H14      -6.1256   -2.8874    3.9193   H         1 RES1   0.0000
    59 H15      -6.1034   -1.3214    4.6810   H         1 RES1   0.0000
    60 H16      -6.3786   -1.3977    2.1560   H         1 RES1   0.0000
    61 H17      -5.2565   -0.2347    2.8441   H         1 RES1   0.0000
    62 H18      -5.6615   -3.1584    0.8173   H         1 RES1   0.0000
    63 H19      -3.9323   -3.3052    0.4423   H         1 RES1   0.0000
    64 H20      -3.5825   -4.2150    2.7757   H         1 RES1   0.0000
    65 H21      -5.3208   -4.3953    2.9158   H         1 RES1   0.0000
    66 H22      -5.3841   -6.1548    1.3935   H         1 RES1   0.0000
    67 H23      -4.0229   -5.5739    0.4760   H         1 RES1   0.0000
    68 H24      -2.8130   -6.0401    2.9014   H         1 RES1   0.0000
    69 H25      -4.0599   -7.2657    2.9470   H         1 RES1   0.0000
    70 H26      -3.0675   -8.4636    1.1578   H         1 RES1   0.0000
    71 H27      -2.3312   -7.0419    0.4778   H         1 RES1   0.0000
    72 H28      -1.1212   -7.1724    2.9961   H         1 RES1   0.0000
    73 H29      -1.2537   -8.8639    2.5494   H         1 RES1   0.0000
    74 H30      -0.0077   -8.4792    0.4893   H         1 RES1   0.0000
    75 H31      -0.0148   -6.7407    0.7524   H         1 RES1   0.0000
    76 H32       1.3861   -8.8480    2.4598   H         1 RES1   0.0000
    77 H33       2.1646   -7.6575    1.4216   H         1 RES1   0.0000
    78 H34       1.3264   -7.1468    2.8915   H         1 RES1   0.0000
    79 H35      -4.2638    0.8891    1.7444   H         1 RES1   0.0000
    80 H36      -1.5529   -0.0014    2.8517   H         1 RES1   0.0000
    81 H37      -2.3226    1.5587    3.2020   H         1 RES1   0.0000
    82 H38      -3.0673    0.0596    3.7745   H         1 RES1   0.0000
    83 H39      -4.2319    1.1876   -0.5510   H         1 RES1   0.0000
    84 H40      -4.6999    3.5169   -0.1128   H         1 RES1   0.0000
    85 H41      -4.2070    2.8376    1.4022   H         1 RES1   0.0000
    86 H42      -3.0594    3.8049    0.5027   H         1 RES1   0.0000
    87 H43      -3.8409    4.3768   -3.4999   H         1 RES1   0.0000
    88 H44      -4.6549    3.8739   -2.0438   H         1 RES1   0.0000
    89 H45      -3.4354    5.4184   -0.8723   H         1 RES1   0.0000
    90 H46      -1.9576    4.5643   -1.3384   H         1 RES1   0.0000
    91 H47      -3.3563    6.7627   -2.9180   H         1 RES1   0.0000
    92 H48      -1.9797    6.9913   -1.8422   H         1 RES1   0.0000
    93 H49      -2.0062    5.4807   -4.4836   H         1 RES1   0.0000
    94 H50      -1.1877    6.9740   -4.1051   H         1 RES1   0.0000
    95 H51       0.2865    5.7940   -2.4936   H         1 RES1   0.0000
    96 H52      -0.4955    4.2597   -2.8834   H         1 RES1   0.0000
    97 H53       0.0989    4.6650   -5.3164   H         1 RES1   0.0000
    98 H54       1.0784    6.0249   -4.7889   H         1 RES1   0.0000
    99 H55       2.5484    4.5549   -3.5191   H         1 RES1   0.0000
   100 H56       1.4777    3.1794   -3.7770   H         1 RES1   0.0000
   101 H57       2.8938    4.7339   -5.9912   H         1 RES1   0.0000
   102 H58       3.4206    3.1715   -5.3954   H         1 RES1   0.0000
   103 H59       1.8714    3.3275   -6.2369   H         1 RES1   0.0000
   104 H60      -2.2392    3.2861   -4.4895   H         1 RES1   0.0000
   105 H61      -1.7436    1.6823   -3.9223   H         1 RES1   0.0000
   106 H62      -3.3487    1.5681   -5.7997   H         1 RES1   0.0000
   107 H63      -3.9518    0.7700   -4.3516   H         1 RES1   0.0000
   108 H64      -5.3941    2.7640   -3.8841   H         1 RES1   0.0000
   109 H65      -4.7832    3.5329   -5.3567   H         1 RES1   0.0000
   110 H66      -5.7935    1.6674   -6.6847   H         1 RES1   0.0000
   111 H67      -6.3996    0.9615   -5.1921   H         1 RES1   0.0000
   112 H68      -7.4252    3.3872   -4.8002   H         1 RES1   0.0000
   113 H69      -7.1918    3.5571   -6.5337   H         1 RES1   0.0000
   114 H70      -9.3988    2.7885   -6.3852   H         1 RES1   0.0000
   115 H71      -8.5162    1.3036   -6.7116   H         1 RES1   0.0000
   116 H72     -10.0201    0.7531   -4.9615   H         1 RES1   0.0000
   117 H73      -8.4768    0.9604   -4.1425   H         1 RES1   0.0000
   118 H74     -10.3224    2.0732   -2.8935   H         1 RES1   0.0000
   119 H75      -9.1995    3.3009   -3.4802   H         1 RES1   0.0000
   120 H76     -10.7248    3.0281   -4.3127   H         1 RES1   0.0000
   121 C39      -6.7278    2.7857    3.0390   C.3       1 RES1   0.0000
   122 C40      -6.6521    3.2065    4.5019   C.3       1 RES1   0.0000
   123 C41      -5.6340    4.3163    4.7573   C.3       1 RES1   0.0000
   124 C42      -4.1774    3.9247    4.4567   C.3       1 RES1   0.0000
   125 C43      -3.5555    4.9127    3.4714   C.3       1 RES1   0.0000
   126 C44      -2.1195    4.5844    3.0499   C.3       1 RES1   0.0000
   127 C45      -1.5570    5.7245    2.1987   C.3       1 RES1   0.0000
   128 C46      -0.4710    5.3169    1.1995   C.3       1 RES1   0.0000
   129 N3        0.6097    4.4658    1.6928   N.am      1 RES1   0.0000
   130 C47       1.7858    5.1409    2.2539   C.3       1 RES1   0.0000
   131 C48       1.5404    6.2447    3.2894   C.3       1 RES1   0.0000
   132 C49       1.2679    5.7305    4.7037   C.3       1 RES1   0.0000
   133 C50       0.8748    6.8313    5.7003   C.3       1 RES1   0.0000
   134 C51      -0.5837    7.3022    5.5947   C.3       1 RES1   0.0000
   135 C52      -0.8023    8.5534    4.7438   C.3       1 RES1   0.0000
   136 C53      -2.2889    8.8985    4.6379   C.3       1 RES1   0.0000
   137 C54      -2.5704    9.8965    3.5217   C.3       1 RES1   0.0000
   138 C55       0.6442    3.2115    1.2486   C.2       1 RES1   0.0000
   139 O4       -0.2944    2.6516    0.6473   O.2       1 RES1   0.0000
   140 C56       1.8947    2.3446    1.4367   C.3       1 RES1   0.0000
   141 C57       1.7057    1.4710    2.6753   C.3       1 RES1   0.0000
   142 O5        1.9366    1.4901    0.2928   O.3       1 RES1   0.0000
   143 C58       2.9545    1.7696   -0.6780   C.3       1 RES1   0.0000
   144 C59       4.3164    1.4428   -0.0938   C.3       1 RES1   0.0000
   145 C60       2.4964    1.0115   -1.9457   C.2       1 RES1   0.0000
   146 O6        1.2714    0.7562   -1.9971   O.2       1 RES1   0.0000
   147 N4        3.2830    0.7816   -2.9965   N.am      1 RES1   0.0000
   148 C61       2.6329    0.4193   -4.2599   C.3       1 RES1   0.0000
   149 C62       2.4621   -1.0795   -4.4876   C.3       1 RES1   0.0000
   150 C63       2.1383   -1.3598   -5.9597   C.3       1 RES1   0.0000
   151 C64       0.7085   -0.9479   -6.3460   C.3       1 RES1   0.0000
   152 C65       0.5731    0.3422   -7.1625   C.3       1 RES1   0.0000
   153 C66       0.7188    0.1653   -8.6757   C.3       1 RES1   0.0000
   154 C67       2.1339   -0.1026   -9.1886   C.3       1 RES1   0.0000
   155 C68       3.1326    0.9928   -8.8346   C.3       1 RES1   0.0000
   156 C69       4.7364    0.6233   -3.0534   C.3       1 RES1   0.0000
   157 C70       5.5143    1.7290   -3.7801   C.3       1 RES1   0.0000
   158 C71       5.8867    2.9247   -2.9036   C.3       1 RES1   0.0000
   159 C72       6.9670    3.8172   -3.5236   C.3       1 RES1   0.0000
   160 C73       6.5117    4.7518   -4.6434   C.3       1 RES1   0.0000
   161 C74       5.6282    5.8996   -4.1472   C.3       1 RES1   0.0000
   162 C75       5.6493    7.1141   -5.0762   C.3       1 RES1   0.0000
   163 C76       4.9587    6.8669   -6.4099   C.3       1 RES1   0.0000
   164 H77      -7.0147    3.6270    2.4097   H         1 RES1   0.0000
   165 H78      -5.7631    2.4158    2.6937   H         1 RES1   0.0000
   166 H79      -7.4620    1.9914    2.9064   H         1 RES1   0.0000
   167 H80      -6.4140    2.3407    5.1225   H         1 RES1   0.0000
   168 H81      -7.6321    3.5675    4.8045   H         1 RES1   0.0000
   169 H82      -5.7160    4.6247    5.7965   H         1 RES1   0.0000
   170 H83      -5.9063    5.1745    4.1423   H         1 RES1   0.0000
   171 H84      -4.1366    2.9141    4.0464   H         1 RES1   0.0000
   172 H85      -3.5901    3.9221    5.3732   H         1 RES1   0.0000
   173 H86      -3.5685    5.8976    3.9409   H         1 RES1   0.0000
   174 H87      -4.1861    4.9743    2.5817   H         1 RES1   0.0000
   175 H88      -2.0963    3.6446    2.4898   H         1 RES1   0.0000
   176 H89      -1.5065    4.4459    3.9429   H         1 RES1   0.0000
   177 H90      -1.1998    6.5091    2.8592   H         1 RES1   0.0000
   178 H91      -2.3645    6.1552    1.6024   H         1 RES1   0.0000
   179 H92      -0.0053    6.2177    0.7888   H         1 RES1   0.0000
   180 H93      -0.9337    4.7536    0.3850   H         1 RES1   0.0000
   181 H94       2.3238    5.5875    1.4102   H         1 RES1   0.0000
   182 H95       2.4332    4.4123    2.7368   H         1 RES1   0.0000
   183 H96       0.7535    6.9118    2.9579   H         1 RES1   0.0000
   184 H97       2.4537    6.8436    3.3246   H         1 RES1   0.0000
   185 H98       2.1788    5.2483    5.0697   H         1 RES1   0.0000
   186 H99       0.4763    4.9778    4.6919   H         1 RES1   0.0000
   187 H100      1.5463    7.6836    5.5932   H         1 RES1   0.0000
   188 H101      1.0270    6.4295    6.7036   H         1 RES1   0.0000
   189 H102     -0.9621    7.5248    6.5933   H         1 RES1   0.0000
   190 H103     -1.1941    6.4824    5.2084   H         1 RES1   0.0000
   191 H104     -0.3952    8.4257    3.7384   H         1 RES1   0.0000
   192 H105     -0.2716    9.3905    5.1971   H         1 RES1   0.0000
   193 H106     -2.6299    9.3082    5.5889   H         1 RES1   0.0000
   194 H107     -2.8623    7.9862    4.4511   H         1 RES1   0.0000
   195 H108     -2.0185   10.8179    3.6853   H         1 RES1   0.0000
   196 H109     -3.6295   10.1356    3.4828   H         1 RES1   0.0000
   197 H110     -2.2782    9.4877    2.5546   H         1 RES1   0.0000
   198 H111      2.8039    2.9419    1.5035   H         1 RES1   0.0000
   199 H112      0.8348    0.8214    2.5008   H         1 RES1   0.0000
   200 H113      1.5261    2.0701    3.5643   H         1 RES1   0.0000
   201 H114      2.5843    0.8530    2.8288   H         1 RES1   0.0000
   202 H115      2.8959    2.8358   -0.9562   H         1 RES1   0.0000
   203 H116      4.5373    0.3877   -0.1991   H         1 RES1   0.0000
   204 H117      4.3071    1.6718    0.9630   H         1 RES1   0.0000
   205 H118      5.0900    2.0439   -0.5548   H         1 RES1   0.0000
   206 H119      3.2537    0.8166   -5.0636   H         1 RES1   0.0000
   207 H120      1.6593    0.9062   -4.2971   H         1 RES1   0.0000
   208 H121      1.6666   -1.4588   -3.8434   H         1 RES1   0.0000
   209 H122      3.3857   -1.6016   -4.2265   H         1 RES1   0.0000
   210 H123      2.2808   -2.4264   -6.1431   H         1 RES1   0.0000
   211 H124      2.8635   -0.8366   -6.5844   H         1 RES1   0.0000
   212 H125      0.1270   -0.8336   -5.4268   H         1 RES1   0.0000
   213 H126      0.2407   -1.7509   -6.9168   H         1 RES1   0.0000
   214 H127      1.2834    1.0894   -6.8146   H         1 RES1   0.0000
   215 H128     -0.4288    0.7370   -6.9846   H         1 RES1   0.0000
   216 H129      0.3517    1.0719   -9.1610   H         1 RES1   0.0000
   217 H130      0.0696   -0.6517   -9.0003   H         1 RES1   0.0000
   218 H131      2.0791   -0.1762  -10.2758   H         1 RES1   0.0000
   219 H132      2.4866   -1.0659   -8.8171   H         1 RES1   0.0000
   220 H133      2.7521    1.9687   -9.1229   H         1 RES1   0.0000
   221 H134      4.0684    0.8263   -9.3574   H         1 RES1   0.0000
   222 H135      3.3479    1.0151   -7.7693   H         1 RES1   0.0000
   223 H136      4.9140   -0.3137   -3.5895   H         1 RES1   0.0000
   224 H137      5.1465    0.4909   -2.0592   H         1 RES1   0.0000
   225 H138      4.9565    2.0704   -4.6497   H         1 RES1   0.0000
   226 H139      6.4420    1.2867   -4.1497   H         1 RES1   0.0000
   227 H140      6.3104    2.5411   -1.9742   H         1 RES1   0.0000
   228 H141      4.9996    3.5110   -2.6579   H         1 RES1   0.0000
   229 H142      7.7700    3.1756   -3.8926   H         1 RES1   0.0000
   230 H143      7.3890    4.4326   -2.7271   H         1 RES1   0.0000
   231 H144      6.0064    4.1862   -5.4265   H         1 RES1   0.0000
   232 H145      7.4099    5.1846   -5.0858   H         1 RES1   0.0000
   233 H146      5.9888    6.2196   -3.1668   H         1 RES1   0.0000
   234 H147      4.5968    5.5627   -4.0304   H         1 RES1   0.0000
   235 H148      6.6845    7.4082   -5.2540   H         1 RES1   0.0000
   236 H149      5.1559    7.9505   -4.5769   H         1 RES1   0.0000
   237 H150      5.4037    6.0223   -6.9274   H         1 RES1   0.0000
   238 H151      5.0454    7.7407   -7.0495   H         1 RES1   0.0000
   239 H152      3.8989    6.6680   -6.2603   H         1 RES1   0.0000
   240 C77       1.2149    1.9246    7.0391   C.3       1 RES1   0.0000
   241 C78       2.5800    1.4880    6.5239   C.3       1 RES1   0.0000
   242 C79       2.8030   -0.0127    6.6842   C.3       1 RES1   0.0000
   243 C80       4.0811   -0.4656    5.9863   C.3       1 RES1   0.0000
   244 C81       4.3422   -1.9624    6.1589   C.3       1 RES1   0.0000
   245 C82       3.4879   -2.7944    5.1862   C.3       1 RES1   0.0000
   246 C83       4.3177   -3.6594    4.2320   C.3       1 RES1   0.0000
   247 C84       3.7002   -3.7531    2.8257   C.3       1 RES1   0.0000
   248 N5        3.5226   -2.4940    2.1144   N.am      1 RES1   0.0000
   249 C85       4.7499   -1.8986    1.5812   C.3       1 RES1   0.0000
   250 C86       5.8266   -1.4799    2.5960   C.3       1 RES1   0.0000
   251 C87       6.6868   -0.2998    2.1088   C.3       1 RES1   0.0000
   252 C88       6.2914    1.0134    2.7894   C.3       1 RES1   0.0000
   253 C89       6.9473    2.2203    2.1196   C.3       1 RES1   0.0000
   254 C90       6.2631    3.5494    2.4668   C.3       1 RES1   0.0000
   255 C91       6.2231    4.4752    1.2529   C.3       1 RES1   0.0000
   256 C92       5.6210    5.8360    1.5882   C.3       1 RES1   0.0000
   257 C93       2.3522   -2.0429    1.6499   C.2       1 RES1   0.0000
   258 O7        2.2370   -1.0309    0.9328   O.2       1 RES1   0.0000
   259 C94       1.0171   -2.7571    1.9581   C.3       1 RES1   0.0000
   260 C95       0.4259   -2.2719    3.2840   C.3       1 RES1   0.0000
   261 O8        0.1469   -2.3707    0.8807   O.3       1 RES1   0.0000
   262 C96      -0.3989   -3.4708    0.1356   C.3       1 RES1   0.0000
   263 C97      -1.4213   -4.1518    1.0255   C.3       1 RES1   0.0000
   264 C98      -0.7385   -2.8931   -1.2543   C.2       1 RES1   0.0000
   265 O9       -0.2262   -1.7738   -1.4981   O.2       1 RES1   0.0000
   266 N6       -1.2951   -3.5994   -2.2336   N.am      1 RES1   0.0000
   267 C99      -2.2082   -4.7243   -2.1653   C.3       1 RES1   0.0000
   268 C100     -3.6949   -4.3271   -2.1560   C.3       1 RES1   0.0000
   269 C101     -4.2439   -3.5859   -3.3866   C.3       1 RES1   0.0000
   270 C102     -4.3244   -2.0642   -3.2097   C.3       1 RES1   0.0000
   271 C103     -5.3632   -1.6828   -2.1480   C.3       1 RES1   0.0000
   272 C104     -5.9487   -0.2794   -2.2959   C.3       1 RES1   0.0000
   273 C105     -6.7808    0.0932   -1.0693   C.3       1 RES1   0.0000
   274 C106     -7.2598    1.5376   -1.0888   C.3       1 RES1   0.0000
   275 C107     -0.9431   -3.1994   -3.5986   C.3       1 RES1   0.0000
   276 C108      0.2838   -3.9741   -4.1008   C.3       1 RES1   0.0000
   277 C109      0.0762   -5.4884   -4.1829   C.3       1 RES1   0.0000
   278 C110      1.1311   -6.2199   -5.0116   C.3       1 RES1   0.0000
   279 C111      0.8698   -7.7325   -5.0543   C.3       1 RES1   0.0000
   280 C112      1.2520   -8.4942   -3.7769   C.3       1 RES1   0.0000
   281 C113      0.1208   -8.7551   -2.7781   C.3       1 RES1   0.0000
   282 C114     -0.8950   -9.7777   -3.2716   C.3       1 RES1   0.0000
   283 H153      1.0794    2.9960    6.9168   H         1 RES1   0.0000
   284 H154      0.4198    1.4043    6.5070   H         1 RES1   0.0000
   285 H155      1.1169    1.6947    8.0965   H         1 RES1   0.0000
   286 H156      2.6790    1.7534    5.4677   H         1 RES1   0.0000
   287 H157      3.3581    2.0244    7.0660   H         1 RES1   0.0000
   288 H158      2.8666   -0.2481    7.7458   H         1 RES1   0.0000
   289 H159      1.9483   -0.5602    6.2766   H         1 RES1   0.0000
   290 H160      3.9995   -0.2384    4.9189   H         1 RES1   0.0000
   291 H161      4.9215    0.1100    6.3709   H         1 RES1   0.0000
   292 H162      5.4000   -2.1691    5.9977   H         1 RES1   0.0000
   293 H163      4.1281   -2.2418    7.1885   H         1 RES1   0.0000
   294 H164      2.7986   -3.4308    5.7394   H         1 RES1   0.0000
   295 H165      2.8909   -2.1008    4.5943   H         1 RES1   0.0000
   296 H166      5.3343   -3.2844    4.1844   H         1 RES1   0.0000
   297 H167      4.3930   -4.6791    4.6170   H         1 RES1   0.0000
   298 H168      4.3480   -4.3848    2.2094   H         1 RES1   0.0000
   299 H169      2.7379   -4.2418    2.9260   H         1 RES1   0.0000
   300 H170      5.1884   -2.6179    0.8780   H         1 RES1   0.0000
   301 H171      4.4218   -1.0339    1.0088   H         1 RES1   0.0000
   302 H172      5.3610   -1.1855    3.5333   H         1 RES1   0.0000
   303 H173      6.4776   -2.3313    2.7824   H         1 RES1   0.0000
   304 H174      7.7381   -0.4989    2.3106   H         1 RES1   0.0000
   305 H175      6.5973   -0.1808    1.0269   H         1 RES1   0.0000
   306 H176      5.2018    1.1158    2.7508   H         1 RES1   0.0000
   307 H177      6.5725    0.9946    3.8433   H         1 RES1   0.0000
   308 H178      8.0034    2.2589    2.3883   H         1 RES1   0.0000
   309 H179      6.9012    2.0864    1.0376   H         1 RES1   0.0000
   310 H180      5.2372    3.3606    2.8036   H         1 RES1   0.0000
   311 H181      6.7814    4.0539    3.2789   H         1 RES1   0.0000
   312 H182      7.2384    4.6149    0.8815   H         1 RES1   0.0000
   313 H183      5.6418    3.9954    0.4584   H         1 RES1   0.0000
   314 H184      5.3768    6.3848    0.6821   H         1 RES1   0.0000
   315 H185      6.3240    6.4290    2.1638   H         1 RES1   0.0000
   316 H186      4.7177    5.7180    2.1833   H         1 RES1   0.0000
   317 H187      1.1203   -3.8459    1.9610   H         1 RES1   0.0000
   318 H188      0.5896   -1.2019    3.3868   H         1 RES1   0.0000
   319 H189     -0.6443   -2.4640    3.2990   H         1 RES1   0.0000
   320 H190      0.8780   -2.7800    4.1322   H         1 RES1   0.0000
   321 H191      0.4131   -4.1806   -0.0962   H         1 RES1   0.0000
   322 H192     -2.0645   -4.8102    0.4683   H         1 RES1   0.0000
   323 H193     -0.9119   -4.7377    1.7850   H         1 RES1   0.0000
   324 H194     -2.0099   -3.3824    1.5084   H         1 RES1   0.0000
   325 H195     -2.0442   -5.3353   -3.0477   H         1 RES1   0.0000
   326 H196     -1.9936   -5.3500   -1.3003   H         1 RES1   0.0000
   327 H197     -4.2518   -5.2577   -2.0410   H         1 RES1   0.0000
   328 H198     -3.8961   -3.7046   -1.2921   H         1 RES1   0.0000
   329 H199     -3.6665   -3.8357   -4.2769   H         1 RES1   0.0000
   330 H200     -5.2590   -3.9392   -3.5772   H         1 RES1   0.0000
   331 H201     -3.3504   -1.6562   -2.9278   H         1 RES1   0.0000
   332 H202     -4.6082   -1.6273   -4.1677   H         1 RES1   0.0000
   333 H203     -6.1841   -2.4013   -2.1778   H         1 RES1   0.0000
   334 H204     -4.8956   -1.7505   -1.1637   H         1 RES1   0.0000
   335 H205     -5.1448    0.4478   -2.4332   H         1 RES1   0.0000
   336 H206     -6.5832   -0.2380   -3.1814   H         1 RES1   0.0000
   337 H207     -7.6455   -0.5688   -1.0177   H         1 RES1   0.0000
   338 H208     -6.1842   -0.0781   -0.1642   H         1 RES1   0.0000
   339 H209     -7.9602    1.7036   -1.8974   H         1 RES1   0.0000
   340 H210     -7.7630    1.7833   -0.1577   H         1 RES1   0.0000
   341 H211     -6.4236    2.2211   -1.2179   H         1 RES1   0.0000
   342 H212     -1.7862   -3.3774   -4.2570   H         1 RES1   0.0000
   343 H213     -0.7208   -2.1332   -3.5898   H         1 RES1   0.0000
   344 H214      0.5151   -3.5956   -5.0980   H         1 RES1   0.0000
   345 H215      1.1391   -3.7514   -3.4591   H         1 RES1   0.0000
   346 H216      0.0757   -5.9086   -3.1749   H         1 RES1   0.0000
   347 H217     -0.8838   -5.6897   -4.6624   H         1 RES1   0.0000
   348 H218      1.1068   -5.8269   -6.0322   H         1 RES1   0.0000
   349 H219      2.1284   -6.0334   -4.6082   H         1 RES1   0.0000
   350 H220     -0.1804   -7.9056   -5.2896   H         1 RES1   0.0000
   351 H221      1.4511   -8.1344   -5.8837   H         1 RES1   0.0000
   352 H222      1.6545   -9.4648   -4.0660   H         1 RES1   0.0000
   353 H223      2.0591   -7.9585   -3.2724   H         1 RES1   0.0000
   354 H224      0.5730   -9.1353   -1.8592   H         1 RES1   0.0000
   355 H225     -0.3953   -7.8252   -2.5290   H         1 RES1   0.0000
   356 H226     -0.3953  -10.6935   -3.5727   H         1 RES1   0.0000
   357 H227     -1.5997  -10.0212   -2.4802   H         1 RES1   0.0000
   358 H228     -1.4566   -9.4001   -4.1213   H         1 RES1   0.0000
@<TRIPOS>BOND
     1     1    20    1
     2     1    23    1
     3     1    27    1
     4     1   139    1
     5     1   142    1
     6     1   146    1
     7     1   258    1
     8     1   261    1
     9     1   265    1
    10     2     3    1
    11     2    45    1
    12     2    46    1
    13     2    47    1
    14     3     4    1
    15     3    48    1
    16     3    49    1
    17     4     5    1
    18     4    50    1
    19     4    51    1
    20     5     6    1
    21     5    52    1
    22     5    53    1
    23     6     7    1
    24     6    54    1
    25     6    55    1
    26     7     8    1
    27     7    56    1
    28     7    57    1
    29     8     9    1
    30     8    58    1
    31     8    59    1
    32     9    10    1
    33     9    60    1
    34     9    61    1
    35    10    11    1
    36    10    19    1
    37    11    12    1
    38    11    62    1
    39    11    63    1
    40    12    13    1
    41    12    64    1
    42    12    65    1
    43    13    14    1
    44    13    66    1
    45    13    67    1
    46    14    15    1
    47    14    68    1
    48    14    69    1
    49    15    16    1
    50    15    70    1
    51    15    71    1
    52    16    17    1
    53    16    72    1
    54    16    73    1
    55    17    18    1
    56    17    74    1
    57    17    75    1
    58    18    76    1
    59    18    77    1
    60    18    78    1
    61    19    20    2
    62    19    21    1
    63    21    22    1
    64    21    23    1
    65    21    79    1
    66    22    80    1
    67    22    81    1
    68    22    82    1
    69    23    24    1
    70    24    25    1
    71    24    26    1
    72    24    83    1
    73    25    84    1
    74    25    85    1
    75    25    86    1
    76    26    27    2
    77    26    28    1
    78    28    29    1
    79    28    37    1
    80    29    30    1
    81    29    87    1
    82    29    88    1
    83    30    31    1
    84    30    89    1
    85    30    90    1
    86    31    32    1
    87    31    91    1
    88    31    92    1
    89    32    33    1
    90    32    93    1
    91    32    94    1
    92    33    34    1
    93    33    95    1
    94    33    96    1
    95    34    35    1
    96    34    97    1
    97    34    98    1
    98    35    36    1
    99    35    99    1
   100    35   100    1
   101    36   101    1
   102    36   102    1
   103    36   103    1
   104    37    38    1
   105    37   104    1
   106    37   105    1
   107    38    39    1
   108    38   106    1
   109    38   107    1
   110    39    40    1
   111    39   108    1
   112    39   109    1
   113    40    41    1
   114    40   110    1
   115    40   111    1
   116    41    42    1
   117    41   112    1
   118    41   113    1
   119    42    43    1
   120    42   114    1
   121    42   115    1
   122    43    44    1
   123    43   116    1
   124    43   117    1
   125    44   118    1
   126    44   119    1
   127    44   120    1
   128   121   122    1
   129   121   164    1
   130   121   165    1
   131   121   166    1
   132   122   123    1
   133   122   167    1
   134   122   168    1
   135   123   124    1
   136   123   169    1
   137   123   170    1
   138   124   125    1
   139   124   171    1
   140   124   172    1
   141   125   126    1
   142   125   173    1
   143   125   174    1
   144   126   127    1
   145   126   175    1
   146   126   176    1
   147   127   128    1
   148   127   177    1
   149   127   178    1
   150   128   129    1
   151   128   179    1
   152   128   180    1
   153   129   130    1
   154   129   138    1
   155   130   131    1
   156   130   181    1
   157   130   182    1
   158   131   132    1
   159   131   183    1
   160   131   184    1
   161   132   133    1
   162   132   185    1
   163   132   186    1
   164   133   134    1
   165   133   187    1
   166   133   188    1
   167   134   135    1
   168   134   189    1
   169   134   190    1
   170   135   136    1
   171   135   191    1
   172   135   192    1
   173   136   137    1
   174   136   193    1
   175   136   194    1
   176   137   195    1
   177   137   196    1
   178   137   197    1
   179   138   139    2
   180   138   140    1
   181   140   141    1
   182   140   142    1
   183   140   198    1
   184   141   199    1
   185   141   200    1
   186   141   201    1
   187   142   143    1
   188   143   144    1
   189   143   145    1
   190   143   202    1
   191   144   203    1
   192   144   204    1
   193   144   205    1
   194   145   146    2
   195   145   147    1
   196   147   148    1
   197   147   156    1
   198   148   149    1
   199   148   206    1
   200   148   207    1
   201   149   150    1
   202   149   208    1
   203   149   209    1
   204   150   151    1
   205   150   210    1
   206   150   211    1
   207   151   152    1
   208   151   212    1
   209   151   213    1
   210   152   153    1
   211   152   214    1
   212   152   215    1
   213   153   154    1
   214   153   216    1
   215   153   217    1
   216   154   155    1
   217   154   218    1
   218   154   219    1
   219   155   220    1
   220   155   221    1
   221   155   222    1
   222   156   157    1
   223   156   223    1
   224   156   224    1
   225   157   158    1
   226   157   225    1
   227   157   226    1
   228   158   159    1
   229   158   227    1
   230   158   228    1
   231   159   160    1
   232   159   229    1
   233   159   230    1
   234   160   161    1
   235   160   231    1
   236   160   232    1
   237   161   162    1
   238   161   233    1
   239   161   234    1
   240   162   163    1
   241   162   235    1
   242   162   236    1
   243   163   237    1
   244   163   238    1
   245   163   239    1
   246   240   241    1
   247   240   283    1
   248   240   284    1
   249   240   285    1
   250   241   242    1
   251   241   286    1
   252   241   287    1
   253   242   243    1
   254   242   288    1
   255   242   289    1
   256   243   244    1
   257   243   290    1
   258   243   291    1
   259   244   245    1
   260   244   292    1
   261   244   293    1
   262   245   246    1
   263   245   294    1
   264   245   295    1
   265   246   247    1
   266   246   296    1
   267   246   297    1
   268   247   248    1
   269   247   298    1
   270   247   299    1
   271   248   249    1
   272   248   257    1
   273   249   250    1
   274   249   300    1
   275   249   301    1
   276   250   251    1
   277   250   302    1
   278   250   303    1
   279   251   252    1
   280   251   304    1
   281   251   305    1
   282   252   253    1
   283   252   306    1
   284   252   307    1
   285   253   254    1
   286   253   308    1
   287   253   309    1
   288   254   255    1
   289   254   310    1
   290   254   311    1
   291   255   256    1
   292   255   312    1
   293   255   313    1
   294   256   314    1
   295   256   315    1
   296   256   316    1
   297   257   258    2
   298   257   259    1
   299   259   260    1
   300   259   261    1
   301   259   317    1
   302   260   318    1
   303   260   319    1
   304   260   320    1
   305   261   262    1
   306   262   263    1
   307   262   264    1
   308   262   321    1
   309   263   322    1
   310   263   323    1
   311   263   324    1
   312   264   265    2
   313   264   266    1
   314   266   267    1
   315   266   275    1
   316   267   268    1
   317   267   325    1
   318   267   326    1
   319   268   269    1
   320   268   327    1
   321   268   328    1
   322   269   270    1
   323   269   329    1
   324   269   330    1
   325   270   271    1
   326   270   331    1
   327   270   332    1
   328   271   272    1
   329   271   333    1
   330   271   334    1
   331   272   273    1
   332   272   335    1
   333   272   336    1
   334   273   274    1
   335   273   337    1
   336   273   338    1
   337   274   339    1
   338   274   340    1
   339   274   341    1
   340   275   276    1
   341   275   342    1
   342   275   343    1
   343   276   277    1
   344   276   344    1
   345   276   345    1
   346   277   278    1
   347   277   346    1
   348   277   347    1
   349   278   279    1
   350   278   348    1
   351   278   349    1
   352   279   280    1
   353   279   350    1
   354   279   351    1
   355   280   281    1
   356   280   352    1
   357   280   353    1
   358   281   282    1
   359   281   354    1
   360   281   355    1
   361   282   356    1
   362   282   357    1
   363   282   358    1
@<TRIPOS>SUBSTRUCTURE
     1 RES1      358 GROUP             0 ****  ****    0  
