@<TRIPOS>MOLECULE
tri_tri_mer_capped_0_nunpairedes_0_charge_3 Charge: 3 Unpaired_Electrons: 6 XTB_Unpaired_Electrons: 0 XTB_Charge: 3
   115   123     1     0     0
SMALL
NoCharges
****
Generated from Architector

@<TRIPOS>ATOM
     1 Eu1       0.2066   -0.3468    0.2699   Eu        1 RES1   0.0000
     2 C1       -0.5067   -0.8832    8.1897   C.3       1 RES1   0.0000
     3 C2        0.9857   -1.1419    8.0763   C.3       1 RES1   0.0000
     4 C3        1.6624   -0.3170    6.9820   C.3       1 RES1   0.0000
     5 C4        1.8348    1.1604    7.3570   C.3       1 RES1   0.0000
     6 C5        2.2395    2.0388    6.1715   C.3       1 RES1   0.0000
     7 C6        3.6831    1.8578    5.6797   C.3       1 RES1   0.0000
     8 C7        3.8164    1.4414    4.2160   C.3       1 RES1   0.0000
     9 C8        3.5633   -0.0584    3.9956   C.3       1 RES1   0.0000
    10 N1        3.4685   -0.3092    2.5664   N.am      1 RES1   0.0000
    11 C9        2.3503   -0.2182    1.8963   C.2       1 RES1   0.0000
    12 O1        2.2766   -0.0561    0.6470   O.2       1 RES1   0.0000
    13 C10       1.0193   -0.3287    2.6152   C.ar      1 RES1   0.0000
    14 C11       0.5176   -1.5038    3.2072   C.ar      1 RES1   0.0000
    15 N2       -0.7151   -1.5602    3.6769   N.ar      1 RES1   0.0000
    16 C12      -1.4521   -0.4549    3.6344   C.ar      1 RES1   0.0000
    17 C13      -1.0094    0.6916    2.9906   C.ar      1 RES1   0.0000
    18 N3        0.1980    0.7346    2.3984   N.ar      1 RES1   0.0000
    19 H1       -0.9528   -1.5589    8.9128   H         1 RES1   0.0000
    20 H2       -0.9978   -1.0237    7.2273   H         1 RES1   0.0000
    21 H3       -0.7003    0.1327    8.5291   H         1 RES1   0.0000
    22 H4        1.1399   -2.2033    7.8520   H         1 RES1   0.0000
    23 H5        1.4694   -0.9498    9.0346   H         1 RES1   0.0000
    24 H6        1.0516   -0.3824    6.0706   H         1 RES1   0.0000
    25 H7        2.6473   -0.7454    6.7731   H         1 RES1   0.0000
    26 H8        2.5746    1.2530    8.1531   H         1 RES1   0.0000
    27 H9        0.8844    1.5291    7.7517   H         1 RES1   0.0000
    28 H10       2.1180    3.0729    6.4940   H         1 RES1   0.0000
    29 H11       1.5326    1.8720    5.3531   H         1 RES1   0.0000
    30 H12       4.2063    1.1389    6.3061   H         1 RES1   0.0000
    31 H13       4.2061    2.8066    5.7797   H         1 RES1   0.0000
    32 H14       4.8205    1.6801    3.8686   H         1 RES1   0.0000
    33 H15       3.1124    2.0069    3.5975   H         1 RES1   0.0000
    34 H16       2.6292   -0.3447    4.4824   H         1 RES1   0.0000
    35 H17       4.3744   -0.6676    4.3937   H         1 RES1   0.0000
    36 H18       4.3360   -0.2656    2.0305   H         1 RES1   0.0000
    37 H19       1.1116   -2.4076    3.3036   H         1 RES1   0.0000
    38 H20      -2.4186   -0.5123    4.1152   H         1 RES1   0.0000
    39 H21      -1.6099    1.5902    2.9195   H         1 RES1   0.0000
    40 C14       2.5875    3.0868   -5.6666   C.3       1 RES1   0.0000
    41 C15       2.9038    1.7565   -6.3261   C.3       1 RES1   0.0000
    42 C16       2.0006    0.6109   -5.8708   C.3       1 RES1   0.0000
    43 C17       0.5738    0.6819   -6.4209   C.3       1 RES1   0.0000
    44 C18      -0.3950   -0.2768   -5.7159   C.3       1 RES1   0.0000
    45 C19      -0.1885   -1.7624   -6.0659   C.3       1 RES1   0.0000
    46 C20      -0.1245   -2.6574   -4.8282   C.3       1 RES1   0.0000
    47 C21       1.2660   -2.5831   -4.1774   C.3       1 RES1   0.0000
    48 N4        1.1925   -2.8835   -2.7552   N.am      1 RES1   0.0000
    49 C22       1.1728   -1.9976   -1.7902   C.2       1 RES1   0.0000
    50 O2        0.9103   -2.2411   -0.5839   O.2       1 RES1   0.0000
    51 C23       1.5645   -0.5686   -2.1069   C.ar      1 RES1   0.0000
    52 C24       2.8842   -0.1983   -2.3974   C.ar      1 RES1   0.0000
    53 N5        3.2498    1.0598   -2.4756   N.ar      1 RES1   0.0000
    54 C25       2.3109    1.9882   -2.3580   C.ar      1 RES1   0.0000
    55 C26       0.9904    1.6500   -2.0775   C.ar      1 RES1   0.0000
    56 N6        0.6174    0.3743   -1.9018   N.ar      1 RES1   0.0000
    57 H22       3.3177    3.8328   -5.9596   H         1 RES1   0.0000
    58 H23       2.6262    2.9869   -4.5834   H         1 RES1   0.0000
    59 H24       1.6029    3.4517   -5.9403   H         1 RES1   0.0000
    60 H25       3.9368    1.4922   -6.0962   H         1 RES1   0.0000
    61 H26       2.8282    1.8596   -7.4070   H         1 RES1   0.0000
    62 H27       1.9467    0.6230   -4.7753   H         1 RES1   0.0000
    63 H28       2.4579   -0.3329   -6.1770   H         1 RES1   0.0000
    64 H29       0.5778    0.4600   -7.4884   H         1 RES1   0.0000
    65 H30       0.1932    1.6985   -6.3002   H         1 RES1   0.0000
    66 H31      -1.4109    0.0123   -5.9935   H         1 RES1   0.0000
    67 H32      -0.3133   -0.1320   -4.6289   H         1 RES1   0.0000
    68 H33       0.7176   -1.8901   -6.6573   H         1 RES1   0.0000
    69 H34      -1.0133   -2.1012   -6.6892   H         1 RES1   0.0000
    70 H35      -0.3423   -3.6874   -5.0974   H         1 RES1   0.0000
    71 H36      -0.8904   -2.3406   -4.1151   H         1 RES1   0.0000
    72 H37       1.6825   -1.5855   -4.3269   H         1 RES1   0.0000
    73 H38       1.9422   -3.3079   -4.6329   H         1 RES1   0.0000
    74 H39       0.9903   -3.8524   -2.5167   H         1 RES1   0.0000
    75 H40       3.6584   -0.9354   -2.5427   H         1 RES1   0.0000
    76 H41       2.6132    3.0192   -2.4714   H         1 RES1   0.0000
    77 H42       0.2026    2.4009   -2.0226   H         1 RES1   0.0000
    78 C27      -4.2405    4.6482    3.4577   C.3       1 RES1   0.0000
    79 C28      -5.3107    3.9127    2.6659   C.3       1 RES1   0.0000
    80 C29      -5.2328    2.3903    2.7740   C.3       1 RES1   0.0000
    81 C30      -5.6471    1.8451    4.1381   C.3       1 RES1   0.0000
    82 C31      -5.4188    0.3384    4.2783   C.3       1 RES1   0.0000
    83 C32      -6.2747   -0.5607    3.3656   C.3       1 RES1   0.0000
    84 C33      -5.4722   -1.4833    2.4390   C.3       1 RES1   0.0000
    85 C34      -5.0393   -0.8614    1.0989   C.3       1 RES1   0.0000
    86 N7       -3.7782   -1.4878    0.7192   N.am      1 RES1   0.0000
    87 C35      -2.6906   -0.9213    0.2607   C.2       1 RES1   0.0000
    88 O3       -1.5628   -1.4963    0.3183   O.2       1 RES1   0.0000
    89 C36      -2.6802    0.4486   -0.3613   C.ar      1 RES1   0.0000
    90 C37      -3.4443    0.8768   -1.4507   C.ar      1 RES1   0.0000
    91 N8       -3.3362    2.1053   -1.9087   N.ar      1 RES1   0.0000
    92 C38      -2.4858    2.9406   -1.3435   C.ar      1 RES1   0.0000
    93 C39      -1.5891    2.4874   -0.3753   C.ar      1 RES1   0.0000
    94 N9       -1.6782    1.2386    0.1006   N.ar      1 RES1   0.0000
    95 H43      -4.3223    5.7171    3.2865   H         1 RES1   0.0000
    96 H44      -3.2416    4.3324    3.1588   H         1 RES1   0.0000
    97 H45      -4.3508    4.4807    4.5245   H         1 RES1   0.0000
    98 H46      -5.2189    4.1878    1.6122   H         1 RES1   0.0000
    99 H47      -6.2918    4.2430    3.0009   H         1 RES1   0.0000
   100 H48      -4.2065    2.0662    2.5551   H         1 RES1   0.0000
   101 H49      -5.8922    1.9629    2.0164   H         1 RES1   0.0000
   102 H50      -6.6972    2.0692    4.3185   H         1 RES1   0.0000
   103 H51      -5.0711    2.3449    4.9182   H         1 RES1   0.0000
   104 H52      -5.6290    0.0759    5.3160   H         1 RES1   0.0000
   105 H53      -4.3572    0.1328    4.1126   H         1 RES1   0.0000
   106 H54      -6.9809    0.0375    2.7948   H         1 RES1   0.0000
   107 H55      -6.8754   -1.2115    3.9973   H         1 RES1   0.0000
   108 H56      -6.0508   -2.3816    2.2255   H         1 RES1   0.0000
   109 H57      -4.5787   -1.8079    2.9776   H         1 RES1   0.0000
   110 H58      -4.8752    0.2155    1.1747   H         1 RES1   0.0000
   111 H59      -5.8033   -1.0372    0.3339   H         1 RES1   0.0000
   112 H60      -3.6579   -2.4331    1.0900   H         1 RES1   0.0000
   113 H61      -4.1032    0.2096   -1.9850   H         1 RES1   0.0000
   114 H62      -2.4855    3.9614   -1.7038   H         1 RES1   0.0000
   115 H63      -0.8000    3.1147    0.0376   H         1 RES1   0.0000
@<TRIPOS>BOND
     1     1    12    1
     2     1    15    1
     3     1    18    1
     4     1    50    1
     5     1    53    1
     6     1    56    1
     7     1    88    1
     8     1    91    1
     9     1    94    1
    10     2     3    1
    11     2    19    1
    12     2    20    1
    13     2    21    1
    14     3     4    1
    15     3    22    1
    16     3    23    1
    17     4     5    1
    18     4    24    1
    19     4    25    1
    20     5     6    1
    21     5    26    1
    22     5    27    1
    23     6     7    1
    24     6    28    1
    25     6    29    1
    26     7     8    1
    27     7    30    1
    28     7    31    1
    29     8     9    1
    30     8    32    1
    31     8    33    1
    32     9    10    1
    33     9    34    1
    34     9    35    1
    35    10    11    1
    36    10    36    1
    37    11    12    2
    38    11    13    1
    39    13    14    1
    40    13    18    2
    41    14    15    2
    42    14    37    1
    43    15    16    1
    44    16    17    2
    45    16    38    1
    46    17    18    1
    47    17    39    1
    48    40    41    1
    49    40    57    1
    50    40    58    1
    51    40    59    1
    52    41    42    1
    53    41    60    1
    54    41    61    1
    55    42    43    1
    56    42    62    1
    57    42    63    1
    58    43    44    1
    59    43    64    1
    60    43    65    1
    61    44    45    1
    62    44    66    1
    63    44    67    1
    64    45    46    1
    65    45    68    1
    66    45    69    1
    67    46    47    1
    68    46    70    1
    69    46    71    1
    70    47    48    1
    71    47    72    1
    72    47    73    1
    73    48    49    1
    74    48    74    1
    75    49    50    2
    76    49    51    1
    77    51    52    1
    78    51    56    2
    79    52    53    2
    80    52    75    1
    81    53    54    1
    82    54    55    2
    83    54    76    1
    84    55    56    1
    85    55    77    1
    86    78    79    1
    87    78    95    1
    88    78    96    1
    89    78    97    1
    90    79    80    1
    91    79    98    1
    92    79    99    1
    93    80    81    1
    94    80   100    1
    95    80   101    1
    96    81    82    1
    97    81   102    1
    98    81   103    1
    99    82    83    1
   100    82   104    1
   101    82   105    1
   102    83    84    1
   103    83   106    1
   104    83   107    1
   105    84    85    1
   106    84   108    1
   107    84   109    1
   108    85    86    1
   109    85   110    1
   110    85   111    1
   111    86    87    1
   112    86   112    1
   113    87    88    2
   114    87    89    1
   115    89    90    1
   116    89    94    2
   117    90    91    2
   118    90   113    1
   119    91    92    1
   120    92    93    2
   121    92   114    1
   122    93    94    1
   123    93   115    1
@<TRIPOS>SUBSTRUCTURE
     1 RES1      115 GROUP             0 ****  ****    0  
