@<TRIPOS>MOLECULE
am_c3_9H2O_c0_0_nunpairedes_0_charge_3 Charge: 3 Unpaired_Electrons: 6 XTB_Unpaired_Electrons: 0 XTB_Charge: 3
   160   165     1     0     0
SMALL
NoCharges
****
Generated from Architector

@<TRIPOS>ATOM
     1 Eu1      -0.1251   -0.0397   -0.1248   Eu        1 RES1   0.0000
     2 C1       -5.6920    2.5788    1.4190   C.3       1 RES1   0.0000
     3 C2       -6.2101    1.3016    2.0667   C.3       1 RES1   0.0000
     4 C3       -5.1004    0.3052    2.4305   C.3       1 RES1   0.0000
     5 N1       -4.3229   -0.0891    1.2685   N.am      1 RES1   0.0000
     6 C4       -4.9622   -1.0522    0.3745   C.3       1 RES1   0.0000
     7 C5       -4.4451   -2.4745    0.5924   C.3       1 RES1   0.0000
     8 C6       -5.3069   -3.4678   -0.1780   C.3       1 RES1   0.0000
     9 C7       -3.1267    0.3775    0.9646   C.2       1 RES1   0.0000
    10 O1       -2.5181    0.0647   -0.0756   O.2       1 RES1   0.0000
    11 C8       -2.3826    1.3302    1.9162   C.3       1 RES1   0.0000
    12 O2       -1.2798    1.9010    1.2108   O.3       1 RES1   0.0000
    13 C9       -1.6217    3.0392    0.4111   C.3       1 RES1   0.0000
    14 C10      -1.2081    2.8580   -1.0627   C.2       1 RES1   0.0000
    15 O3       -0.7011    1.7789   -1.4246   O.2       1 RES1   0.0000
    16 N2       -1.4291    3.8478   -1.9196   N.am      1 RES1   0.0000
    17 C11      -1.9291    5.1630   -1.5357   C.3       1 RES1   0.0000
    18 C12      -0.8329    6.2280   -1.4086   C.3       1 RES1   0.0000
    19 C13       0.2182    5.9408   -0.3439   C.3       1 RES1   0.0000
    20 C14      -1.3057    3.5577   -3.3554   C.3       1 RES1   0.0000
    21 C15       0.1077    3.4061   -3.9268   C.3       1 RES1   0.0000
    22 C16       0.9262    4.6893   -4.0117   C.3       1 RES1   0.0000
    23 H1       -6.5295    3.2144    1.1466   H         1 RES1   0.0000
    24 H2       -5.1346    2.3520    0.5102   H         1 RES1   0.0000
    25 H3       -5.0604    3.1379    2.1067   H         1 RES1   0.0000
    26 H4       -6.9223    0.8299    1.3906   H         1 RES1   0.0000
    27 H5       -6.7494    1.5438    2.9805   H         1 RES1   0.0000
    28 H6       -5.5584   -0.5986    2.8378   H         1 RES1   0.0000
    29 H7       -4.4412    0.7183    3.1935   H         1 RES1   0.0000
    30 H8       -4.7880   -0.7508   -0.6599   H         1 RES1   0.0000
    31 H9       -6.0320   -1.0248    0.5760   H         1 RES1   0.0000
    32 H10      -4.4956   -2.7113    1.6573   H         1 RES1   0.0000
    33 H11      -3.4005   -2.5273    0.2731   H         1 RES1   0.0000
    34 H12      -6.3214   -3.4691    0.2118   H         1 RES1   0.0000
    35 H13      -4.9130   -4.4755   -0.0875   H         1 RES1   0.0000
    36 H14      -5.3463   -3.2087   -1.2312   H         1 RES1   0.0000
    37 H15      -1.9499    0.7330    2.7279   H         1 RES1   0.0000
    38 H16      -3.0094    2.1167    2.3428   H         1 RES1   0.0000
    39 H17      -1.1040    3.8985    0.8468   H         1 RES1   0.0000
    40 H18      -2.7023    3.2129    0.4399   H         1 RES1   0.0000
    41 H19      -2.4851    5.0864   -0.6013   H         1 RES1   0.0000
    42 H20      -2.6245    5.4980   -2.3075   H         1 RES1   0.0000
    43 H21      -1.3302    7.1660   -1.1680   H         1 RES1   0.0000
    44 H22      -0.3434    6.3647   -2.3704   H         1 RES1   0.0000
    45 H23      -0.2293    5.9163    0.6474   H         1 RES1   0.0000
    46 H24       0.9605    6.7349   -0.3502   H         1 RES1   0.0000
    47 H25       0.7261    4.9943   -0.5288   H         1 RES1   0.0000
    48 H26      -1.8282    4.3482   -3.8934   H         1 RES1   0.0000
    49 H27      -1.8225    2.6086   -3.5329   H         1 RES1   0.0000
    50 H28      -0.0296    3.0282   -4.9402   H         1 RES1   0.0000
    51 H29       0.6367    2.6400   -3.3600   H         1 RES1   0.0000
    52 H30       0.3365    5.4891   -4.4506   H         1 RES1   0.0000
    53 H31       1.7915    4.5404   -4.6523   H         1 RES1   0.0000
    54 H32       1.2831    5.0185   -3.0396   H         1 RES1   0.0000
    55 C17       5.6839    2.8626   -1.8752   C.3       1 RES1   0.0000
    56 C18       5.2571    2.6429   -3.3196   C.3       1 RES1   0.0000
    57 C19       3.7393    2.5394   -3.5039   C.3       1 RES1   0.0000
    58 N3        3.1467    1.3095   -2.9936   N.am      1 RES1   0.0000
    59 C20       3.2881    0.1391   -3.8558   C.3       1 RES1   0.0000
    60 C21       2.0805   -0.0581   -4.7722   C.3       1 RES1   0.0000
    61 C22       2.3861   -1.1329   -5.8083   C.3       1 RES1   0.0000
    62 C23       2.4100    1.2070   -1.8952   C.2       1 RES1   0.0000
    63 O4        1.8056    0.1659   -1.5790   O.2       1 RES1   0.0000
    64 C24       2.3269    2.4026   -0.9387   C.3       1 RES1   0.0000
    65 O5        1.5359    1.9991    0.1718   O.3       1 RES1   0.0000
    66 C25       1.9637    2.4846    1.4346   C.3       1 RES1   0.0000
    67 C26       1.6545    1.3946    2.4734   C.2       1 RES1   0.0000
    68 O6        1.1289    0.3402    2.0600   O.2       1 RES1   0.0000
    69 N4        2.0145    1.6090    3.7318   N.am      1 RES1   0.0000
    70 C27       2.5554    2.8781    4.2140   C.3       1 RES1   0.0000
    71 C28       1.5374    3.6745    5.0365   C.3       1 RES1   0.0000
    72 C29       0.3395    4.1461    4.2216   C.3       1 RES1   0.0000
    73 C30       1.9698    0.5259    4.7222   C.3       1 RES1   0.0000
    74 C31       0.5927   -0.0694    5.0104   C.3       1 RES1   0.0000
    75 C32      -0.3529    0.8271    5.7978   C.3       1 RES1   0.0000
    76 H33       6.7612    2.9926   -1.8303   H         1 RES1   0.0000
    77 H34       5.4245    2.0065   -1.2543   H         1 RES1   0.0000
    78 H35       5.2256    3.7648   -1.4726   H         1 RES1   0.0000
    79 H36       5.7510    1.7547   -3.7116   H         1 RES1   0.0000
    80 H37       5.5954    3.4878   -3.9190   H         1 RES1   0.0000
    81 H38       3.5220    2.5707   -4.5749   H         1 RES1   0.0000
    82 H39       3.2564    3.3981   -3.0395   H         1 RES1   0.0000
    83 H40       3.4256   -0.7382   -3.2205   H         1 RES1   0.0000
    84 H41       4.1853    0.2728   -4.4614   H         1 RES1   0.0000
    85 H42       1.8566    0.8786   -5.2848   H         1 RES1   0.0000
    86 H43       1.2138   -0.3249   -4.1637   H         1 RES1   0.0000
    87 H44       3.1883   -0.8051   -6.4647   H         1 RES1   0.0000
    88 H45       1.5182   -1.3400   -6.4271   H         1 RES1   0.0000
    89 H46       2.7016   -2.0562   -5.3284   H         1 RES1   0.0000
    90 H47       1.8529    3.2537   -1.4429   H         1 RES1   0.0000
    91 H48       3.3367    2.6848   -0.6268   H         1 RES1   0.0000
    92 H49       1.4376    3.4136    1.6845   H         1 RES1   0.0000
    93 H50       3.0476    2.6560    1.4301   H         1 RES1   0.0000
    94 H51       2.9104    3.4811    3.3808   H         1 RES1   0.0000
    95 H52       3.4181    2.6641    4.8481   H         1 RES1   0.0000
    96 H53       2.0486    4.5431    5.4499   H         1 RES1   0.0000
    97 H54       1.1984    3.0752    5.8795   H         1 RES1   0.0000
    98 H55       0.6459    4.8859    3.4843   H         1 RES1   0.0000
    99 H56      -0.3794    4.6170    4.8866   H         1 RES1   0.0000
   100 H57      -0.1495    3.3133    3.7138   H         1 RES1   0.0000
   101 H58       2.3930    0.9104    5.6499   H         1 RES1   0.0000
   102 H59       2.6191   -0.2774    4.3574   H         1 RES1   0.0000
   103 H60       0.7733   -0.9661    5.6035   H         1 RES1   0.0000
   104 H61       0.1408   -0.3619    4.0631   H         1 RES1   0.0000
   105 H62       0.1169    1.1582    6.7200   H         1 RES1   0.0000
   106 H63      -1.2462    0.2709    6.0713   H         1 RES1   0.0000
   107 H64      -0.6597    1.6977    5.2268   H         1 RES1   0.0000
   108 C33      -3.5791   -2.5560   -3.3599   C.3       1 RES1   0.0000
   109 C34      -2.7195   -2.5020   -4.6135   C.3       1 RES1   0.0000
   110 C35      -1.3501   -1.8766   -4.3511   C.3       1 RES1   0.0000
   111 N5       -0.4505   -2.7151   -3.5494   N.am      1 RES1   0.0000
   112 C36       0.2377   -3.8044   -4.2329   C.3       1 RES1   0.0000
   113 C37       0.0176   -5.2147   -3.6770   C.3       1 RES1   0.0000
   114 C38      -1.4345   -5.6681   -3.7269   C.3       1 RES1   0.0000
   115 C39      -0.2127   -2.3449   -2.2977   C.2       1 RES1   0.0000
   116 O7       -0.8010   -1.3833   -1.7636   O.2       1 RES1   0.0000
   117 C40       0.8205   -3.0856   -1.4409   C.3       1 RES1   0.0000
   118 O8        1.1927   -2.2448   -0.3422   O.3       1 RES1   0.0000
   119 C41       1.2854   -2.9101    0.9123   C.3       1 RES1   0.0000
   120 C42      -0.0566   -2.7963    1.6469   C.2       1 RES1   0.0000
   121 O9       -0.7815   -1.8241    1.3347   O.2       1 RES1   0.0000
   122 N6       -0.4135   -3.6878    2.5566   N.am      1 RES1   0.0000
   123 C43       0.4031   -4.8046    3.0145   C.3       1 RES1   0.0000
   124 C44       1.0025   -4.5969    4.4087   C.3       1 RES1   0.0000
   125 C45       2.0419   -3.4854    4.4490   C.3       1 RES1   0.0000
   126 C46      -1.7332   -3.5631    3.1796   C.3       1 RES1   0.0000
   127 C47      -1.8498   -2.3871    4.1466   C.3       1 RES1   0.0000
   128 C48      -3.2134   -2.3843    4.8239   C.3       1 RES1   0.0000
   129 H65      -4.5118   -3.0716   -3.5697   H         1 RES1   0.0000
   130 H66      -3.0677   -3.0796   -2.5560   H         1 RES1   0.0000
   131 H67      -3.8055   -1.5516   -3.0118   H         1 RES1   0.0000
   132 H68      -2.5993   -3.5014   -5.0266   H         1 RES1   0.0000
   133 H69      -3.2250   -1.8981   -5.3672   H         1 RES1   0.0000
   134 H70      -0.8582   -1.6690   -5.3050   H         1 RES1   0.0000
   135 H71      -1.4764   -0.9397   -3.8026   H         1 RES1   0.0000
   136 H72      -0.1092   -3.7934   -5.2673   H         1 RES1   0.0000
   137 H73       1.3117   -3.5934   -4.2413   H         1 RES1   0.0000
   138 H74       0.6270   -5.8785   -4.2908   H         1 RES1   0.0000
   139 H75       0.3886   -5.3004   -2.6577   H         1 RES1   0.0000
   140 H76      -1.7945   -5.6717   -4.7522   H         1 RES1   0.0000
   141 H77      -1.5236   -6.6778   -3.3357   H         1 RES1   0.0000
   142 H78      -2.0709   -5.0181   -3.1324   H         1 RES1   0.0000
   143 H79       0.3748   -4.0138   -1.0724   H         1 RES1   0.0000
   144 H80       1.7168   -3.3200   -2.0279   H         1 RES1   0.0000
   145 H81       1.6209   -3.9382    0.7724   H         1 RES1   0.0000
   146 H82       2.0326   -2.3610    1.4970   H         1 RES1   0.0000
   147 H83      -0.2341   -5.6913    3.0392   H         1 RES1   0.0000
   148 H84       1.2112   -4.9947    2.3109   H         1 RES1   0.0000
   149 H85       0.2154   -4.4045    5.1370   H         1 RES1   0.0000
   150 H86       1.4738   -5.5362    4.6947   H         1 RES1   0.0000
   151 H87       1.6274   -2.5497    4.0778   H         1 RES1   0.0000
   152 H88       2.3776   -3.3396    5.4721   H         1 RES1   0.0000
   153 H89       2.9096   -3.7516    3.8500   H         1 RES1   0.0000
   154 H90      -2.4716   -3.4426    2.3831   H         1 RES1   0.0000
   155 H91      -1.9377   -4.4916    3.7114   H         1 RES1   0.0000
   156 H92      -1.0718   -2.4543    4.9050   H         1 RES1   0.0000
   157 H93      -1.7098   -1.4615    3.5872   H         1 RES1   0.0000
   158 H94      -3.3429   -3.2773    5.4292   H         1 RES1   0.0000
   159 H95      -3.3191   -1.5206    5.4746   H         1 RES1   0.0000
   160 H96      -4.0110   -2.3552    4.0861   H         1 RES1   0.0000
@<TRIPOS>BOND
     1     1    10    1
     2     1    12    1
     3     1    15    1
     4     1    63    1
     5     1    65    1
     6     1    68    1
     7     1   116    1
     8     1   118    1
     9     1   121    1
    10     2     3    1
    11     2    23    1
    12     2    24    1
    13     2    25    1
    14     3     4    1
    15     3    26    1
    16     3    27    1
    17     4     5    1
    18     4    28    1
    19     4    29    1
    20     5     6    1
    21     5     9    1
    22     6     7    1
    23     6    30    1
    24     6    31    1
    25     7     8    1
    26     7    32    1
    27     7    33    1
    28     8    34    1
    29     8    35    1
    30     8    36    1
    31     9    10    2
    32     9    11    1
    33    11    12    1
    34    11    37    1
    35    11    38    1
    36    12    13    1
    37    13    14    1
    38    13    39    1
    39    13    40    1
    40    14    15    2
    41    14    16    1
    42    16    17    1
    43    16    20    1
    44    17    18    1
    45    17    41    1
    46    17    42    1
    47    18    19    1
    48    18    43    1
    49    18    44    1
    50    19    45    1
    51    19    46    1
    52    19    47    1
    53    20    21    1
    54    20    48    1
    55    20    49    1
    56    21    22    1
    57    21    50    1
    58    21    51    1
    59    22    52    1
    60    22    53    1
    61    22    54    1
    62    55    56    1
    63    55    76    1
    64    55    77    1
    65    55    78    1
    66    56    57    1
    67    56    79    1
    68    56    80    1
    69    57    58    1
    70    57    81    1
    71    57    82    1
    72    58    59    1
    73    58    62    1
    74    59    60    1
    75    59    83    1
    76    59    84    1
    77    60    61    1
    78    60    85    1
    79    60    86    1
    80    61    87    1
    81    61    88    1
    82    61    89    1
    83    62    63    2
    84    62    64    1
    85    64    65    1
    86    64    90    1
    87    64    91    1
    88    65    66    1
    89    66    67    1
    90    66    92    1
    91    66    93    1
    92    67    68    2
    93    67    69    1
    94    69    70    1
    95    69    73    1
    96    70    71    1
    97    70    94    1
    98    70    95    1
    99    71    72    1
   100    71    96    1
   101    71    97    1
   102    72    98    1
   103    72    99    1
   104    72   100    1
   105    73    74    1
   106    73   101    1
   107    73   102    1
   108    74    75    1
   109    74   103    1
   110    74   104    1
   111    75   105    1
   112    75   106    1
   113    75   107    1
   114   108   109    1
   115   108   129    1
   116   108   130    1
   117   108   131    1
   118   109   110    1
   119   109   132    1
   120   109   133    1
   121   110   111    1
   122   110   134    1
   123   110   135    1
   124   111   112    1
   125   111   115    1
   126   112   113    1
   127   112   136    1
   128   112   137    1
   129   113   114    1
   130   113   138    1
   131   113   139    1
   132   114   140    1
   133   114   141    1
   134   114   142    1
   135   115   116    2
   136   115   117    1
   137   117   118    1
   138   117   143    1
   139   117   144    1
   140   118   119    1
   141   119   120    1
   142   119   145    1
   143   119   146    1
   144   120   121    2
   145   120   122    1
   146   122   123    1
   147   122   126    1
   148   123   124    1
   149   123   147    1
   150   123   148    1
   151   124   125    1
   152   124   149    1
   153   124   150    1
   154   125   151    1
   155   125   152    1
   156   125   153    1
   157   126   127    1
   158   126   154    1
   159   126   155    1
   160   127   128    1
   161   127   156    1
   162   127   157    1
   163   128   158    1
   164   128   159    1
   165   128   160    1
@<TRIPOS>SUBSTRUCTURE
     1 RES1      160 GROUP             0 ****  ****    0  
