@<TRIPOS>MOLECULE
cn9_YICLED_0_nunpairedes_0_charge_3 Charge: 3 Unpaired_Electrons: 6 XTB_Unpaired_Electrons: 0 XTB_Charge: 3
   466   471     1     0     0
SMALL
NoCharges
****
Generated from Architector

@<TRIPOS>ATOM
     1 Eu1       0.0933   -0.1964    0.1304   Eu        1 RES1   0.0000
     2 C1        9.3223    4.5404   -3.3254   C.3       1 RES1   0.0000
     3 C2        9.2753    5.0577   -1.8916   C.3       1 RES1   0.0000
     4 C3       10.2141    4.3218   -0.9318   C.3       1 RES1   0.0000
     5 C4        9.9149    2.8312   -0.7565   C.3       1 RES1   0.0000
     6 C5        8.5522    2.5643   -0.1208   C.3       1 RES1   0.0000
     7 C6        8.3017    1.0774    0.1451   C.3       1 RES1   0.0000
     8 C7        8.4361    0.1532   -1.0694   C.3       1 RES1   0.0000
     9 C8        7.6500    0.4976   -2.3400   C.3       1 RES1   0.0000
    10 C9        6.1281    0.3029   -2.2929   C.3       1 RES1   0.0000
    11 C10       5.4343    1.4322   -1.5254   C.3       1 RES1   0.0000
    12 N1        3.9834    1.4790   -1.6999   N.am      1 RES1   0.0000
    13 C11       3.5202    2.2090   -2.8835   C.3       1 RES1   0.0000
    14 C12       3.3020    3.7265   -2.7588   C.3       1 RES1   0.0000
    15 C13       4.5071    4.6716   -2.5557   C.3       1 RES1   0.0000
    16 C14       4.6749    5.0787   -1.0889   C.3       1 RES1   0.0000
    17 C15       5.5954    6.2766   -0.8379   C.3       1 RES1   0.0000
    18 C16       5.6793    6.6555    0.6493   C.3       1 RES1   0.0000
    19 C17       4.4411    7.4017    1.1662   C.3       1 RES1   0.0000
    20 C18       4.1062    7.1290    2.6392   C.3       1 RES1   0.0000
    21 C19       4.9676    7.8605    3.6704   C.3       1 RES1   0.0000
    22 C20       4.5548    7.4718    5.0895   C.3       1 RES1   0.0000
    23 C21       3.1011    0.8114   -0.9557   C.2       1 RES1   0.0000
    24 O1        1.8689    0.8781   -1.1607   O.2       1 RES1   0.0000
    25 C22       3.6054   -0.0298    0.2314   C.3       1 RES1   0.0000
    26 C23       3.9655    0.9293    1.3748   C.3       1 RES1   0.0000
    27 C24       4.9743    0.3210    2.3520   C.3       1 RES1   0.0000
    28 C25       5.8182    1.3832    3.0312   C.3       1 RES1   0.0000
    29 O2        2.5333   -0.9248    0.5773   O.3       1 RES1   0.0000
    30 C26       2.8198   -1.9709    1.5356   C.3       1 RES1   0.0000
    31 C27       4.0828   -2.7441    1.1422   C.3       1 RES1   0.0000
    32 C28       4.1759   -3.1466   -0.3334   C.3       1 RES1   0.0000
    33 C29       5.6388   -3.2262   -0.7641   C.3       1 RES1   0.0000
    34 C30       1.4576   -2.7087    1.6616   C.2       1 RES1   0.0000
    35 O3        0.4680   -1.9772    1.4553   O.2       1 RES1   0.0000
    36 N2        1.2887   -4.0026    1.9569   N.am      1 RES1   0.0000
    37 C31      -0.0116   -4.5878    1.5837   C.3       1 RES1   0.0000
    38 C32      -0.8106   -5.3309    2.6577   C.3       1 RES1   0.0000
    39 C33      -1.9340   -6.1276    1.9703   C.3       1 RES1   0.0000
    40 C34      -1.4630   -7.4145    1.2613   C.3       1 RES1   0.0000
    41 C35      -1.9689   -7.5064   -0.1799   C.3       1 RES1   0.0000
    42 C36      -1.5895   -8.7942   -0.9127   C.3       1 RES1   0.0000
    43 C37      -0.1197   -8.8281   -1.3329   C.3       1 RES1   0.0000
    44 C38       0.1311   -9.8205   -2.4664   C.3       1 RES1   0.0000
    45 C39      -0.1933  -11.2753   -2.1285   C.3       1 RES1   0.0000
    46 C40       0.5896  -11.8170   -0.9335   C.3       1 RES1   0.0000
    47 C41       2.1982   -4.9093    2.6532   C.3       1 RES1   0.0000
    48 C42       2.6538   -6.1077    1.8103   C.3       1 RES1   0.0000
    49 C43       3.3630   -7.2028    2.6353   C.3       1 RES1   0.0000
    50 C44       4.8907   -7.1167    2.6270   C.3       1 RES1   0.0000
    51 C45       5.4151   -5.8493    3.2912   C.3       1 RES1   0.0000
    52 C46       6.9387   -5.7498    3.2891   C.3       1 RES1   0.0000
    53 C47       7.4470   -4.3978    3.8078   C.3       1 RES1   0.0000
    54 C48       7.7311   -4.3149    5.3100   C.3       1 RES1   0.0000
    55 C49       6.5125   -4.3665    6.2301   C.3       1 RES1   0.0000
    56 C50       6.9085   -4.1452    7.6856   C.3       1 RES1   0.0000
    57 H1        8.7342    5.1889   -3.9713   H         1 RES1   0.0000
    58 H2        8.9212    3.5313   -3.4021   H         1 RES1   0.0000
    59 H3       10.3453    4.5307   -3.6925   H         1 RES1   0.0000
    60 H4        8.2512    4.9976   -1.5140   H         1 RES1   0.0000
    61 H5        9.5613    6.1115   -1.8930   H         1 RES1   0.0000
    62 H6       10.1673    4.8128    0.0453   H         1 RES1   0.0000
    63 H7       11.2362    4.4241   -1.3015   H         1 RES1   0.0000
    64 H8       10.6889    2.3986   -0.1195   H         1 RES1   0.0000
    65 H9        9.9698    2.3374   -1.7260   H         1 RES1   0.0000
    66 H10       7.7609    2.9658   -0.7564   H         1 RES1   0.0000
    67 H11       8.4981    3.0955    0.8351   H         1 RES1   0.0000
    68 H12       7.3143    0.9512    0.5945   H         1 RES1   0.0000
    69 H13       9.0242    0.7407    0.8924   H         1 RES1   0.0000
    70 H14       8.1733   -0.8604   -0.7592   H         1 RES1   0.0000
    71 H15       9.4901    0.1244   -1.3410   H         1 RES1   0.0000
    72 H16       8.0353   -0.1534   -3.1271   H         1 RES1   0.0000
    73 H17       7.8659    1.5220   -2.6457   H         1 RES1   0.0000
    74 H18       5.8979   -0.6620   -1.8408   H         1 RES1   0.0000
    75 H19       5.7475    0.2773   -3.3168   H         1 RES1   0.0000
    76 H20       5.8284    2.3835   -1.8833   H         1 RES1   0.0000
    77 H21       5.6752    1.3555   -0.4725   H         1 RES1   0.0000
    78 H22       2.5537    1.7652   -3.1447   H         1 RES1   0.0000
    79 H23       4.2236    2.0140   -3.6952   H         1 RES1   0.0000
    80 H24       2.5857    3.8963   -1.9537   H         1 RES1   0.0000
    81 H25       2.8111    4.0048   -3.6944   H         1 RES1   0.0000
    82 H26       4.3224    5.5794   -3.1341   H         1 RES1   0.0000
    83 H27       5.4225    4.2397   -2.9610   H         1 RES1   0.0000
    84 H28       5.0339    4.2237   -0.5082   H         1 RES1   0.0000
    85 H29       3.6839    5.3571   -0.7327   H         1 RES1   0.0000
    86 H30       5.2257    7.1329   -1.4045   H         1 RES1   0.0000
    87 H31       6.5972    6.0452   -1.2022   H         1 RES1   0.0000
    88 H32       6.5547    7.2860    0.7966   H         1 RES1   0.0000
    89 H33       5.8370    5.7486    1.2391   H         1 RES1   0.0000
    90 H34       3.5763    7.1104    0.5670   H         1 RES1   0.0000
    91 H35       4.5707    8.4744    1.0240   H         1 RES1   0.0000
    92 H36       4.1924    6.0541    2.8281   H         1 RES1   0.0000
    93 H37       3.0635    7.4145    2.8167   H         1 RES1   0.0000
    94 H38       4.8479    8.9394    3.5466   H         1 RES1   0.0000
    95 H39       6.0209    7.6195    3.5182   H         1 RES1   0.0000
    96 H40       3.5167    7.7428    5.2753   H         1 RES1   0.0000
    97 H41       5.1721    7.9801    5.8233   H         1 RES1   0.0000
    98 H42       4.6623    6.3968    5.2401   H         1 RES1   0.0000
    99 H43       4.4876   -0.6054   -0.0594   H         1 RES1   0.0000
   100 H44       4.3860    1.8500    0.9672   H         1 RES1   0.0000
   101 H45       3.0323    1.2017    1.8666   H         1 RES1   0.0000
   102 H46       5.6525   -0.3500    1.8173   H         1 RES1   0.0000
   103 H47       4.4573   -0.2668    3.1146   H         1 RES1   0.0000
   104 H48       6.4753    1.8836    2.3241   H         1 RES1   0.0000
   105 H49       6.4293    0.9055    3.7965   H         1 RES1   0.0000
   106 H50       5.1800    2.1262    3.5005   H         1 RES1   0.0000
   107 H51       2.9776   -1.5181    2.5300   H         1 RES1   0.0000
   108 H52       4.9475   -2.1231    1.3914   H         1 RES1   0.0000
   109 H53       4.1832   -3.6232    1.7669   H         1 RES1   0.0000
   110 H54       3.6248   -2.4429   -0.9624   H         1 RES1   0.0000
   111 H55       3.6976   -4.1195   -0.4640   H         1 RES1   0.0000
   112 H56       6.1992   -2.3560   -0.4268   H         1 RES1   0.0000
   113 H57       5.7353   -3.2850   -1.8420   H         1 RES1   0.0000
   114 H58       6.1037   -4.1053   -0.3358   H         1 RES1   0.0000
   115 H59       0.2011   -5.2847    0.7649   H         1 RES1   0.0000
   116 H60      -0.6217   -3.7724    1.1906   H         1 RES1   0.0000
   117 H61      -1.2477   -4.6124    3.3584   H         1 RES1   0.0000
   118 H62      -0.1944   -6.0247    3.2262   H         1 RES1   0.0000
   119 H63      -2.4130   -5.4765    1.2433   H         1 RES1   0.0000
   120 H64      -2.6827   -6.3844    2.7172   H         1 RES1   0.0000
   121 H65      -1.8103   -8.2866    1.8136   H         1 RES1   0.0000
   122 H66      -0.3742   -7.4603    1.2502   H         1 RES1   0.0000
   123 H67      -1.5597   -6.6710   -0.7532   H         1 RES1   0.0000
   124 H68      -3.0557   -7.4147   -0.1822   H         1 RES1   0.0000
   125 H69      -2.2064   -8.8660   -1.8150   H         1 RES1   0.0000
   126 H70      -1.8250   -9.6578   -0.2907   H         1 RES1   0.0000
   127 H71       0.5115   -9.0697   -0.4771   H         1 RES1   0.0000
   128 H72       0.1697   -7.8345   -1.6872   H         1 RES1   0.0000
   129 H73       1.1777   -9.7533   -2.7656   H         1 RES1   0.0000
   130 H74      -0.4768   -9.5251   -3.3248   H         1 RES1   0.0000
   131 H75       0.0401  -11.8857   -3.0048   H         1 RES1   0.0000
   132 H76      -1.2625  -11.3825   -1.9336   H         1 RES1   0.0000
   133 H77       1.6600  -11.6480   -1.0597   H         1 RES1   0.0000
   134 H78       0.4239  -12.8897   -0.8404   H         1 RES1   0.0000
   135 H79       0.2706  -11.3469   -0.0023   H         1 RES1   0.0000
   136 H80       1.6584   -5.2868    3.5246   H         1 RES1   0.0000
   137 H81       3.0365   -4.3448    3.0487   H         1 RES1   0.0000
   138 H82       3.2987   -5.7756    0.9947   H         1 RES1   0.0000
   139 H83       1.7734   -6.5610    1.3522   H         1 RES1   0.0000
   140 H84       3.0803   -8.1778    2.2316   H         1 RES1   0.0000
   141 H85       3.0017   -7.1705    3.6659   H         1 RES1   0.0000
   142 H86       5.2463   -7.1751    1.5958   H         1 RES1   0.0000
   143 H87       5.2823   -7.9857    3.1570   H         1 RES1   0.0000
   144 H88       5.0345   -5.7978    4.3117   H         1 RES1   0.0000
   145 H89       5.0395   -4.9834    2.7442   H         1 RES1   0.0000
   146 H90       7.2836   -5.8819    2.2587   H         1 RES1   0.0000
   147 H91       7.3687   -6.5601    3.8777   H         1 RES1   0.0000
   148 H92       6.7300   -3.6168    3.5350   H         1 RES1   0.0000
   149 H93       8.3848   -4.1720    3.2995   H         1 RES1   0.0000
   150 H94       8.2491   -3.3695    5.4983   H         1 RES1   0.0000
   151 H95       8.4167   -5.1177    5.5864   H         1 RES1   0.0000
   152 H96       6.0254   -5.3387    6.1502   H         1 RES1   0.0000
   153 H97       5.7944   -3.5982    5.9267   H         1 RES1   0.0000
   154 H98       7.5884   -4.9256    8.0129   H         1 RES1   0.0000
   155 H99       6.0331   -4.1663    8.3287   H         1 RES1   0.0000
   156 H100      7.4062   -3.1877    7.8135   H         1 RES1   0.0000
   157 C51      -8.6849   -0.4917    6.1432   C.3       1 RES1   0.0000
   158 C52      -9.1462    0.3839    4.9822   C.3       1 RES1   0.0000
   159 C53     -10.1328   -0.3136    4.0405   C.3       1 RES1   0.0000
   160 C54      -9.5742   -1.5336    3.3045   C.3       1 RES1   0.0000
   161 C55      -8.4805   -1.1637    2.3033   C.3       1 RES1   0.0000
   162 C56      -7.9403   -2.3556    1.5083   C.3       1 RES1   0.0000
   163 C57      -7.4198   -3.5206    2.3526   C.3       1 RES1   0.0000
   164 C58      -6.3495   -3.2154    3.4029   C.3       1 RES1   0.0000
   165 C59      -4.9928   -2.7336    2.8750   C.3       1 RES1   0.0000
   166 C60      -4.9318   -1.2180    2.6469   C.3       1 RES1   0.0000
   167 N3       -3.5601   -0.7284    2.6378   N.am      1 RES1   0.0000
   168 C61      -2.9461   -0.3628    3.9163   C.3       1 RES1   0.0000
   169 C62      -2.7120    1.1452    4.0687   C.3       1 RES1   0.0000
   170 C63      -3.9472    2.0172    4.3708   C.3       1 RES1   0.0000
   171 C64      -4.3000    3.0024    3.2507   C.3       1 RES1   0.0000
   172 C65      -5.2925    4.0812    3.6948   C.3       1 RES1   0.0000
   173 C66      -5.5501    5.1339    2.6034   C.3       1 RES1   0.0000
   174 C67      -4.5386    6.2856    2.6282   C.3       1 RES1   0.0000
   175 C68      -4.4979    7.1681    1.3734   C.3       1 RES1   0.0000
   176 C69      -5.8642    7.6358    0.8730   C.3       1 RES1   0.0000
   177 C70      -5.7500    8.3592   -0.4663   C.3       1 RES1   0.0000
   178 C71      -2.7747   -0.6618    1.5724   C.2       1 RES1   0.0000
   179 O4       -1.6210   -0.1965    1.6455   O.2       1 RES1   0.0000
   180 C72      -3.2748   -1.0140    0.1638   C.3       1 RES1   0.0000
   181 C73      -3.7101    0.3487   -0.3958   C.3       1 RES1   0.0000
   182 C74      -4.3247    0.2852   -1.7917   C.3       1 RES1   0.0000
   183 C75      -5.4520    1.2795   -2.0308   C.3       1 RES1   0.0000
   184 O5       -2.1036   -1.5634   -0.4540   O.3       1 RES1   0.0000
   185 C76      -2.1460   -2.1151   -1.7843   C.3       1 RES1   0.0000
   186 C77      -3.3072   -3.1096   -1.9587   C.3       1 RES1   0.0000
   187 C78      -3.3215   -4.2942   -0.9995   C.3       1 RES1   0.0000
   188 C79      -4.6656   -5.0137   -1.0467   C.3       1 RES1   0.0000
   189 C80      -0.6426   -2.5052   -2.0270   C.2       1 RES1   0.0000
   190 O6        0.1644   -1.9765   -1.2294   O.2       1 RES1   0.0000
   191 N4       -0.1526   -3.2000   -3.0590   N.am      1 RES1   0.0000
   192 C81       1.3259   -3.2835   -3.1256   C.3       1 RES1   0.0000
   193 C82       1.9765   -3.3285   -4.5162   C.3       1 RES1   0.0000
   194 C83       3.4671   -3.7100   -4.4323   C.3       1 RES1   0.0000
   195 C84       3.7381   -5.2219   -4.2913   C.3       1 RES1   0.0000
   196 C85       4.6761   -5.5475   -3.1269   C.3       1 RES1   0.0000
   197 C86       4.8734   -7.0403   -2.8577   C.3       1 RES1   0.0000
   198 C87       3.6225   -7.7272   -2.3034   C.3       1 RES1   0.0000
   199 C88       3.9497   -9.0379   -1.5853   C.3       1 RES1   0.0000
   200 C89       4.7603  -10.0267   -2.4236   C.3       1 RES1   0.0000
   201 C90       4.0763  -10.4404   -3.7237   C.3       1 RES1   0.0000
   202 C91      -0.8600   -4.0397   -4.0121   C.3       1 RES1   0.0000
   203 C92      -0.5875   -5.5401   -3.7794   C.3       1 RES1   0.0000
   204 C93      -0.7330   -6.4131   -5.0398   C.3       1 RES1   0.0000
   205 C94      -2.1070   -7.0681   -5.1734   C.3       1 RES1   0.0000
   206 C95      -3.2454   -6.0594   -5.1888   C.3       1 RES1   0.0000
   207 C96      -4.6128   -6.7195   -5.3488   C.3       1 RES1   0.0000
   208 C97      -5.7441   -5.6834   -5.3691   C.3       1 RES1   0.0000
   209 C98      -6.2487   -5.3010   -6.7611   C.3       1 RES1   0.0000
   210 C99      -5.2013   -4.7151   -7.7064   C.3       1 RES1   0.0000
   211 C100     -5.8607   -4.0802   -8.9247   C.3       1 RES1   0.0000
   212 H101     -8.0851    0.0944    6.8362   H         1 RES1   0.0000
   213 H102     -8.0841   -1.3326    5.8017   H         1 RES1   0.0000
   214 H103     -9.5417   -0.8842    6.6846   H         1 RES1   0.0000
   215 H104     -8.2782    0.7405    4.4193   H         1 RES1   0.0000
   216 H105     -9.6476    1.2627    5.3928   H         1 RES1   0.0000
   217 H106    -10.4863    0.4136    3.3043   H         1 RES1   0.0000
   218 H107    -10.9961   -0.6316    4.6269   H         1 RES1   0.0000
   219 H108    -10.3916   -2.0190    2.7689   H         1 RES1   0.0000
   220 H109     -9.1886   -2.2457    4.0334   H         1 RES1   0.0000
   221 H110     -7.6598   -0.6723    2.8292   H         1 RES1   0.0000
   222 H111     -8.8889   -0.4413    1.5897   H         1 RES1   0.0000
   223 H112     -7.1565   -2.0070    0.8270   H         1 RES1   0.0000
   224 H113     -8.7475   -2.7465    0.8853   H         1 RES1   0.0000
   225 H114     -7.0380   -4.2894    1.6771   H         1 RES1   0.0000
   226 H115     -8.2676   -3.9606    2.8768   H         1 RES1   0.0000
   227 H116     -6.1761   -4.1452    3.9474   H         1 RES1   0.0000
   228 H117     -6.7273   -2.4914    4.1278   H         1 RES1   0.0000
   229 H118     -4.7374   -3.2660    1.9555   H         1 RES1   0.0000
   230 H119     -4.2270   -2.9801    3.6133   H         1 RES1   0.0000
   231 H120     -5.4460   -0.7092    3.4679   H         1 RES1   0.0000
   232 H121     -5.4273   -0.9346    1.7177   H         1 RES1   0.0000
   233 H122     -1.9667   -0.8547    3.9560   H         1 RES1   0.0000
   234 H123     -3.5648   -0.7435    4.7302   H         1 RES1   0.0000
   235 H124     -2.2315    1.4956    3.1551   H         1 RES1   0.0000
   236 H125     -1.9858    1.2529    4.8737   H         1 RES1   0.0000
   237 H126     -3.7463    2.5871    5.2802   H         1 RES1   0.0000
   238 H127     -4.8195    1.3966    4.5777   H         1 RES1   0.0000
   239 H128     -4.7250    2.4601    2.4015   H         1 RES1   0.0000
   240 H129     -3.3886    3.4950    2.9042   H         1 RES1   0.0000
   241 H130     -4.9125    4.5745    4.5930   H         1 RES1   0.0000
   242 H131     -6.2329    3.5919    3.9584   H         1 RES1   0.0000
   243 H132     -6.5444    5.5531    2.7560   H         1 RES1   0.0000
   244 H133     -5.5458    4.6365    1.6360   H         1 RES1   0.0000
   245 H134     -3.5302    5.8843    2.7738   H         1 RES1   0.0000
   246 H135     -4.7699    6.9107    3.4891   H         1 RES1   0.0000
   247 H136     -3.9739    6.6414    0.5706   H         1 RES1   0.0000
   248 H137     -3.9026    8.0581    1.5923   H         1 RES1   0.0000
   249 H138     -6.2962    8.3122    1.6111   H         1 RES1   0.0000
   250 H139     -6.5471    6.7908    0.7627   H         1 RES1   0.0000
   251 H140     -5.0899    9.2203   -0.3835   H         1 RES1   0.0000
   252 H141     -6.7263    8.7088   -0.7919   H         1 RES1   0.0000
   253 H142     -5.3531    7.7027   -1.2407   H         1 RES1   0.0000
   254 H143     -4.0980   -1.7317    0.1657   H         1 RES1   0.0000
   255 H144     -4.4300    0.7818    0.3071   H         1 RES1   0.0000
   256 H145     -2.8121    0.9682   -0.3935   H         1 RES1   0.0000
   257 H146     -4.7354   -0.7103   -1.9533   H         1 RES1   0.0000
   258 H147     -3.5361    0.4463   -2.5276   H         1 RES1   0.0000
   259 H148     -6.1744    1.2590   -1.2171   H         1 RES1   0.0000
   260 H149     -5.9796    1.0290   -2.9472   H         1 RES1   0.0000
   261 H150     -5.0791    2.2867   -2.1478   H         1 RES1   0.0000
   262 H151     -2.3070   -1.2853   -2.4906   H         1 RES1   0.0000
   263 H152     -4.2399   -2.5564   -1.8095   H         1 RES1   0.0000
   264 H153     -3.3524   -3.4574   -2.9907   H         1 RES1   0.0000
   265 H154     -3.1199   -3.9338    0.0094   H         1 RES1   0.0000
   266 H155     -2.5244   -4.9829   -1.2674   H         1 RES1   0.0000
   267 H156     -5.4899   -4.3326   -0.8397   H         1 RES1   0.0000
   268 H157     -4.7013   -5.8130   -0.3137   H         1 RES1   0.0000
   269 H158     -4.8254   -5.4502   -2.0279   H         1 RES1   0.0000
   270 H159      1.6354   -4.1692   -2.5643   H         1 RES1   0.0000
   271 H160      1.7034   -2.4073   -2.5899   H         1 RES1   0.0000
   272 H161      1.8938   -2.3423   -4.9841   H         1 RES1   0.0000
   273 H162      1.4959   -4.0531   -5.1684   H         1 RES1   0.0000
   274 H163      3.9338   -3.1753   -3.6040   H         1 RES1   0.0000
   275 H164      3.9437   -3.3548   -5.3447   H         1 RES1   0.0000
   276 H165      4.1792   -5.6015   -5.2129   H         1 RES1   0.0000
   277 H166      2.8008   -5.7556   -4.1437   H         1 RES1   0.0000
   278 H167      4.2754   -5.0996   -2.2168   H         1 RES1   0.0000
   279 H168      5.6577   -5.1051   -3.3137   H         1 RES1   0.0000
   280 H169      5.6798   -7.1487   -2.1243   H         1 RES1   0.0000
   281 H170      5.1963   -7.5408   -3.7713   H         1 RES1   0.0000
   282 H171      2.9133   -7.9183   -3.1106   H         1 RES1   0.0000
   283 H172      3.1328   -7.0593   -1.5852   H         1 RES1   0.0000
   284 H173      3.0166   -9.5114   -1.2743   H         1 RES1   0.0000
   285 H174      4.5191   -8.8089   -0.6808   H         1 RES1   0.0000
   286 H175      4.9348  -10.9204   -1.8206   H         1 RES1   0.0000
   287 H176      5.7360   -9.5957   -2.6545   H         1 RES1   0.0000
   288 H177      3.0908  -10.8637   -3.5306   H         1 RES1   0.0000
   289 H178      4.6759  -11.1964   -4.2273   H         1 RES1   0.0000
   290 H179      3.9638   -9.5953   -4.4027   H         1 RES1   0.0000
   291 H180     -0.5430   -3.7471   -5.0149   H         1 RES1   0.0000
   292 H181     -1.9227   -3.8387   -3.9523   H         1 RES1   0.0000
   293 H182     -1.2587   -5.9130   -3.0047   H         1 RES1   0.0000
   294 H183      0.4292   -5.6590   -3.4053   H         1 RES1   0.0000
   295 H184      0.0131   -7.2101   -5.0020   H         1 RES1   0.0000
   296 H185     -0.5193   -5.8149   -5.9310   H         1 RES1   0.0000
   297 H186     -2.2484   -7.7720   -4.3486   H         1 RES1   0.0000
   298 H187     -2.1335   -7.6419   -6.1013   H         1 RES1   0.0000
   299 H188     -3.0791   -5.3479   -5.9995   H         1 RES1   0.0000
   300 H189     -3.2529   -5.5069   -4.2461   H         1 RES1   0.0000
   301 H190     -4.7586   -7.4046   -4.5089   H         1 RES1   0.0000
   302 H191     -4.6355   -7.3162   -6.2611   H         1 RES1   0.0000
   303 H192     -5.4000   -4.7831   -4.8541   H         1 RES1   0.0000
   304 H193     -6.5987   -6.0721   -4.8117   H         1 RES1   0.0000
   305 H194     -7.0434   -4.5609   -6.6378   H         1 RES1   0.0000
   306 H195     -6.6939   -6.1786   -7.2301   H         1 RES1   0.0000
   307 H196     -4.5180   -5.4986   -8.0376   H         1 RES1   0.0000
   308 H197     -4.6130   -3.9568   -7.1818   H         1 RES1   0.0000
   309 H198     -6.4806   -4.8054   -9.4422   H         1 RES1   0.0000
   310 H199     -5.1139   -3.7135   -9.6229   H         1 RES1   0.0000
   311 H200     -6.4923   -3.2459   -8.6289   H         1 RES1   0.0000
   312 C101     -2.4768    4.2474   -9.2669   C.3       1 RES1   0.0000
   313 C102     -3.9006    4.1967   -8.7219   C.3       1 RES1   0.0000
   314 C103     -4.4425    5.5655   -8.2975   C.3       1 RES1   0.0000
   315 C104     -3.6649    6.2423   -7.1660   C.3       1 RES1   0.0000
   316 C105     -3.7404    5.4687   -5.8510   C.3       1 RES1   0.0000
   317 C106     -2.9939    6.1440   -4.6967   C.3       1 RES1   0.0000
   318 C107     -1.5066    6.4250   -4.9254   C.3       1 RES1   0.0000
   319 C108     -0.6121    5.2586   -5.3517   C.3       1 RES1   0.0000
   320 C109     -0.3670    4.1756   -4.2921   C.3       1 RES1   0.0000
   321 C110     -1.4257    3.0762   -4.3379   C.3       1 RES1   0.0000
   322 N5       -1.0493    1.8765   -3.5913   N.am      1 RES1   0.0000
   323 C111     -0.3402    0.8681   -4.3927   C.3       1 RES1   0.0000
   324 C112     -1.1161   -0.3258   -4.9806   C.3       1 RES1   0.0000
   325 C113     -2.3646   -0.0691   -5.8484   C.3       1 RES1   0.0000
   326 C114     -3.6956   -0.3135   -5.1194   C.3       1 RES1   0.0000
   327 C115     -4.7923   -0.9018   -6.0141   C.3       1 RES1   0.0000
   328 C116     -6.1671   -0.9219   -5.3281   C.3       1 RES1   0.0000
   329 C117     -6.3557   -2.0982   -4.3588   C.3       1 RES1   0.0000
   330 C118     -7.2016   -1.7858   -3.1220   C.3       1 RES1   0.0000
   331 C119     -8.6135   -1.2723   -3.3955   C.3       1 RES1   0.0000
   332 C120     -9.3095   -0.9025   -2.0877   C.3       1 RES1   0.0000
   333 C121     -1.0327    1.7071   -2.2671   C.2       1 RES1   0.0000
   334 O7       -0.7677    0.5856   -1.7936   O.2       1 RES1   0.0000
   335 C122     -1.2601    2.8764   -1.2763   C.3       1 RES1   0.0000
   336 C123     -2.6248    3.5772   -1.5175   C.3       1 RES1   0.0000
   337 C124     -3.5728    3.8468   -0.3442   C.3       1 RES1   0.0000
   338 C125     -4.8761    4.4575   -0.8954   C.3       1 RES1   0.0000
   339 O8       -1.0347    2.2959    0.0252   O.3       1 RES1   0.0000
   340 C126     -0.8109    3.1557    1.1658   C.3       1 RES1   0.0000
   341 C127     -0.2183    4.5178    0.7734   C.3       1 RES1   0.0000
   342 C128      1.2314    4.4368    0.2879   C.3       1 RES1   0.0000
   343 C129      2.2492    4.4734    1.4180   C.3       1 RES1   0.0000
   344 C130      0.1175    2.3708    2.1304   C.2       1 RES1   0.0000
   345 O9        0.6896    1.3556    1.6826   O.2       1 RES1   0.0000
   346 N6        0.3339    2.7832    3.3927   N.am      1 RES1   0.0000
   347 C131      1.5520    2.2951    4.0621   C.3       1 RES1   0.0000
   348 C132      1.4774    1.4885    5.3635   C.3       1 RES1   0.0000
   349 C133      2.8994    1.1566    5.8634   C.3       1 RES1   0.0000
   350 C134      3.8090    2.3573    6.1720   C.3       1 RES1   0.0000
   351 C135      5.1031    1.9190    6.8768   C.3       1 RES1   0.0000
   352 C136      6.1901    3.0035    6.9948   C.3       1 RES1   0.0000
   353 C137      6.8819    3.3340    5.6663   C.3       1 RES1   0.0000
   354 C138      8.3647    3.7100    5.7809   C.3       1 RES1   0.0000
   355 C139      8.6653    4.9649    6.5992   C.3       1 RES1   0.0000
   356 C140      7.8810    6.1899    6.1353   C.3       1 RES1   0.0000
   357 C141     -0.2108    4.0392    3.9023   C.3       1 RES1   0.0000
   358 C142     -0.1541    4.2419    5.4158   C.3       1 RES1   0.0000
   359 C143     -0.6638    5.6399    5.7990   C.3       1 RES1   0.0000
   360 C144      0.1259    6.8121    5.1881   C.3       1 RES1   0.0000
   361 C145     -0.4607    7.3532    3.8745   C.3       1 RES1   0.0000
   362 C146     -0.4054    8.8843    3.7443   C.3       1 RES1   0.0000
   363 C147     -1.5053    9.4287    2.8164   C.3       1 RES1   0.0000
   364 C148     -2.6967   10.0625    3.5458   C.3       1 RES1   0.0000
   365 C149     -3.2848    9.2359    4.6926   C.3       1 RES1   0.0000
   366 C150     -4.7113    9.6556    5.0339   C.3       1 RES1   0.0000
   367 H201     -2.1900    3.2714   -9.6518   H         1 RES1   0.0000
   368 H202     -1.7610    4.5330   -8.4982   H         1 RES1   0.0000
   369 H203     -2.4088    4.9659  -10.0794   H         1 RES1   0.0000
   370 H204     -3.9524    3.4984   -7.8812   H         1 RES1   0.0000
   371 H205     -4.5567    3.8080   -9.5034   H         1 RES1   0.0000
   372 H206     -5.4867    5.4492   -7.9931   H         1 RES1   0.0000
   373 H207     -4.4264    6.2266   -9.1660   H         1 RES1   0.0000
   374 H208     -4.0815    7.2381   -7.0077   H         1 RES1   0.0000
   375 H209     -2.6257    6.3651   -7.4697   H         1 RES1   0.0000
   376 H210     -3.3645    4.4533   -5.9992   H         1 RES1   0.0000
   377 H211     -4.7932    5.3823   -5.5596   H         1 RES1   0.0000
   378 H212     -3.1286    5.5427   -3.7927   H         1 RES1   0.0000
   379 H213     -3.4718    7.1071   -4.5050   H         1 RES1   0.0000
   380 H214     -1.1024    6.8637   -4.0101   H         1 RES1   0.0000
   381 H215     -1.4270    7.1866   -5.7000   H         1 RES1   0.0000
   382 H216      0.3555    5.6863   -5.6175   H         1 RES1   0.0000
   383 H217     -1.0160    4.7972   -6.2520   H         1 RES1   0.0000
   384 H218     -0.3452    4.6371   -3.3052   H         1 RES1   0.0000
   385 H219      0.6114    3.7173   -4.4602   H         1 RES1   0.0000
   386 H220     -1.5575    2.7626   -5.3736   H         1 RES1   0.0000
   387 H221     -2.3833    3.4593   -4.0015   H         1 RES1   0.0000
   388 H222      0.4415    0.4480   -3.7479   H         1 RES1   0.0000
   389 H223      0.1450    1.4107   -5.2072   H         1 RES1   0.0000
   390 H224     -1.3854   -1.0059   -4.1727   H         1 RES1   0.0000
   391 H225     -0.3682   -0.8519   -5.5770   H         1 RES1   0.0000
   392 H226     -2.3168   -0.7430   -6.7093   H         1 RES1   0.0000
   393 H227     -2.3459    0.9464   -6.2519   H         1 RES1   0.0000
   394 H228     -4.0601    0.6245   -4.6977   H         1 RES1   0.0000
   395 H229     -3.5281   -1.0105   -4.2960   H         1 RES1   0.0000
   396 H230     -4.5171   -1.9201   -6.2996   H         1 RES1   0.0000
   397 H231     -4.8580   -0.3081   -6.9286   H         1 RES1   0.0000
   398 H232     -6.9383   -0.9743   -6.0960   H         1 RES1   0.0000
   399 H233     -6.3007    0.0279   -4.8055   H         1 RES1   0.0000
   400 H234     -5.3745   -2.4314   -4.0103   H         1 RES1   0.0000
   401 H235     -6.8110   -2.9308   -4.8941   H         1 RES1   0.0000
   402 H236     -6.6905   -1.0378   -2.5153   H         1 RES1   0.0000
   403 H237     -7.2855   -2.6937   -2.5189   H         1 RES1   0.0000
   404 H238     -9.1936   -2.0381   -3.9122   H         1 RES1   0.0000
   405 H239     -8.5787   -0.3935   -4.0407   H         1 RES1   0.0000
   406 H240     -9.3722   -1.7692   -1.4333   H         1 RES1   0.0000
   407 H241    -10.3175   -0.5403   -2.2710   H         1 RES1   0.0000
   408 H242     -8.7572   -0.1213   -1.5657   H         1 RES1   0.0000
   409 H243     -0.4416    3.5733   -1.4862   H         1 RES1   0.0000
   410 H244     -2.4467    4.5521   -1.9835   H         1 RES1   0.0000
   411 H245     -3.1873    2.9657   -2.2232   H         1 RES1   0.0000
   412 H246     -3.1161    4.5411    0.3624   H         1 RES1   0.0000
   413 H247     -3.7893    2.9201    0.1879   H         1 RES1   0.0000
   414 H248     -4.7685    4.7265   -1.9456   H         1 RES1   0.0000
   415 H249     -5.1333    5.3670   -0.3655   H         1 RES1   0.0000
   416 H250     -5.7159    3.7777   -0.7883   H         1 RES1   0.0000
   417 H251     -1.7807    3.2993    1.6684   H         1 RES1   0.0000
   418 H252     -0.8425    4.9555   -0.0075   H         1 RES1   0.0000
   419 H253     -0.2764    5.2021    1.6136   H         1 RES1   0.0000
   420 H254      1.3973    5.2875   -0.3784   H         1 RES1   0.0000
   421 H255      1.3732    3.5062   -0.2704   H         1 RES1   0.0000
   422 H256      2.0539    5.3145    2.0785   H         1 RES1   0.0000
   423 H257      3.2537    4.5879    1.0241   H         1 RES1   0.0000
   424 H258      2.2263    3.5455    1.9815   H         1 RES1   0.0000
   425 H259      2.1708    3.1797    4.2447   H         1 RES1   0.0000
   426 H260      2.0547    1.6446    3.3440   H         1 RES1   0.0000
   427 H261      0.9373    0.5536    5.1774   H         1 RES1   0.0000
   428 H262      0.9536    2.0270    6.1517   H         1 RES1   0.0000
   429 H263      3.4049    0.5225    5.1309   H         1 RES1   0.0000
   430 H264      2.7932    0.5722    6.7797   H         1 RES1   0.0000
   431 H265      3.2816    3.0649    6.8138   H         1 RES1   0.0000
   432 H266      4.0744    2.8774    5.2490   H         1 RES1   0.0000
   433 H267      5.5357    1.0690    6.3436   H         1 RES1   0.0000
   434 H268      4.8506    1.5731    7.8820   H         1 RES1   0.0000
   435 H269      6.9491    2.6341    7.6887   H         1 RES1   0.0000
   436 H270      5.7645    3.9086    7.4344   H         1 RES1   0.0000
   437 H271      6.3467    4.1281    5.1454   H         1 RES1   0.0000
   438 H272      6.8484    2.4474    5.0418   H         1 RES1   0.0000
   439 H273      8.7529    3.8538    4.7653   H         1 RES1   0.0000
   440 H274      8.9092    2.8684    6.2184   H         1 RES1   0.0000
   441 H275      9.7354    5.1742    6.5131   H         1 RES1   0.0000
   442 H276      8.4527    4.7766    7.6556   H         1 RES1   0.0000
   443 H277      7.9471    6.3038    5.0514   H         1 RES1   0.0000
   444 H278      8.2801    7.0890    6.5960   H         1 RES1   0.0000
   445 H279      6.8319    6.1050    6.4166   H         1 RES1   0.0000
   446 H280     -1.2521    4.1209    3.5860   H         1 RES1   0.0000
   447 H281      0.3659    4.8548    3.4643   H         1 RES1   0.0000
   448 H282      0.8751    4.1576    5.7733   H         1 RES1   0.0000
   449 H283     -0.7626    3.4905    5.9239   H         1 RES1   0.0000
   450 H284     -0.5933    5.7026    6.8850   H         1 RES1   0.0000
   451 H285     -1.7224    5.7383    5.5456   H         1 RES1   0.0000
   452 H286      1.1732    6.5260    5.0666   H         1 RES1   0.0000
   453 H287      0.1150    7.6240    5.9123   H         1 RES1   0.0000
   454 H288     -1.5031    7.0445    3.8093   H         1 RES1   0.0000
   455 H289      0.0495    6.9321    3.0030   H         1 RES1   0.0000
   456 H290      0.5814    9.1665    3.3668   H         1 RES1   0.0000
   457 H291     -0.5201    9.3506    4.7223   H         1 RES1   0.0000
   458 H292     -1.8664    8.6207    2.1756   H         1 RES1   0.0000
   459 H293     -1.0858   10.1949    2.1634   H         1 RES1   0.0000
   460 H294     -3.4812   10.2469    2.8072   H         1 RES1   0.0000
   461 H295     -2.3966   11.0331    3.9410   H         1 RES1   0.0000
   462 H296     -2.6665    9.3519    5.5840   H         1 RES1   0.0000
   463 H297     -3.2817    8.1785    4.4263   H         1 RES1   0.0000
   464 H298     -4.7572   10.7110    5.2843   H         1 RES1   0.0000
   465 H299     -5.0787    9.0895    5.8871   H         1 RES1   0.0000
   466 H300     -5.3810    9.4808    4.1942   H         1 RES1   0.0000
@<TRIPOS>BOND
     1     1    24    1
     2     1    29    1
     3     1    35    1
     4     1   179    1
     5     1   184    1
     6     1   190    1
     7     1   334    1
     8     1   339    1
     9     1   345    1
    10     2     3    1
    11     2    57    1
    12     2    58    1
    13     2    59    1
    14     3     4    1
    15     3    60    1
    16     3    61    1
    17     4     5    1
    18     4    62    1
    19     4    63    1
    20     5     6    1
    21     5    64    1
    22     5    65    1
    23     6     7    1
    24     6    66    1
    25     6    67    1
    26     7     8    1
    27     7    68    1
    28     7    69    1
    29     8     9    1
    30     8    70    1
    31     8    71    1
    32     9    10    1
    33     9    72    1
    34     9    73    1
    35    10    11    1
    36    10    74    1
    37    10    75    1
    38    11    12    1
    39    11    76    1
    40    11    77    1
    41    12    13    1
    42    12    23    1
    43    13    14    1
    44    13    78    1
    45    13    79    1
    46    14    15    1
    47    14    80    1
    48    14    81    1
    49    15    16    1
    50    15    82    1
    51    15    83    1
    52    16    17    1
    53    16    84    1
    54    16    85    1
    55    17    18    1
    56    17    86    1
    57    17    87    1
    58    18    19    1
    59    18    88    1
    60    18    89    1
    61    19    20    1
    62    19    90    1
    63    19    91    1
    64    20    21    1
    65    20    92    1
    66    20    93    1
    67    21    22    1
    68    21    94    1
    69    21    95    1
    70    22    96    1
    71    22    97    1
    72    22    98    1
    73    23    24    2
    74    23    25    1
    75    25    26    1
    76    25    29    1
    77    25    99    1
    78    26    27    1
    79    26   100    1
    80    26   101    1
    81    27    28    1
    82    27   102    1
    83    27   103    1
    84    28   104    1
    85    28   105    1
    86    28   106    1
    87    29    30    1
    88    30    31    1
    89    30    34    1
    90    30   107    1
    91    31    32    1
    92    31   108    1
    93    31   109    1
    94    32    33    1
    95    32   110    1
    96    32   111    1
    97    33   112    1
    98    33   113    1
    99    33   114    1
   100    34    35    2
   101    34    36    1
   102    36    37    1
   103    36    47    1
   104    37    38    1
   105    37   115    1
   106    37   116    1
   107    38    39    1
   108    38   117    1
   109    38   118    1
   110    39    40    1
   111    39   119    1
   112    39   120    1
   113    40    41    1
   114    40   121    1
   115    40   122    1
   116    41    42    1
   117    41   123    1
   118    41   124    1
   119    42    43    1
   120    42   125    1
   121    42   126    1
   122    43    44    1
   123    43   127    1
   124    43   128    1
   125    44    45    1
   126    44   129    1
   127    44   130    1
   128    45    46    1
   129    45   131    1
   130    45   132    1
   131    46   133    1
   132    46   134    1
   133    46   135    1
   134    47    48    1
   135    47   136    1
   136    47   137    1
   137    48    49    1
   138    48   138    1
   139    48   139    1
   140    49    50    1
   141    49   140    1
   142    49   141    1
   143    50    51    1
   144    50   142    1
   145    50   143    1
   146    51    52    1
   147    51   144    1
   148    51   145    1
   149    52    53    1
   150    52   146    1
   151    52   147    1
   152    53    54    1
   153    53   148    1
   154    53   149    1
   155    54    55    1
   156    54   150    1
   157    54   151    1
   158    55    56    1
   159    55   152    1
   160    55   153    1
   161    56   154    1
   162    56   155    1
   163    56   156    1
   164   157   158    1
   165   157   212    1
   166   157   213    1
   167   157   214    1
   168   158   159    1
   169   158   215    1
   170   158   216    1
   171   159   160    1
   172   159   217    1
   173   159   218    1
   174   160   161    1
   175   160   219    1
   176   160   220    1
   177   161   162    1
   178   161   221    1
   179   161   222    1
   180   162   163    1
   181   162   223    1
   182   162   224    1
   183   163   164    1
   184   163   225    1
   185   163   226    1
   186   164   165    1
   187   164   227    1
   188   164   228    1
   189   165   166    1
   190   165   229    1
   191   165   230    1
   192   166   167    1
   193   166   231    1
   194   166   232    1
   195   167   168    1
   196   167   178    1
   197   168   169    1
   198   168   233    1
   199   168   234    1
   200   169   170    1
   201   169   235    1
   202   169   236    1
   203   170   171    1
   204   170   237    1
   205   170   238    1
   206   171   172    1
   207   171   239    1
   208   171   240    1
   209   172   173    1
   210   172   241    1
   211   172   242    1
   212   173   174    1
   213   173   243    1
   214   173   244    1
   215   174   175    1
   216   174   245    1
   217   174   246    1
   218   175   176    1
   219   175   247    1
   220   175   248    1
   221   176   177    1
   222   176   249    1
   223   176   250    1
   224   177   251    1
   225   177   252    1
   226   177   253    1
   227   178   179    2
   228   178   180    1
   229   180   181    1
   230   180   184    1
   231   180   254    1
   232   181   182    1
   233   181   255    1
   234   181   256    1
   235   182   183    1
   236   182   257    1
   237   182   258    1
   238   183   259    1
   239   183   260    1
   240   183   261    1
   241   184   185    1
   242   185   186    1
   243   185   189    1
   244   185   262    1
   245   186   187    1
   246   186   263    1
   247   186   264    1
   248   187   188    1
   249   187   265    1
   250   187   266    1
   251   188   267    1
   252   188   268    1
   253   188   269    1
   254   189   190    2
   255   189   191    1
   256   191   192    1
   257   191   202    1
   258   192   193    1
   259   192   270    1
   260   192   271    1
   261   193   194    1
   262   193   272    1
   263   193   273    1
   264   194   195    1
   265   194   274    1
   266   194   275    1
   267   195   196    1
   268   195   276    1
   269   195   277    1
   270   196   197    1
   271   196   278    1
   272   196   279    1
   273   197   198    1
   274   197   280    1
   275   197   281    1
   276   198   199    1
   277   198   282    1
   278   198   283    1
   279   199   200    1
   280   199   284    1
   281   199   285    1
   282   200   201    1
   283   200   286    1
   284   200   287    1
   285   201   288    1
   286   201   289    1
   287   201   290    1
   288   202   203    1
   289   202   291    1
   290   202   292    1
   291   203   204    1
   292   203   293    1
   293   203   294    1
   294   204   205    1
   295   204   295    1
   296   204   296    1
   297   205   206    1
   298   205   297    1
   299   205   298    1
   300   206   207    1
   301   206   299    1
   302   206   300    1
   303   207   208    1
   304   207   301    1
   305   207   302    1
   306   208   209    1
   307   208   303    1
   308   208   304    1
   309   209   210    1
   310   209   305    1
   311   209   306    1
   312   210   211    1
   313   210   307    1
   314   210   308    1
   315   211   309    1
   316   211   310    1
   317   211   311    1
   318   312   313    1
   319   312   367    1
   320   312   368    1
   321   312   369    1
   322   313   314    1
   323   313   370    1
   324   313   371    1
   325   314   315    1
   326   314   372    1
   327   314   373    1
   328   315   316    1
   329   315   374    1
   330   315   375    1
   331   316   317    1
   332   316   376    1
   333   316   377    1
   334   317   318    1
   335   317   378    1
   336   317   379    1
   337   318   319    1
   338   318   380    1
   339   318   381    1
   340   319   320    1
   341   319   382    1
   342   319   383    1
   343   320   321    1
   344   320   384    1
   345   320   385    1
   346   321   322    1
   347   321   386    1
   348   321   387    1
   349   322   323    1
   350   322   333    1
   351   323   324    1
   352   323   388    1
   353   323   389    1
   354   324   325    1
   355   324   390    1
   356   324   391    1
   357   325   326    1
   358   325   392    1
   359   325   393    1
   360   326   327    1
   361   326   394    1
   362   326   395    1
   363   327   328    1
   364   327   396    1
   365   327   397    1
   366   328   329    1
   367   328   398    1
   368   328   399    1
   369   329   330    1
   370   329   400    1
   371   329   401    1
   372   330   331    1
   373   330   402    1
   374   330   403    1
   375   331   332    1
   376   331   404    1
   377   331   405    1
   378   332   406    1
   379   332   407    1
   380   332   408    1
   381   333   334    2
   382   333   335    1
   383   335   336    1
   384   335   339    1
   385   335   409    1
   386   336   337    1
   387   336   410    1
   388   336   411    1
   389   337   338    1
   390   337   412    1
   391   337   413    1
   392   338   414    1
   393   338   415    1
   394   338   416    1
   395   339   340    1
   396   340   341    1
   397   340   344    1
   398   340   417    1
   399   341   342    1
   400   341   418    1
   401   341   419    1
   402   342   343    1
   403   342   420    1
   404   342   421    1
   405   343   422    1
   406   343   423    1
   407   343   424    1
   408   344   345    2
   409   344   346    1
   410   346   347    1
   411   346   357    1
   412   347   348    1
   413   347   425    1
   414   347   426    1
   415   348   349    1
   416   348   427    1
   417   348   428    1
   418   349   350    1
   419   349   429    1
   420   349   430    1
   421   350   351    1
   422   350   431    1
   423   350   432    1
   424   351   352    1
   425   351   433    1
   426   351   434    1
   427   352   353    1
   428   352   435    1
   429   352   436    1
   430   353   354    1
   431   353   437    1
   432   353   438    1
   433   354   355    1
   434   354   439    1
   435   354   440    1
   436   355   356    1
   437   355   441    1
   438   355   442    1
   439   356   443    1
   440   356   444    1
   441   356   445    1
   442   357   358    1
   443   357   446    1
   444   357   447    1
   445   358   359    1
   446   358   448    1
   447   358   449    1
   448   359   360    1
   449   359   450    1
   450   359   451    1
   451   360   361    1
   452   360   452    1
   453   360   453    1
   454   361   362    1
   455   361   454    1
   456   361   455    1
   457   362   363    1
   458   362   456    1
   459   362   457    1
   460   363   364    1
   461   363   458    1
   462   363   459    1
   463   364   365    1
   464   364   460    1
   465   364   461    1
   466   365   366    1
   467   365   462    1
   468   365   463    1
   469   366   464    1
   470   366   465    1
   471   366   466    1
@<TRIPOS>SUBSTRUCTURE
     1 RES1      466 GROUP             0 ****  ****    0  
