@<TRIPOS>MOLECULE
capped_square_antiprismatic_0_nunpairedes_0_charge_3 Charge: 3 Unpaired_Electrons: 6 XTB_Unpaired_Electrons: 0 XTB_Charge: 3
   172   186     1     0     0
SMALL
NoCharges
****
Generated from Architector

@<TRIPOS>ATOM
     1 Eu1      -0.0176    0.0646    0.0025   Eu        1 RES1   0.0000
     2 C1       -3.9237    2.8362    4.7134   C.3       1 RES1   0.0000
     3 C2       -2.5051    3.0499    4.2082   C.3       1 RES1   0.0000
     4 N1       -2.3475    2.6843    2.8081   N.am      1 RES1   0.0000
     5 C3       -1.6186    1.6671    2.3512   C.2       1 RES1   0.0000
     6 O1       -1.3627    1.5660    1.1335   O.2       1 RES1   0.0000
     7 C4       -1.0552    0.5702    3.2239   C.ar      1 RES1   0.0000
     8 C5       -1.6082    0.0365    4.3875   C.ar      1 RES1   0.0000
     9 C6       -0.9804   -1.0624    4.9666   C.ar      1 RES1   0.0000
    10 C7        0.1371   -1.6294    4.3650   C.ar      1 RES1   0.0000
    11 C8        0.6052   -1.0603    3.1800   C.ar      1 RES1   0.0000
    12 C9        1.6220   -1.6605    2.2350   C.2       1 RES1   0.0000
    13 O2        1.4205   -1.4562    1.0192   O.2       1 RES1   0.0000
    14 N2        2.6235   -2.4383    2.6377   N.am      1 RES1   0.0000
    15 C10       3.1409   -2.5925    3.9892   C.3       1 RES1   0.0000
    16 C11       2.9479   -4.0102    4.5074   C.3       1 RES1   0.0000
    17 C12       3.3550   -3.1463    1.6188   C.ar      1 RES1   0.0000
    18 C13       4.6957   -2.8548    1.4000   C.ar      1 RES1   0.0000
    19 C14       5.4213   -3.5760    0.4667   C.ar      1 RES1   0.0000
    20 C15       4.8055   -4.5817   -0.2589   C.ar      1 RES1   0.0000
    21 C16       3.4646   -4.8526   -0.0520   C.ar      1 RES1   0.0000
    22 C17       2.7162   -4.1541    0.8887   C.ar      1 RES1   0.0000
    23 C18       1.2785   -4.5275    1.1183   C.3       1 RES1   0.0000
    24 N3        0.0048    0.0034    2.6447   N.ar      1 RES1   0.0000
    25 C19      -3.0024    3.5295    1.8472   C.ar      1 RES1   0.0000
    26 C20      -2.7885    4.9052    1.8765   C.ar      1 RES1   0.0000
    27 C21      -3.4993    5.7435    1.0382   C.ar      1 RES1   0.0000
    28 C22      -4.4401    5.2174    0.1678   C.ar      1 RES1   0.0000
    29 C23      -4.6194    3.8470    0.1124   C.ar      1 RES1   0.0000
    30 C24      -3.9063    2.9782    0.9306   C.ar      1 RES1   0.0000
    31 C25      -4.1500    1.5037    0.8377   C.3       1 RES1   0.0000
    32 H1       -3.9654    3.1182    5.7602   H         1 RES1   0.0000
    33 H2       -4.2427    1.8020    4.6187   H         1 RES1   0.0000
    34 H3       -4.6154    3.4661    4.1647   H         1 RES1   0.0000
    35 H4       -1.7935    2.4888    4.8115   H         1 RES1   0.0000
    36 H5       -2.2693    4.1105    4.2975   H         1 RES1   0.0000
    37 H6       -2.5098    0.4279    4.8329   H         1 RES1   0.0000
    38 H7       -1.3877   -1.4917    5.8723   H         1 RES1   0.0000
    39 H8        0.6040   -2.5004    4.8010   H         1 RES1   0.0000
    40 H9        2.6844   -1.8650    4.6573   H         1 RES1   0.0000
    41 H10       4.2126   -2.3869    3.9513   H         1 RES1   0.0000
    42 H11       1.9010   -4.2962    4.5555   H         1 RES1   0.0000
    43 H12       3.3666   -4.0880    5.5044   H         1 RES1   0.0000
    44 H13       3.4671   -4.7114    3.8627   H         1 RES1   0.0000
    45 H14       5.1832   -2.0606    1.9472   H         1 RES1   0.0000
    46 H15       6.4667   -3.3598    0.3164   H         1 RES1   0.0000
    47 H16       5.3616   -5.1714   -0.9715   H         1 RES1   0.0000
    48 H17       2.9790   -5.6331   -0.6208   H         1 RES1   0.0000
    49 H18       1.1299   -4.8899    2.1364   H         1 RES1   0.0000
    50 H19       0.9893   -5.3206    0.4306   H         1 RES1   0.0000
    51 H20       0.6195   -3.6719    0.9577   H         1 RES1   0.0000
    52 H21      -2.0639    5.3334    2.5546   H         1 RES1   0.0000
    53 H22      -3.3435    6.8092    1.0834   H         1 RES1   0.0000
    54 H23      -5.0508    5.8612   -0.4458   H         1 RES1   0.0000
    55 H24      -5.3546    3.4281   -0.5584   H         1 RES1   0.0000
    56 H25      -5.1580    1.2984    0.4828   H         1 RES1   0.0000
    57 H26      -4.0284    1.0363    1.8150   H         1 RES1   0.0000
    58 H27      -3.4322    1.0370    0.1472   H         1 RES1   0.0000
    59 C26       3.9274   -3.0469   -3.6408   C.3       1 RES1   0.0000
    60 C27       3.1792   -1.9047   -4.3201   C.3       1 RES1   0.0000
    61 N4        2.6417   -0.9522   -3.3626   N.am      1 RES1   0.0000
    62 C28       1.6278   -1.0921   -2.5099   C.2       1 RES1   0.0000
    63 O3        1.3766   -0.1466   -1.7322   O.2       1 RES1   0.0000
    64 C29       0.7030   -2.2872   -2.3967   C.ar      1 RES1   0.0000
    65 C30       0.6305   -3.4344   -3.1860   C.ar      1 RES1   0.0000
    66 C31      -0.3469   -4.3793   -2.8967   C.ar      1 RES1   0.0000
    67 C32      -1.1975   -4.2035   -1.8150   C.ar      1 RES1   0.0000
    68 C33      -1.0495   -3.0436   -1.0565   C.ar      1 RES1   0.0000
    69 C34      -1.7752   -2.6697    0.2092   C.2       1 RES1   0.0000
    70 O4       -1.4549   -1.5877    0.7494   O.2       1 RES1   0.0000
    71 N5       -2.6353   -3.4751    0.8280   N.am      1 RES1   0.0000
    72 C35      -3.1295   -3.0189    2.1257   C.3       1 RES1   0.0000
    73 C36      -4.0404   -1.8106    1.9827   C.3       1 RES1   0.0000
    74 C37      -3.2926   -4.6301    0.3174   C.ar      1 RES1   0.0000
    75 C38      -4.1402   -4.4944   -0.7795   C.ar      1 RES1   0.0000
    76 C39      -4.8494   -5.5922   -1.2332   C.ar      1 RES1   0.0000
    77 C40      -4.7321   -6.8073   -0.5731   C.ar      1 RES1   0.0000
    78 C41      -3.8859   -6.9270    0.5163   C.ar      1 RES1   0.0000
    79 C42      -3.1448   -5.8482    0.9865   C.ar      1 RES1   0.0000
    80 C43      -2.1935   -5.9808    2.1405   C.3       1 RES1   0.0000
    81 N6       -0.1404   -2.1206   -1.3735   N.ar      1 RES1   0.0000
    82 C44       3.3928    0.2769   -3.2409   C.ar      1 RES1   0.0000
    83 C45       4.6534    0.2311   -2.6579   C.ar      1 RES1   0.0000
    84 C46       5.4389    1.3678   -2.6112   C.ar      1 RES1   0.0000
    85 C47       4.9591    2.5600   -3.1287   C.ar      1 RES1   0.0000
    86 C48       3.6770    2.6144   -3.6411   C.ar      1 RES1   0.0000
    87 C49       2.8731    1.4817   -3.7106   C.ar      1 RES1   0.0000
    88 C50       1.4882    1.6055   -4.2712   C.3       1 RES1   0.0000
    89 H28       4.1399   -3.8309   -4.3617   H         1 RES1   0.0000
    90 H29       3.3438   -3.4569   -2.8190   H         1 RES1   0.0000
    91 H30       4.8765   -2.6987   -3.2476   H         1 RES1   0.0000
    92 H31       2.3817   -2.2907   -4.9558   H         1 RES1   0.0000
    93 H32       3.8601   -1.3503   -4.9683   H         1 RES1   0.0000
    94 H33       1.2945   -3.6279   -4.0101   H         1 RES1   0.0000
    95 H34      -0.4391   -5.2627   -3.5142   H         1 RES1   0.0000
    96 H35      -1.9442   -4.9443   -1.5823   H         1 RES1   0.0000
    97 H36      -2.2661   -2.7664    2.7465   H         1 RES1   0.0000
    98 H37      -3.6712   -3.8411    2.5873   H         1 RES1   0.0000
    99 H38      -3.4666   -0.9437    1.6704   H         1 RES1   0.0000
   100 H39      -4.5230   -1.6150    2.9345   H         1 RES1   0.0000
   101 H40      -4.8034   -2.0099    1.2364   H         1 RES1   0.0000
   102 H41      -4.2168   -3.5331   -1.2757   H         1 RES1   0.0000
   103 H42      -5.4889   -5.4999   -2.0972   H         1 RES1   0.0000
   104 H43      -5.2989   -7.6641   -0.9067   H         1 RES1   0.0000
   105 H44      -3.7874   -7.8851    0.9991   H         1 RES1   0.0000
   106 H45      -1.6976   -6.9481    2.1169   H         1 RES1   0.0000
   107 H46      -2.7126   -5.9103    3.0987   H         1 RES1   0.0000
   108 H47      -1.4399   -5.1953    2.0974   H         1 RES1   0.0000
   109 H48       5.0096   -0.6947   -2.2320   H         1 RES1   0.0000
   110 H49       6.4207    1.3206   -2.1699   H         1 RES1   0.0000
   111 H50       5.5734    3.4458   -3.1221   H         1 RES1   0.0000
   112 H51       3.2771    3.5478   -4.0081   H         1 RES1   0.0000
   113 H52       1.5170    1.8857   -5.3259   H         1 RES1   0.0000
   114 H53       0.9528    2.3864   -3.7277   H         1 RES1   0.0000
   115 H54       0.9453    0.6704   -4.1639   H         1 RES1   0.0000
   116 C51      -4.0314    3.2042   -4.0695   C.3       1 RES1   0.0000
   117 C52      -2.7578    2.4338   -4.4036   C.3       1 RES1   0.0000
   118 N7       -2.4801    1.4182   -3.4058   N.am      1 RES1   0.0000
   119 C53      -1.7240    1.5137   -2.3164   C.2       1 RES1   0.0000
   120 O5       -1.6206    0.5182   -1.5681   O.2       1 RES1   0.0000
   121 C54      -0.9501    2.7425   -1.8965   C.ar      1 RES1   0.0000
   122 C55      -1.2674    4.0818   -2.1129   C.ar      1 RES1   0.0000
   123 C56      -0.4818    5.0567   -1.5067   C.ar      1 RES1   0.0000
   124 C57       0.5703    4.6972   -0.6757   C.ar      1 RES1   0.0000
   125 C58       0.7985    3.3346   -0.4803   C.ar      1 RES1   0.0000
   126 C59       1.6937    2.6959    0.5463   C.2       1 RES1   0.0000
   127 O6        1.4445    1.5053    0.8284   O.2       1 RES1   0.0000
   128 N8        2.6218    3.3427    1.2458   N.am      1 RES1   0.0000
   129 C60       3.2430    2.5595    2.3108   C.3       1 RES1   0.0000
   130 C61       4.1797    1.4750    1.7925   C.3       1 RES1   0.0000
   131 C62       3.2102    4.5940    0.9128   C.ar      1 RES1   0.0000
   132 C63       3.7967    4.7164   -0.3449   C.ar      1 RES1   0.0000
   133 C64       4.4344    5.8903   -0.6965   C.ar      1 RES1   0.0000
   134 C65       4.4943    6.9351    0.2146   C.ar      1 RES1   0.0000
   135 C66       3.8951    6.8082    1.4560   C.ar      1 RES1   0.0000
   136 C67       3.2370    5.6430    1.8388   C.ar      1 RES1   0.0000
   137 C68       2.5589    5.5459    3.1768   C.3       1 RES1   0.0000
   138 N9        0.0634    2.4074   -1.0955   N.ar      1 RES1   0.0000
   139 C69      -3.2225    0.1840   -3.5294   C.ar      1 RES1   0.0000
   140 C70      -4.4465    0.0852   -2.8812   C.ar      1 RES1   0.0000
   141 C71      -5.1982   -1.0691   -2.9967   C.ar      1 RES1   0.0000
   142 C72      -4.7103   -2.1420   -3.7244   C.ar      1 RES1   0.0000
   143 C73      -3.4672   -2.0574   -4.3219   C.ar      1 RES1   0.0000
   144 C74      -2.7082   -0.8929   -4.2490   C.ar      1 RES1   0.0000
   145 C75      -1.3770   -0.8219   -4.9346   C.3       1 RES1   0.0000
   146 H55      -4.1770    4.0069   -4.7878   H         1 RES1   0.0000
   147 H56      -3.9842    3.6196   -3.0636   H         1 RES1   0.0000
   148 H57      -4.8878    2.5397   -4.1284   H         1 RES1   0.0000
   149 H58      -1.9087    3.1108   -4.4912   H         1 RES1   0.0000
   150 H59      -2.8933    1.9295   -5.3628   H         1 RES1   0.0000
   151 H60      -2.1094    4.3951   -2.7057   H         1 RES1   0.0000
   152 H61      -0.7147    6.1007   -1.6654   H         1 RES1   0.0000
   153 H62       1.1812    5.4518   -0.2014   H         1 RES1   0.0000
   154 H63       2.4323    2.0792    2.8645   H         1 RES1   0.0000
   155 H64       3.7793    3.2451    2.9606   H         1 RES1   0.0000
   156 H65       3.6273    0.7194    1.2347   H         1 RES1   0.0000
   157 H66       4.6549    1.0135    2.6534   H         1 RES1   0.0000
   158 H67       4.9446    1.9020    1.1509   H         1 RES1   0.0000
   159 H68       3.7460    3.8789   -1.0317   H         1 RES1   0.0000
   160 H69       4.8834    5.9897   -1.6726   H         1 RES1   0.0000
   161 H70       5.0053    7.8511   -0.0404   H         1 RES1   0.0000
   162 H71       3.9295    7.6439    2.1363   H         1 RES1   0.0000
   163 H72       2.1137    6.5030    3.4438   H         1 RES1   0.0000
   164 H73       3.2738    5.3038    3.9669   H         1 RES1   0.0000
   165 H74       1.7811    4.7818    3.1663   H         1 RES1   0.0000
   166 H75      -4.8058    0.9131   -2.2887   H         1 RES1   0.0000
   167 H76      -6.1627   -1.1260   -2.5203   H         1 RES1   0.0000
   168 H77      -5.2912   -3.0455   -3.8227   H         1 RES1   0.0000
   169 H78      -3.0796   -2.9008   -4.8741   H         1 RES1   0.0000
   170 H79      -1.4959   -0.8862   -6.0176   H         1 RES1   0.0000
   171 H80      -0.7484   -1.6590   -4.6252   H         1 RES1   0.0000
   172 H81      -0.8770    0.1117   -4.6882   H         1 RES1   0.0000
@<TRIPOS>BOND
     1     1     6    1
     2     1    13    1
     3     1    24    1
     4     1    63    1
     5     1    70    1
     6     1    81    1
     7     1   120    1
     8     1   127    1
     9     1   138    1
    10     2     3    1
    11     2    32    1
    12     2    33    1
    13     2    34    1
    14     3     4    1
    15     3    35    1
    16     3    36    1
    17     4     5    1
    18     4    25    1
    19     5     6    2
    20     5     7    1
    21     7     8    1
    22     7    24    2
    23     8     9    2
    24     8    37    1
    25     9    10    1
    26     9    38    1
    27    10    11    2
    28    10    39    1
    29    11    12    1
    30    11    24    1
    31    12    13    2
    32    12    14    1
    33    14    15    1
    34    14    17    1
    35    15    16    1
    36    15    40    1
    37    15    41    1
    38    16    42    1
    39    16    43    1
    40    16    44    1
    41    17    18    1
    42    17    22    2
    43    18    19    2
    44    18    45    1
    45    19    20    1
    46    19    46    1
    47    20    21    2
    48    20    47    1
    49    21    22    1
    50    21    48    1
    51    22    23    1
    52    23    49    1
    53    23    50    1
    54    23    51    1
    55    25    26    1
    56    25    30    2
    57    26    27    2
    58    26    52    1
    59    27    28    1
    60    27    53    1
    61    28    29    2
    62    28    54    1
    63    29    30    1
    64    29    55    1
    65    30    31    1
    66    31    56    1
    67    31    57    1
    68    31    58    1
    69    59    60    1
    70    59    89    1
    71    59    90    1
    72    59    91    1
    73    60    61    1
    74    60    92    1
    75    60    93    1
    76    61    62    1
    77    61    82    1
    78    62    63    2
    79    62    64    1
    80    64    65    1
    81    64    81    2
    82    65    66    2
    83    65    94    1
    84    66    67    1
    85    66    95    1
    86    67    68    2
    87    67    96    1
    88    68    69    1
    89    68    81    1
    90    69    70    2
    91    69    71    1
    92    71    72    1
    93    71    74    1
    94    72    73    1
    95    72    97    1
    96    72    98    1
    97    73    99    1
    98    73   100    1
    99    73   101    1
   100    74    75    1
   101    74    79    2
   102    75    76    2
   103    75   102    1
   104    76    77    1
   105    76   103    1
   106    77    78    2
   107    77   104    1
   108    78    79    1
   109    78   105    1
   110    79    80    1
   111    80   106    1
   112    80   107    1
   113    80   108    1
   114    82    83    1
   115    82    87    2
   116    83    84    2
   117    83   109    1
   118    84    85    1
   119    84   110    1
   120    85    86    2
   121    85   111    1
   122    86    87    1
   123    86   112    1
   124    87    88    1
   125    88   113    1
   126    88   114    1
   127    88   115    1
   128   116   117    1
   129   116   146    1
   130   116   147    1
   131   116   148    1
   132   117   118    1
   133   117   149    1
   134   117   150    1
   135   118   119    1
   136   118   139    1
   137   119   120    2
   138   119   121    1
   139   121   122    1
   140   121   138    2
   141   122   123    2
   142   122   151    1
   143   123   124    1
   144   123   152    1
   145   124   125    2
   146   124   153    1
   147   125   126    1
   148   125   138    1
   149   126   127    2
   150   126   128    1
   151   128   129    1
   152   128   131    1
   153   129   130    1
   154   129   154    1
   155   129   155    1
   156   130   156    1
   157   130   157    1
   158   130   158    1
   159   131   132    1
   160   131   136    2
   161   132   133    2
   162   132   159    1
   163   133   134    1
   164   133   160    1
   165   134   135    2
   166   134   161    1
   167   135   136    1
   168   135   162    1
   169   136   137    1
   170   137   163    1
   171   137   164    1
   172   137   165    1
   173   139   140    1
   174   139   144    2
   175   140   141    2
   176   140   166    1
   177   141   142    1
   178   141   167    1
   179   142   143    2
   180   142   168    1
   181   143   144    1
   182   143   169    1
   183   144   145    1
   184   145   170    1
   185   145   171    1
   186   145   172    1
@<TRIPOS>SUBSTRUCTURE
     1 RES1      172 GROUP             0 ****  ****    0  
