@<TRIPOS>MOLECULE
capped_square_antiprismatic_0_nunpairedes_0_charge_2 Charge: 2 Unpaired_Electrons: 6 XTB_Unpaired_Electrons: 0 XTB_Charge: 2
    58    66     1     0     0
SMALL
NoCharges
****
Generated from Architector

@<TRIPOS>ATOM
     1 Eu1      -0.1339    0.2153    0.2551   Eu        1 RES1   0.0000
     2 C1       -2.8539    3.5552   -3.3000   C.ar      1 RES1   0.0000
     3 C2       -1.6783    4.2788   -3.2344   C.ar      1 RES1   0.0000
     4 C3       -0.5638    3.7408   -2.6132   C.ar      1 RES1   0.0000
     5 C4       -0.6291    2.4706   -2.0650   C.ar      1 RES1   0.0000
     6 C5       -1.8151    1.7246   -2.1497   C.ar      1 RES1   0.0000
     7 C6       -2.9268    2.2810   -2.7624   C.ar      1 RES1   0.0000
     8 O1       -1.8183    0.4800   -1.5004   O.3       1 RES1   0.0000
     9 C7       -2.5495   -0.6117   -2.0745   C.3       1 RES1   0.0000
    10 C8       -1.4975   -1.6256   -2.5443   C.3       1 RES1   0.0000
    11 O2       -0.5898   -1.9203   -1.4778   O.3       1 RES1   0.0000
    12 C9       -0.7442   -3.1889   -0.8320   C.3       1 RES1   0.0000
    13 C10      -1.3436   -3.0019    0.5694   C.3       1 RES1   0.0000
    14 O3       -0.5695   -1.9708    1.1987   O.3       1 RES1   0.0000
    15 C11       0.2172   -2.2739    2.3225   C.ar      1 RES1   0.0000
    16 C12      -0.1992   -3.0903    3.3617   C.ar      1 RES1   0.0000
    17 C13       0.5892   -3.2251    4.4941   C.ar      1 RES1   0.0000
    18 C14       1.7961   -2.5566    4.5918   C.ar      1 RES1   0.0000
    19 C15       2.2246   -1.7371    3.5600   C.ar      1 RES1   0.0000
    20 C16       1.4385   -1.5860    2.4294   C.ar      1 RES1   0.0000
    21 O4        1.7289   -0.6700    1.4054   O.3       1 RES1   0.0000
    22 C17       3.0820   -0.4969    0.9560   C.3       1 RES1   0.0000
    23 C18       3.0936   -0.8864   -0.5290   C.3       1 RES1   0.0000
    24 O5        1.9869   -0.2626   -1.1941   O.3       1 RES1   0.0000
    25 C19       2.2908    0.7056   -2.2055   C.3       1 RES1   0.0000
    26 C20       1.7780    2.0841   -1.7650   C.3       1 RES1   0.0000
    27 O6        0.4232    1.9091   -1.3179   O.3       1 RES1   0.0000
    28 H1       -3.7355    3.9699   -3.7578   H         1 RES1   0.0000
    29 H2       -1.6155    5.2723   -3.6437   H         1 RES1   0.0000
    30 H3        0.3329    4.3339   -2.5134   H         1 RES1   0.0000
    31 H4       -3.8673    1.7523   -2.7848   H         1 RES1   0.0000
    32 H5       -3.1753   -0.2945   -2.9126   H         1 RES1   0.0000
    33 H6       -3.1842   -1.0277   -1.2777   H         1 RES1   0.0000
    34 H7       -0.8899   -1.1606   -3.3311   H         1 RES1   0.0000
    35 H8       -1.9802   -2.5247   -2.9370   H         1 RES1   0.0000
    36 H9        0.2695   -3.5949   -0.7312   H         1 RES1   0.0000
    37 H10      -1.3587   -3.8795   -1.4162   H         1 RES1   0.0000
    38 H11      -1.3164   -3.9438    1.1238   H         1 RES1   0.0000
    39 H12      -2.3822   -2.6439    0.5156   H         1 RES1   0.0000
    40 H13      -1.1591   -3.5805    3.3232   H         1 RES1   0.0000
    41 H14       0.2326   -3.8418    5.3018   H         1 RES1   0.0000
    42 H15       2.4060   -2.6383    5.4754   H         1 RES1   0.0000
    43 H16       3.1420   -1.1787    3.6667   H         1 RES1   0.0000
    44 H17       3.7902   -1.1124    1.5169   H         1 RES1   0.0000
    45 H18       3.3356    0.5660    1.0744   H         1 RES1   0.0000
    46 H19       2.9404   -1.9678   -0.6191   H         1 RES1   0.0000
    47 H20       4.0493   -0.6162   -0.9859   H         1 RES1   0.0000
    48 H21       1.7567    0.3926   -3.1105   H         1 RES1   0.0000
    49 H22       3.3628    0.7548   -2.4152   H         1 RES1   0.0000
    50 H23       1.8443    2.7932   -2.5943   H         1 RES1   0.0000
    51 H24       2.3550    2.4524   -0.9033   H         1 RES1   0.0000
    52 N1       -1.5314    1.3329    2.0420   N.3       1 RES1   0.0000
    53 O7       -2.1597    1.8971    2.8678   O.2       1 RES1   0.0000
    54 O8       -0.7558    0.3955    2.3185   O.co2     1 RES1   0.0000
    55 O9       -1.5767    1.6570    0.8368   O.co2     1 RES1   0.0000
    56 O10       1.1223    2.1376    1.4362   O.3       1 RES1   0.0000
    57 H25       1.3174    2.0186    2.3817   H         1 RES1   0.0000
    58 H26       0.7860    3.0455    1.3532   H         1 RES1   0.0000
@<TRIPOS>BOND
     1     1     8    1
     2     1    11    1
     3     1    14    1
     4     1    21    1
     5     1    24    1
     6     1    27    1
     7     1    54    1
     8     1    55    1
     9     1    56    1
    10     2     3    1
    11     2     7    2
    12     2    28    1
    13     3     4    2
    14     3    29    1
    15     4     5    1
    16     4    30    1
    17     5     6    2
    18     5    27    1
    19     6     7    1
    20     6     8    1
    21     7    31    1
    22     8     9    1
    23     9    10    1
    24     9    32    1
    25     9    33    1
    26    10    11    1
    27    10    34    1
    28    10    35    1
    29    11    12    1
    30    12    13    1
    31    12    36    1
    32    12    37    1
    33    13    14    1
    34    13    38    1
    35    13    39    1
    36    14    15    1
    37    15    16    1
    38    15    20    2
    39    16    17    2
    40    16    40    1
    41    17    18    1
    42    17    41    1
    43    18    19    2
    44    18    42    1
    45    19    20    1
    46    19    43    1
    47    20    21    1
    48    21    22    1
    49    22    23    1
    50    22    44    1
    51    22    45    1
    52    23    24    1
    53    23    46    1
    54    23    47    1
    55    24    25    1
    56    25    26    1
    57    25    48    1
    58    25    49    1
    59    26    27    1
    60    26    50    1
    61    26    51    1
    62    52    53    2
    63    52    54    1
    64    52    55    1
    65    56    57    1
    66    56    58    1
@<TRIPOS>SUBSTRUCTURE
     1 RES1       58 GROUP             0 ****  ****    0  
