@<TRIPOS>MOLECULE
tri_tri_mer_capped_0_nunpairedes_0_charge_3 Charge: 3 Unpaired_Electrons: 6 XTB_Unpaired_Electrons: 0 XTB_Charge: 3
    60    69     1     0     0
SMALL
NoCharges
****
Generated from Architector

@<TRIPOS>ATOM
     1 Eu1      -0.0937    0.0644   -0.2254   Eu        1 RES1   0.0000
     2 C1        0.9635   -1.8624   -4.0897   C.3       1 RES1   0.0000
     3 C2        1.7672   -1.6992   -2.8176   C.3       1 RES1   0.0000
     4 O1        1.3184   -0.5305   -2.0508   O.3       1 RES1   0.0000
     5 P1        1.4645    0.9565   -2.8756   P.3       1 RES1   0.0000
     6 O2        2.2621    1.7755   -1.7210   O.2       1 RES1   0.0000
     7 O3       -0.0657    1.4508   -2.4280   O.3       1 RES1   0.0000
     8 C3       -1.0957    1.3885   -3.4521   C.3       1 RES1   0.0000
     9 C4       -2.1682    0.4230   -2.9771   C.3       1 RES1   0.0000
    10 C5        1.7551    2.7013   -0.8566   C.ar      1 RES1   0.0000
    11 C6        2.1394    4.0471   -0.9079   C.ar      1 RES1   0.0000
    12 C7        1.6513    4.9069    0.0504   C.ar      1 RES1   0.0000
    13 C8        0.7710    4.4325    1.0472   C.ar      1 RES1   0.0000
    14 C9        0.2060    5.2217    2.0855   C.ar      1 RES1   0.0000
    15 C10      -0.5560    4.6671    3.0685   C.ar      1 RES1   0.0000
    16 C11      -0.8473    3.2727    3.0847   C.ar      1 RES1   0.0000
    17 C12      -1.5436    2.5993    4.1141   C.ar      1 RES1   0.0000
    18 C13      -1.8017    1.2535    4.0029   C.ar      1 RES1   0.0000
    19 C14      -1.3708    0.5736    2.8502   C.ar      1 RES1   0.0000
    20 P2       -2.1243   -1.7141    1.4978   P.3       1 RES1   0.0000
    21 O4       -1.6038   -0.7565    2.7213   O.2       1 RES1   0.0000
    22 O5       -2.5226   -0.5672    0.3452   O.3       1 RES1   0.0000
    23 C15      -3.9389   -0.6163   -0.0964   C.3       1 RES1   0.0000
    24 C16      -4.6031    0.7470   -0.0339   C.3       1 RES1   0.0000
    25 O6       -0.6344   -2.0109    0.7629   O.3       1 RES1   0.0000
    26 C17      -0.2950   -3.4249    0.5631   C.3       1 RES1   0.0000
    27 C18      -1.1474   -4.0437   -0.5225   C.3       1 RES1   0.0000
    28 N1       -0.6912    1.1590    1.8755   N.ar      1 RES1   0.0000
    29 C19      -0.4008    2.4862    2.0058   C.ar      1 RES1   0.0000
    30 C20       0.4396    3.0659    1.0055   C.ar      1 RES1   0.0000
    31 N2        0.9235    2.2236    0.0548   N.ar      1 RES1   0.0000
    32 H1        1.3266   -2.7261   -4.6387   H         1 RES1   0.0000
    33 H2        1.1041   -1.0069   -4.7439   H         1 RES1   0.0000
    34 H3       -0.0968   -2.0062   -3.8815   H         1 RES1   0.0000
    35 H4        2.8289   -1.5861   -3.0396   H         1 RES1   0.0000
    36 H5        1.6381   -2.5635   -2.1589   H         1 RES1   0.0000
    37 H6       -0.6630    1.0618   -4.3999   H         1 RES1   0.0000
    38 H7       -1.4982    2.3985   -3.5807   H         1 RES1   0.0000
    39 H8       -1.7105   -0.5366   -2.6625   H         1 RES1   0.0000
    40 H9       -2.8633    0.2203   -3.7906   H         1 RES1   0.0000
    41 H10      -2.7374    0.8752   -2.1603   H         1 RES1   0.0000
    42 H11       2.8045    4.3761   -1.6914   H         1 RES1   0.0000
    43 H12       1.9476    5.9453    0.0578   H         1 RES1   0.0000
    44 H13       0.4157    6.2774    2.0878   H         1 RES1   0.0000
    45 H14      -0.9500    5.2830    3.8635   H         1 RES1   0.0000
    46 H15      -1.8509    3.1467    4.9923   H         1 RES1   0.0000
    47 H16      -2.3271    0.7052    4.7707   H         1 RES1   0.0000
    48 H17      -4.4775   -1.3158    0.5460   H         1 RES1   0.0000
    49 H18      -3.9362   -1.0193   -1.1127   H         1 RES1   0.0000
    50 H19      -4.9071    0.9920    0.9787   H         1 RES1   0.0000
    51 H20      -5.4986    0.7310   -0.6528   H         1 RES1   0.0000
    52 H21      -3.9473    1.5378   -0.3976   H         1 RES1   0.0000
    53 H22      -0.4161   -3.9601    1.5072   H         1 RES1   0.0000
    54 H23       0.7614   -3.4395    0.2788   H         1 RES1   0.0000
    55 H24      -2.1850   -4.1184   -0.2071   H         1 RES1   0.0000
    56 H25      -0.7991   -5.0550   -0.7215   H         1 RES1   0.0000
    57 H26      -1.0862   -3.4607   -1.4448   H         1 RES1   0.0000
    58 O7        1.9243   -0.7529    1.1715   O.3       1 RES1   0.0000
    59 H27       2.5422   -0.1999    1.6781   H         1 RES1   0.0000
    60 H28       2.1369   -1.6507    1.4757   H         1 RES1   0.0000
@<TRIPOS>BOND
     1     1     4    1
     2     1     6    1
     3     1     7    1
     4     1    21    1
     5     1    22    1
     6     1    25    1
     7     1    28    1
     8     1    31    1
     9     1    58    1
    10     2     3    1
    11     2    32    1
    12     2    33    1
    13     2    34    1
    14     3     4    1
    15     3    35    1
    16     3    36    1
    17     4     5    1
    18     5     6    2
    19     5     7    1
    20     5    10    1
    21     7     8    1
    22     8     9    1
    23     8    37    1
    24     8    38    1
    25     9    39    1
    26     9    40    1
    27     9    41    1
    28    10    11    1
    29    10    31    2
    30    11    12    2
    31    11    42    1
    32    12    13    1
    33    12    43    1
    34    13    14    1
    35    13    30    2
    36    14    15    2
    37    14    44    1
    38    15    16    1
    39    15    45    1
    40    16    17    1
    41    16    29    2
    42    17    18    2
    43    17    46    1
    44    18    19    1
    45    18    47    1
    46    19    20    1
    47    19    28    2
    48    20    21    2
    49    20    22    1
    50    20    25    1
    51    22    23    1
    52    23    24    1
    53    23    48    1
    54    23    49    1
    55    24    50    1
    56    24    51    1
    57    24    52    1
    58    25    26    1
    59    26    27    1
    60    26    53    1
    61    26    54    1
    62    27    55    1
    63    27    56    1
    64    27    57    1
    65    28    29    1
    66    29    30    1
    67    30    31    1
    68    58    59    1
    69    58    60    1
@<TRIPOS>SUBSTRUCTURE
     1 RES1       60 GROUP             0 ****  ****    0  
