@<TRIPOS>MOLECULE
capped_square_antiprismatic_0_nunpairedes_0_charge_3 Charge: 3 Unpaired_Electrons: 6 XTB_Unpaired_Electrons: 0 XTB_Charge: 3
   140   155     1     0     0
SMALL
NoCharges
****
Generated from Architector

@<TRIPOS>ATOM
     1 Eu1      -0.0369   -0.0334   -0.0417   Eu        1 RES1   0.0000
     2 C1        1.0255    5.3585    3.0604   C.3       1 RES1   0.0000
     3 C2        0.9573    4.0081    3.7765   C.3       1 RES1   0.0000
     4 N1        1.4498    2.9337    2.9147   N.am      1 RES1   0.0000
     5 C3        0.7122    2.4186    1.9135   C.2       1 RES1   0.0000
     6 O1        1.2148    1.5961    1.1163   O.2       1 RES1   0.0000
     7 C4       -0.7829    2.7135    1.6386   C.ar      1 RES1   0.0000
     8 C5       -1.6325    3.7560    2.0604   C.ar      1 RES1   0.0000
     9 C6       -2.8867    3.8718    1.4973   C.ar      1 RES1   0.0000
    10 C7       -3.3266    2.9874    0.5009   C.ar      1 RES1   0.0000
    11 C8       -4.5724    3.1126   -0.1794   C.ar      1 RES1   0.0000
    12 C9       -4.9222    2.2466   -1.1671   C.ar      1 RES1   0.0000
    13 C10      -4.0671    1.1728   -1.5422   C.ar      1 RES1   0.0000
    14 C11      -4.3431    0.2983   -2.6122   C.ar      1 RES1   0.0000
    15 C12      -3.4466   -0.6807   -2.9675   C.ar      1 RES1   0.0000
    16 C13      -2.2884   -0.8312   -2.1849   C.ar      1 RES1   0.0000
    17 C14      -1.0960   -1.6959   -2.4850   C.2       1 RES1   0.0000
    18 O2       -0.0067   -1.3538   -1.9677   O.2       1 RES1   0.0000
    19 N2       -1.1137   -2.7258   -3.3318   N.am      1 RES1   0.0000
    20 C15       0.1947   -3.2676   -3.7090   C.3       1 RES1   0.0000
    21 C16       0.9719   -2.2991   -4.5942   C.3       1 RES1   0.0000
    22 C17      -2.2599   -3.4574   -3.7051   C.ar      1 RES1   0.0000
    23 C18      -3.2585   -3.6870   -2.7649   C.ar      1 RES1   0.0000
    24 C19      -4.3745   -4.4171   -3.1085   C.ar      1 RES1   0.0000
    25 C20      -4.5002   -4.9782   -4.3761   C.ar      1 RES1   0.0000
    26 C21      -5.6929   -5.7863   -4.7483   C.3       1 RES1   0.0000
    27 C22      -3.4745   -4.7804   -5.2945   C.ar      1 RES1   0.0000
    28 C23      -2.3660   -4.0240   -4.9709   C.ar      1 RES1   0.0000
    29 N3       -2.0447   -0.0385   -1.1462   N.ar      1 RES1   0.0000
    30 C24      -2.8623    0.9694   -0.8318   C.ar      1 RES1   0.0000
    31 C25      -2.4567    1.9148    0.1932   C.ar      1 RES1   0.0000
    32 N4       -1.2537    1.8001    0.7792   N.ar      1 RES1   0.0000
    33 C26       2.8244    2.5480    3.1353   C.ar      1 RES1   0.0000
    34 C27       3.7212    3.4481    3.7198   C.ar      1 RES1   0.0000
    35 C28       5.0301    3.0968    3.9875   C.ar      1 RES1   0.0000
    36 C29       5.5256    1.8358    3.6751   C.ar      1 RES1   0.0000
    37 C30       6.9516    1.4685    3.9219   C.3       1 RES1   0.0000
    38 C31       4.6274    0.9329    3.1122   C.ar      1 RES1   0.0000
    39 C32       3.3093    1.2702    2.8526   C.ar      1 RES1   0.0000
    40 H1        0.6001    6.1366    3.6873   H         1 RES1   0.0000
    41 H2        0.4926    5.3264    2.1135   H         1 RES1   0.0000
    42 H3        2.0478    5.6451    2.8330   H         1 RES1   0.0000
    43 H4       -0.0584    3.7763    4.1021   H         1 RES1   0.0000
    44 H5        1.5574    4.0256    4.6874   H         1 RES1   0.0000
    45 H6       -1.3547    4.4890    2.7969   H         1 RES1   0.0000
    46 H7       -3.5373    4.6716    1.8115   H         1 RES1   0.0000
    47 H8       -5.2270    3.9241    0.1074   H         1 RES1   0.0000
    48 H9       -5.8636    2.3511   -1.6860   H         1 RES1   0.0000
    49 H10      -5.2519    0.4445   -3.1750   H         1 RES1   0.0000
    50 H11      -3.6355   -1.3107   -3.8239   H         1 RES1   0.0000
    51 H12       0.0461   -4.2247   -4.2125   H         1 RES1   0.0000
    52 H13       0.7558   -3.4401   -2.7835   H         1 RES1   0.0000
    53 H14       0.4233   -2.0661   -5.5026   H         1 RES1   0.0000
    54 H15       1.9196   -2.7556   -4.8639   H         1 RES1   0.0000
    55 H16       1.1625   -1.3727   -4.0560   H         1 RES1   0.0000
    56 H17      -3.1409   -3.3006   -1.7652   H         1 RES1   0.0000
    57 H18      -5.1603   -4.5631   -2.3868   H         1 RES1   0.0000
    58 H19      -6.3971   -5.8486   -3.9249   H         1 RES1   0.0000
    59 H20      -5.3863   -6.7941   -5.0249   H         1 RES1   0.0000
    60 H21      -6.1965   -5.3487   -5.6099   H         1 RES1   0.0000
    61 H22      -3.5630   -5.2170   -6.2781   H         1 RES1   0.0000
    62 H23      -1.5910   -3.8770   -5.7038   H         1 RES1   0.0000
    63 H24       3.4295    4.4504    3.9801   H         1 RES1   0.0000
    64 H25       5.6750    3.8332    4.4419   H         1 RES1   0.0000
    65 H26       7.5005    2.2897    4.3723   H         1 RES1   0.0000
    66 H27       7.4492    1.2002    2.9906   H         1 RES1   0.0000
    67 H28       7.0222    0.6080    4.5849   H         1 RES1   0.0000
    68 H29       4.9744   -0.0617    2.8739   H         1 RES1   0.0000
    69 H30       2.6720    0.5139    2.4168   H         1 RES1   0.0000
    70 C33      -1.0809   -5.4097    3.1090   C.3       1 RES1   0.0000
    71 C34      -1.0184   -3.9705    3.6175   C.3       1 RES1   0.0000
    72 N5       -1.5286   -3.0254    2.6270   N.am      1 RES1   0.0000
    73 C35      -0.7772   -2.5926    1.6045   C.2       1 RES1   0.0000
    74 O3       -1.2815   -1.9328    0.6710   O.2       1 RES1   0.0000
    75 C36       0.7545   -2.7750    1.4616   C.ar      1 RES1   0.0000
    76 C37       1.6195   -3.8077    1.8689   C.ar      1 RES1   0.0000
    77 C38       2.9220   -3.8194    1.4094   C.ar      1 RES1   0.0000
    78 C39       3.3867   -2.8498    0.5045   C.ar      1 RES1   0.0000
    79 C40       4.6781   -2.8828   -0.1047   C.ar      1 RES1   0.0000
    80 C41       5.0369   -1.9656   -1.0415   C.ar      1 RES1   0.0000
    81 C42       4.1422   -0.9256   -1.4307   C.ar      1 RES1   0.0000
    82 C43       4.4201   -0.0025   -2.4586   C.ar      1 RES1   0.0000
    83 C44       3.4988    0.9560   -2.8169   C.ar      1 RES1   0.0000
    84 C45       2.3040    1.0351   -2.0791   C.ar      1 RES1   0.0000
    85 C46       1.0951    1.9055   -2.3160   C.2       1 RES1   0.0000
    86 O4        0.0477    1.5669   -1.7129   O.2       1 RES1   0.0000
    87 N6        1.0310    2.9191   -3.1810   N.am      1 RES1   0.0000
    88 C47      -0.3000    3.4453   -3.4911   C.3       1 RES1   0.0000
    89 C48      -0.5708    4.8098   -2.8739   C.3       1 RES1   0.0000
    90 C49       2.1246    3.6380   -3.7129   C.ar      1 RES1   0.0000
    91 C50       3.1762    3.9730   -2.8680   C.ar      1 RES1   0.0000
    92 C51       4.2456    4.7000   -3.3419   C.ar      1 RES1   0.0000
    93 C52       4.2705    5.1432   -4.6614   C.ar      1 RES1   0.0000
    94 C53       5.4202    5.9266   -5.1875   C.3       1 RES1   0.0000
    95 C54       3.1922    4.8428   -5.4878   C.ar      1 RES1   0.0000
    96 C55       2.1281    4.0956   -5.0261   C.ar      1 RES1   0.0000
    97 N7        2.0460    0.1751   -1.0988   N.ar      1 RES1   0.0000
    98 C56       2.8917   -0.8064   -0.7828   C.ar      1 RES1   0.0000
    99 C57       2.4836   -1.8095    0.1895   C.ar      1 RES1   0.0000
   100 N8        1.2393   -1.7912    0.6971   N.ar      1 RES1   0.0000
   101 C58      -2.8940   -2.5989    2.8155   C.ar      1 RES1   0.0000
   102 C59      -3.3559   -1.3457    2.4100   C.ar      1 RES1   0.0000
   103 C60      -4.6523   -0.9379    2.6769   C.ar      1 RES1   0.0000
   104 C61      -5.5513   -1.7443    3.3685   C.ar      1 RES1   0.0000
   105 C62      -6.9578   -1.3257    3.6512   C.3       1 RES1   0.0000
   106 C63      -5.0829   -2.9869    3.7850   C.ar      1 RES1   0.0000
   107 C64      -3.7935   -3.4074    3.5133   C.ar      1 RES1   0.0000
   108 H31      -0.6069   -6.0561    3.8415   H         1 RES1   0.0000
   109 H32      -2.1031   -5.7452    2.9724   H         1 RES1   0.0000
   110 H33      -0.5899   -5.5155    2.1448   H         1 RES1   0.0000
   111 H34      -1.6101   -3.8630    4.5282   H         1 RES1   0.0000
   112 H35       0.0038   -3.6997    3.8870   H         1 RES1   0.0000
   113 H36       1.3006   -4.6071    2.5144   H         1 RES1   0.0000
   114 H37       3.5918   -4.6117    1.7050   H         1 RES1   0.0000
   115 H38       5.3567   -3.6691    0.1957   H         1 RES1   0.0000
   116 H39       6.0097   -1.9978   -1.5123   H         1 RES1   0.0000
   117 H40       5.3632   -0.0847   -2.9781   H         1 RES1   0.0000
   118 H41       3.6979    1.6175   -3.6461   H         1 RES1   0.0000
   119 H42      -0.3873    3.5121   -4.5773   H         1 RES1   0.0000
   120 H43      -1.0226    2.7130   -3.1263   H         1 RES1   0.0000
   121 H44       0.1393    5.5461   -3.2356   H         1 RES1   0.0000
   122 H45      -1.5699    5.1131   -3.1700   H         1 RES1   0.0000
   123 H46      -0.5196    4.7772   -1.7891   H         1 RES1   0.0000
   124 H47       3.1271    3.6619   -1.8367   H         1 RES1   0.0000
   125 H48       5.0616    4.9400   -2.6785   H         1 RES1   0.0000
   126 H49       6.1738    6.0750   -4.4200   H         1 RES1   0.0000
   127 H50       5.8740    5.4057   -6.0304   H         1 RES1   0.0000
   128 H51       5.0829    6.8989   -5.5449   H         1 RES1   0.0000
   129 H52       3.1965    5.2014   -6.5067   H         1 RES1   0.0000
   130 H53       1.3150    3.8775   -5.6971   H         1 RES1   0.0000
   131 H54      -2.7091   -0.6649    1.8709   H         1 RES1   0.0000
   132 H55      -4.9787    0.0331    2.3331   H         1 RES1   0.0000
   133 H56      -7.1738   -0.3406    3.2482   H         1 RES1   0.0000
   134 H57      -7.6694   -2.0327    3.2245   H         1 RES1   0.0000
   135 H58      -7.1460   -1.3039    4.7242   H         1 RES1   0.0000
   136 H59      -5.7450   -3.6538    4.3160   H         1 RES1   0.0000
   137 H60      -3.5170   -4.3896    3.8543   H         1 RES1   0.0000
   138 O5       -0.2005   -0.1552    2.7426   O.3       1 RES1   0.0000
   139 H61      -0.8862    0.3208    3.2295   H         1 RES1   0.0000
   140 H62       0.6053   -0.0938    3.2728   H         1 RES1   0.0000
@<TRIPOS>BOND
     1     1     6    1
     2     1    18    1
     3     1    29    1
     4     1    32    1
     5     1    74    1
     6     1    86    1
     7     1    97    1
     8     1   100    1
     9     1   138    1
    10     2     3    1
    11     2    40    1
    12     2    41    1
    13     2    42    1
    14     3     4    1
    15     3    43    1
    16     3    44    1
    17     4     5    1
    18     4    33    1
    19     5     6    2
    20     5     7    1
    21     7     8    1
    22     7    32    2
    23     8     9    2
    24     8    45    1
    25     9    10    1
    26     9    46    1
    27    10    11    1
    28    10    31    2
    29    11    12    2
    30    11    47    1
    31    12    13    1
    32    12    48    1
    33    13    14    1
    34    13    30    2
    35    14    15    2
    36    14    49    1
    37    15    16    1
    38    15    50    1
    39    16    17    1
    40    16    29    2
    41    17    18    2
    42    17    19    1
    43    19    20    1
    44    19    22    1
    45    20    21    1
    46    20    51    1
    47    20    52    1
    48    21    53    1
    49    21    54    1
    50    21    55    1
    51    22    23    1
    52    22    28    2
    53    23    24    2
    54    23    56    1
    55    24    25    1
    56    24    57    1
    57    25    26    1
    58    25    27    2
    59    26    58    1
    60    26    59    1
    61    26    60    1
    62    27    28    1
    63    27    61    1
    64    28    62    1
    65    29    30    1
    66    30    31    1
    67    31    32    1
    68    33    34    1
    69    33    39    2
    70    34    35    2
    71    34    63    1
    72    35    36    1
    73    35    64    1
    74    36    37    1
    75    36    38    2
    76    37    65    1
    77    37    66    1
    78    37    67    1
    79    38    39    1
    80    38    68    1
    81    39    69    1
    82    70    71    1
    83    70   108    1
    84    70   109    1
    85    70   110    1
    86    71    72    1
    87    71   111    1
    88    71   112    1
    89    72    73    1
    90    72   101    1
    91    73    74    2
    92    73    75    1
    93    75    76    1
    94    75   100    2
    95    76    77    2
    96    76   113    1
    97    77    78    1
    98    77   114    1
    99    78    79    1
   100    78    99    2
   101    79    80    2
   102    79   115    1
   103    80    81    1
   104    80   116    1
   105    81    82    1
   106    81    98    2
   107    82    83    2
   108    82   117    1
   109    83    84    1
   110    83   118    1
   111    84    85    1
   112    84    97    2
   113    85    86    2
   114    85    87    1
   115    87    88    1
   116    87    90    1
   117    88    89    1
   118    88   119    1
   119    88   120    1
   120    89   121    1
   121    89   122    1
   122    89   123    1
   123    90    91    1
   124    90    96    2
   125    91    92    2
   126    91   124    1
   127    92    93    1
   128    92   125    1
   129    93    94    1
   130    93    95    2
   131    94   126    1
   132    94   127    1
   133    94   128    1
   134    95    96    1
   135    95   129    1
   136    96   130    1
   137    97    98    1
   138    98    99    1
   139    99   100    1
   140   101   102    1
   141   101   107    2
   142   102   103    2
   143   102   131    1
   144   103   104    1
   145   103   132    1
   146   104   105    1
   147   104   106    2
   148   105   133    1
   149   105   134    1
   150   105   135    1
   151   106   107    1
   152   106   136    1
   153   107   137    1
   154   138   139    1
   155   138   140    1
@<TRIPOS>SUBSTRUCTURE
     1 RES1      140 GROUP             0 ****  ****    0  
