@<TRIPOS>MOLECULE
am_c3_9H2O_c0_0_nunpairedes_0_charge_3 Charge: 3 Unpaired_Electrons: 6 XTB_Unpaired_Electrons: 0 XTB_Charge: 3
   256   267     1     0     0
SMALL
NoCharges
****
Generated from Architector

@<TRIPOS>ATOM
     1 Eu1       0.0299   -0.0371   -0.0291   Eu        1 RES1   0.0000
     2 C1       -4.7160    8.5834    0.1768   C.3       1 RES1   0.0000
     3 C2       -5.0364    8.0043   -1.1967   C.3       1 RES1   0.0000
     4 C3       -3.7846    7.8641   -2.0627   C.3       1 RES1   0.0000
     5 C4       -4.1168    7.2850   -3.4383   C.3       1 RES1   0.0000
     6 C5       -2.9292    7.2290   -4.4049   C.3       1 RES1   0.0000
     7 C6       -2.0936    5.9478   -4.3846   C.3       1 RES1   0.0000
     8 C7       -1.3091    5.6790   -3.0950   C.3       1 RES1   0.0000
     9 C8       -2.0786    4.8553   -2.0455   C.3       1 RES1   0.0000
    10 N1       -1.8467    3.4218   -2.1485   N.am      1 RES1   0.0000
    11 C9       -2.6909    2.7101   -3.1128   C.3       1 RES1   0.0000
    12 C10      -4.1976    2.7681   -2.8521   C.3       1 RES1   0.0000
    13 C11      -4.9521    1.8664   -3.8411   C.3       1 RES1   0.0000
    14 C12      -4.9274    0.3789   -3.4855   C.3       1 RES1   0.0000
    15 C13      -5.4686   -0.5197   -4.6051   C.3       1 RES1   0.0000
    16 C14      -4.5977   -0.5265   -5.8697   C.3       1 RES1   0.0000
    17 C15      -4.6581   -1.8335   -6.6693   C.3       1 RES1   0.0000
    18 C16      -6.0305   -2.1310   -7.2598   C.3       1 RES1   0.0000
    19 C17      -0.9468    2.6986   -1.4802   C.2       1 RES1   0.0000
    20 O1       -0.9673    1.4460   -1.5745   O.2       1 RES1   0.0000
    21 C18       0.1795    3.2341   -0.6103   C.ar      1 RES1   0.0000
    22 C19       0.7147    4.5302   -0.5461   C.ar      1 RES1   0.0000
    23 C20       1.7914    4.7756    0.2802   C.ar      1 RES1   0.0000
    24 C21       2.3963    3.7304    1.0020   C.ar      1 RES1   0.0000
    25 C22       3.5258    3.8889    1.8594   C.ar      1 RES1   0.0000
    26 C23       4.0943    2.8262    2.4843   C.ar      1 RES1   0.0000
    27 C24       3.5845    1.5070    2.3122   C.ar      1 RES1   0.0000
    28 C25       4.0761    0.3644    2.9668   C.ar      1 RES1   0.0000
    29 C26       3.5031   -0.8729    2.7660   C.ar      1 RES1   0.0000
    30 C27       2.4699   -1.0092    1.8236   C.ar      1 RES1   0.0000
    31 C28       1.7784   -2.2550    1.2761   C.2       1 RES1   0.0000
    32 O2        0.9505   -2.0426    0.3577   O.2       1 RES1   0.0000
    33 N2        1.9728   -3.5145    1.6674   N.am      1 RES1   0.0000
    34 C29       1.1965   -4.5189    0.9341   C.3       1 RES1   0.0000
    35 C30      -0.2604   -4.6702    1.3957   C.3       1 RES1   0.0000
    36 C31      -1.0639   -5.4132    0.3217   C.3       1 RES1   0.0000
    37 C32      -2.5318   -5.6643    0.6988   C.3       1 RES1   0.0000
    38 C33      -2.8989   -7.0848    1.1432   C.3       1 RES1   0.0000
    39 C34      -2.2457   -7.5912    2.4342   C.3       1 RES1   0.0000
    40 C35      -0.8754   -8.2374    2.2297   C.3       1 RES1   0.0000
    41 C36      -0.3566   -8.8865    3.5083   C.3       1 RES1   0.0000
    42 C37       2.9982   -3.9859    2.5851   C.3       1 RES1   0.0000
    43 C38       4.4136   -3.8102    2.0181   C.3       1 RES1   0.0000
    44 C39       4.7183   -4.6456    0.7795   C.3       1 RES1   0.0000
    45 C40       6.1727   -4.4570    0.3276   C.3       1 RES1   0.0000
    46 C41       6.6124   -3.0154    0.0414   C.3       1 RES1   0.0000
    47 C42       5.8517   -2.2859   -1.0766   C.3       1 RES1   0.0000
    48 C43       6.5487   -2.3593   -2.4394   C.3       1 RES1   0.0000
    49 C44       6.5012   -3.7419   -3.0728   C.3       1 RES1   0.0000
    50 N3        1.9819    0.0825    1.2377   N.ar      1 RES1   0.0000
    51 C45       2.4670    1.3041    1.4731   C.ar      1 RES1   0.0000
    52 C46       1.8395    2.4421    0.8270   C.ar      1 RES1   0.0000
    53 N4        0.7518    2.2407    0.0738   N.ar      1 RES1   0.0000
    54 H1       -5.6245    8.6818    0.7659   H         1 RES1   0.0000
    55 H2       -4.2644    9.5678    0.0770   H         1 RES1   0.0000
    56 H3       -4.0190    7.9406    0.7150   H         1 RES1   0.0000
    57 H4       -5.7500    8.6538   -1.7056   H         1 RES1   0.0000
    58 H5       -5.5114    7.0250   -1.0831   H         1 RES1   0.0000
    59 H6       -3.0580    7.2436   -1.5334   H         1 RES1   0.0000
    60 H7       -3.3372    8.8510   -2.1982   H         1 RES1   0.0000
    61 H8       -4.8816    7.9298   -3.8745   H         1 RES1   0.0000
    62 H9       -4.5667    6.2927   -3.3343   H         1 RES1   0.0000
    63 H10      -2.2853    8.0909   -4.2277   H         1 RES1   0.0000
    64 H11      -3.3167    7.3253   -5.4200   H         1 RES1   0.0000
    65 H12      -1.3759    6.0249   -5.2015   H         1 RES1   0.0000
    66 H13      -2.7474    5.1062   -4.6109   H         1 RES1   0.0000
    67 H14      -1.0200    6.6421   -2.6700   H         1 RES1   0.0000
    68 H15      -0.3962    5.1310   -3.3363   H         1 RES1   0.0000
    69 H16      -3.1462    5.0281   -2.1849   H         1 RES1   0.0000
    70 H17      -1.8295    5.1667   -1.0328   H         1 RES1   0.0000
    71 H18      -2.3754    1.6686   -3.1046   H         1 RES1   0.0000
    72 H19      -2.4825    3.1281   -4.1002   H         1 RES1   0.0000
    73 H20      -4.5520    3.7900   -2.9927   H         1 RES1   0.0000
    74 H21      -4.4103    2.4666   -1.8238   H         1 RES1   0.0000
    75 H22      -4.5332    2.0124   -4.8365   H         1 RES1   0.0000
    76 H23      -5.9944    2.1828   -3.8767   H         1 RES1   0.0000
    77 H24      -5.5449    0.2261   -2.5972   H         1 RES1   0.0000
    78 H25      -3.9112    0.0609   -3.2338   H         1 RES1   0.0000
    79 H26      -6.4764   -0.1943   -4.8606   H         1 RES1   0.0000
    80 H27      -5.5423   -1.5382   -4.2155   H         1 RES1   0.0000
    81 H28      -3.5564   -0.3428   -5.5820   H         1 RES1   0.0000
    82 H29      -4.9045    0.2838   -6.5318   H         1 RES1   0.0000
    83 H30      -4.3584   -2.6704   -6.0322   H         1 RES1   0.0000
    84 H31      -3.9369   -1.7673   -7.4883   H         1 RES1   0.0000
    85 H32      -6.7703   -2.2797   -6.4781   H         1 RES1   0.0000
    86 H33      -5.9888   -3.0331   -7.8655   H         1 RES1   0.0000
    87 H34      -6.3584   -1.3167   -7.8999   H         1 RES1   0.0000
    88 H35       0.3170    5.3327   -1.1408   H         1 RES1   0.0000
    89 H36       2.1830    5.7791    0.3638   H         1 RES1   0.0000
    90 H37       3.9264    4.8819    1.9970   H         1 RES1   0.0000
    91 H38       4.9550    2.9600    3.1212   H         1 RES1   0.0000
    92 H39       4.9009    0.4515    3.6565   H         1 RES1   0.0000
    93 H40       3.8589   -1.6999    3.3520   H         1 RES1   0.0000
    94 H41       1.6998   -5.4819    1.0106   H         1 RES1   0.0000
    95 H42       1.1816   -4.2034   -0.1126   H         1 RES1   0.0000
    96 H43      -0.7039   -3.6804    1.5443   H         1 RES1   0.0000
    97 H44      -0.2925   -5.2125    2.3398   H         1 RES1   0.0000
    98 H45      -0.5849   -6.3625    0.0856   H         1 RES1   0.0000
    99 H46      -1.0298   -4.7997   -0.5823   H         1 RES1   0.0000
   100 H47      -3.1504   -5.4492   -0.1759   H         1 RES1   0.0000
   101 H48      -2.8232   -4.9613    1.4822   H         1 RES1   0.0000
   102 H49      -2.6822   -7.7876    0.3362   H         1 RES1   0.0000
   103 H50      -3.9827   -7.0943    1.2890   H         1 RES1   0.0000
   104 H51      -2.8977   -8.3539    2.8658   H         1 RES1   0.0000
   105 H52      -2.1765   -6.7772    3.1619   H         1 RES1   0.0000
   106 H53      -0.1482   -7.4994    1.8897   H         1 RES1   0.0000
   107 H54      -0.9605   -8.9993    1.4525   H         1 RES1   0.0000
   108 H55      -0.2718   -8.1529    4.3093   H         1 RES1   0.0000
   109 H56       0.6240   -9.3260    3.3367   H         1 RES1   0.0000
   110 H57      -1.0296   -9.6743    3.8379   H         1 RES1   0.0000
   111 H58       2.8194   -5.0445    2.7854   H         1 RES1   0.0000
   112 H59       2.8967   -3.4593    3.5384   H         1 RES1   0.0000
   113 H60       5.1269   -4.0627    2.8044   H         1 RES1   0.0000
   114 H61       4.5689   -2.7712    1.7401   H         1 RES1   0.0000
   115 H62       4.0320   -4.3828   -0.0294   H         1 RES1   0.0000
   116 H63       4.5733   -5.7030    1.0022   H         1 RES1   0.0000
   117 H64       6.3365   -5.0697   -0.5580   H         1 RES1   0.0000
   118 H65       6.8258   -4.8462    1.1114   H         1 RES1   0.0000
   119 H66       7.6684   -3.0384   -0.2320   H         1 RES1   0.0000
   120 H67       6.5442   -2.4330    0.9633   H         1 RES1   0.0000
   121 H68       5.7645   -1.2267   -0.8098   H         1 RES1   0.0000
   122 H69       4.8375   -2.6865   -1.1613   H         1 RES1   0.0000
   123 H70       7.5862   -2.0433   -2.3232   H         1 RES1   0.0000
   124 H71       6.0718   -1.6480   -3.1205   H         1 RES1   0.0000
   125 H72       7.0804   -4.4628   -2.5045   H         1 RES1   0.0000
   126 H73       6.9009   -3.7128   -4.0822   H         1 RES1   0.0000
   127 H74       5.4746   -4.0882   -3.1311   H         1 RES1   0.0000
   128 C47      -7.6084    2.1641    5.5487   C.3       1 RES1   0.0000
   129 C48      -6.5232    1.8048    6.5582   C.3       1 RES1   0.0000
   130 C49      -6.1136    0.3354    6.4553   C.3       1 RES1   0.0000
   131 C50      -5.0287   -0.0222    7.4720   C.3       1 RES1   0.0000
   132 C51      -4.6649   -1.5105    7.5084   C.3       1 RES1   0.0000
   133 C52      -3.5325   -1.9608    6.5839   C.3       1 RES1   0.0000
   134 C53      -3.8258   -1.8935    5.0809   C.3       1 RES1   0.0000
   135 C54      -3.4655   -0.5504    4.4193   C.3       1 RES1   0.0000
   136 N5       -2.1158   -0.5003    3.8686   N.am      1 RES1   0.0000
   137 C55      -1.0695   -0.1241    4.8209   C.3       1 RES1   0.0000
   138 C56      -1.1901    1.2890    5.3980   C.3       1 RES1   0.0000
   139 C57       0.1057    1.6911    6.1143   C.3       1 RES1   0.0000
   140 C58       1.2173    2.1652    5.1755   C.3       1 RES1   0.0000
   141 C59       2.5898    2.2193    5.8566   C.3       1 RES1   0.0000
   142 C60       3.1588    0.8350    6.1839   C.3       1 RES1   0.0000
   143 C61       4.6699    0.8318    6.4384   C.3       1 RES1   0.0000
   144 C62       5.0597    1.4639    7.7682   C.3       1 RES1   0.0000
   145 C63      -1.7318   -0.7305    2.6114   C.2       1 RES1   0.0000
   146 O3       -0.5578   -0.4660    2.2623   O.2       1 RES1   0.0000
   147 C64      -2.5877   -1.3472    1.5169   C.ar      1 RES1   0.0000
   148 C65      -3.7689   -2.0906    1.6454   C.ar      1 RES1   0.0000
   149 C66      -4.3366   -2.6548    0.5210   C.ar      1 RES1   0.0000
   150 C67      -3.6995   -2.5552   -0.7271   C.ar      1 RES1   0.0000
   151 C68      -4.1977   -3.1399   -1.9284   C.ar      1 RES1   0.0000
   152 C69      -3.5416   -2.9971   -3.1088   C.ar      1 RES1   0.0000
   153 C70      -2.3243   -2.2593   -3.1933   C.ar      1 RES1   0.0000
   154 C71      -1.6634   -1.9255   -4.3896   C.ar      1 RES1   0.0000
   155 C72      -0.4999   -1.1841   -4.3750   C.ar      1 RES1   0.0000
   156 C73       0.1040   -0.8804   -3.1413   C.ar      1 RES1   0.0000
   157 C74       1.4613   -0.2590   -2.8176   C.2       1 RES1   0.0000
   158 O4        1.6651   -0.0407   -1.6007   O.2       1 RES1   0.0000
   159 N6        2.4372    0.0422   -3.6774   N.am      1 RES1   0.0000
   160 C75       3.6918    0.4800   -3.0528   C.3       1 RES1   0.0000
   161 C76       3.7405    1.9409   -2.5792   C.3       1 RES1   0.0000
   162 C77       4.9167    2.1143   -1.6085   C.3       1 RES1   0.0000
   163 C78       5.1126    3.5513   -1.1007   C.3       1 RES1   0.0000
   164 C79       6.2705    4.3549   -1.7021   C.3       1 RES1   0.0000
   165 C80       6.1778    4.6697   -3.1982   C.3       1 RES1   0.0000
   166 C81       6.7378    3.5687   -4.0977   C.3       1 RES1   0.0000
   167 C82       6.7920    4.0003   -5.5588   C.3       1 RES1   0.0000
   168 C83       2.4350   -0.2088   -5.1115   C.3       1 RES1   0.0000
   169 C84       2.3931   -1.7037   -5.4509   C.3       1 RES1   0.0000
   170 C85       3.6102   -2.4945   -4.9871   C.3       1 RES1   0.0000
   171 C86       3.4590   -3.9847   -5.3160   C.3       1 RES1   0.0000
   172 C87       2.2439   -4.6883   -4.6993   C.3       1 RES1   0.0000
   173 C88       2.1787   -4.6818   -3.1615   C.3       1 RES1   0.0000
   174 C89       2.5042   -6.0443   -2.5368   C.3       1 RES1   0.0000
   175 C90       3.9794   -6.4116   -2.6209   C.3       1 RES1   0.0000
   176 N7       -0.5523   -1.1527   -2.0164   N.ar      1 RES1   0.0000
   177 C91      -1.7514   -1.7417   -2.0105   C.ar      1 RES1   0.0000
   178 C92      -2.4804   -1.8387   -0.7603   C.ar      1 RES1   0.0000
   179 N8       -1.9923   -1.2285    0.3278   N.ar      1 RES1   0.0000
   180 H75      -7.8903    3.2087    5.6542   H         1 RES1   0.0000
   181 H76      -8.4940    1.5538    5.7104   H         1 RES1   0.0000
   182 H77      -7.2606    1.9998    4.5284   H         1 RES1   0.0000
   183 H78      -6.8910    2.0012    7.5663   H         1 RES1   0.0000
   184 H79      -5.6466    2.4410    6.3992   H         1 RES1   0.0000
   185 H80      -5.7864    0.1313    5.4334   H         1 RES1   0.0000
   186 H81      -6.9896   -0.2875    6.6473   H         1 RES1   0.0000
   187 H82      -5.4137    0.2593    8.4536   H         1 RES1   0.0000
   188 H83      -4.1320    0.5825    7.3033   H         1 RES1   0.0000
   189 H84      -5.5595   -2.1008    7.3077   H         1 RES1   0.0000
   190 H85      -4.3459   -1.7532    8.5226   H         1 RES1   0.0000
   191 H86      -3.3158   -2.9997    6.8322   H         1 RES1   0.0000
   192 H87      -2.6402   -1.3828    6.8225   H         1 RES1   0.0000
   193 H88      -4.8884   -2.0983    4.9358   H         1 RES1   0.0000
   194 H89      -3.2608   -2.6762    4.5720   H         1 RES1   0.0000
   195 H90      -3.5395    0.2328    5.1748   H         1 RES1   0.0000
   196 H91      -4.1674   -0.3053    3.6233   H         1 RES1   0.0000
   197 H92      -0.1185   -0.2144    4.3000   H         1 RES1   0.0000
   198 H93      -1.0902   -0.8500    5.6359   H         1 RES1   0.0000
   199 H94      -2.0046    1.3126    6.1228   H         1 RES1   0.0000
   200 H95      -1.4162    2.0053    4.6027   H         1 RES1   0.0000
   201 H96       0.4552    0.8434    6.7020   H         1 RES1   0.0000
   202 H97      -0.1121    2.5015    6.8095   H         1 RES1   0.0000
   203 H98       0.9678    3.1697    4.8268   H         1 RES1   0.0000
   204 H99       1.2822    1.5215    4.2919   H         1 RES1   0.0000
   205 H100      2.5070    2.8078    6.7699   H         1 RES1   0.0000
   206 H101      3.2858    2.7360    5.1884   H         1 RES1   0.0000
   207 H102      2.9382    0.1656    5.3452   H         1 RES1   0.0000
   208 H103      2.6700    0.4256    7.0688   H         1 RES1   0.0000
   209 H104      5.1800    1.3632    5.6300   H         1 RES1   0.0000
   210 H105      5.0183   -0.2049    6.4321   H         1 RES1   0.0000
   211 H106      4.7985    2.5179    7.7943   H         1 RES1   0.0000
   212 H107      6.1319    1.3755    7.9214   H         1 RES1   0.0000
   213 H108      4.5613    0.9596    8.5919   H         1 RES1   0.0000
   214 H109     -4.2277   -2.2562    2.6023   H         1 RES1   0.0000
   215 H110     -5.2689   -3.1919    0.6045   H         1 RES1   0.0000
   216 H111     -5.1222   -3.6953   -1.8805   H         1 RES1   0.0000
   217 H112     -3.9427   -3.4278   -4.0126   H         1 RES1   0.0000
   218 H113     -2.0845   -2.2272   -5.3362   H         1 RES1   0.0000
   219 H114     -0.0892   -0.8490   -5.3107   H         1 RES1   0.0000
   220 H115      4.5126    0.3059   -3.7473   H         1 RES1   0.0000
   221 H116      3.8330   -0.1502   -2.1701   H         1 RES1   0.0000
   222 H117      2.8140    2.1929   -2.0549   H         1 RES1   0.0000
   223 H118      3.8513    2.6059   -3.4345   H         1 RES1   0.0000
   224 H119      5.8388    1.7666   -2.0724   H         1 RES1   0.0000
   225 H120      4.7199    1.4632   -0.7526   H         1 RES1   0.0000
   226 H121      5.3043    3.5093   -0.0264   H         1 RES1   0.0000
   227 H122      4.1842    4.1077   -1.2433   H         1 RES1   0.0000
   228 H123      7.2147    3.8439   -1.5024   H         1 RES1   0.0000
   229 H124      6.3021    5.3036   -1.1592   H         1 RES1   0.0000
   230 H125      6.7611    5.5725   -3.3917   H         1 RES1   0.0000
   231 H126      5.1412    4.8915   -3.4681   H         1 RES1   0.0000
   232 H127      6.1326    2.6649   -4.0202   H         1 RES1   0.0000
   233 H128      7.7465    3.3217   -3.7606   H         1 RES1   0.0000
   234 H129      5.7991    4.2614   -5.9232   H         1 RES1   0.0000
   235 H130      7.1858    3.1940   -6.1745   H         1 RES1   0.0000
   236 H131      7.4375    4.8671   -5.6779   H         1 RES1   0.0000
   237 H132      3.3396    0.2308   -5.5379   H         1 RES1   0.0000
   238 H133      1.5845    0.3102   -5.5650   H         1 RES1   0.0000
   239 H134      2.2821   -1.8052   -6.5315   H         1 RES1   0.0000
   240 H135      1.5260   -2.1598   -4.9833   H         1 RES1   0.0000
   241 H136      3.7591   -2.3565   -3.9135   H         1 RES1   0.0000
   242 H137      4.5021   -2.1265   -5.4938   H         1 RES1   0.0000
   243 H138      4.3644   -4.5035   -5.0042   H         1 RES1   0.0000
   244 H139      3.3904   -4.0913   -6.4003   H         1 RES1   0.0000
   245 H140      2.2645   -5.7261   -5.0334   H         1 RES1   0.0000
   246 H141      1.3276   -4.2521   -5.1040   H         1 RES1   0.0000
   247 H142      1.1674   -4.4007   -2.8438   H         1 RES1   0.0000
   248 H143      2.8635   -3.9290   -2.7637   H         1 RES1   0.0000
   249 H144      1.9080   -6.8106   -3.0350   H         1 RES1   0.0000
   250 H145      2.2047   -6.0397   -1.4842   H         1 RES1   0.0000
   251 H146      4.1525   -7.3925   -2.1886   H         1 RES1   0.0000
   252 H147      4.3258   -6.4320   -3.6499   H         1 RES1   0.0000
   253 H148      4.5808   -5.6995   -2.0637   H         1 RES1   0.0000
   254 O5       -1.8268    1.7240    1.2821   O.3       1 RES1   0.0000
   255 H149     -2.7931    1.7354    1.2586   H         1 RES1   0.0000
   256 H150     -1.5819    2.1038    2.1327   H         1 RES1   0.0000
@<TRIPOS>BOND
     1     1    20    1
     2     1    32    1
     3     1    50    1
     4     1    53    1
     5     1   146    1
     6     1   158    1
     7     1   176    1
     8     1   179    1
     9     1   254    1
    10     2     3    1
    11     2    54    1
    12     2    55    1
    13     2    56    1
    14     3     4    1
    15     3    57    1
    16     3    58    1
    17     4     5    1
    18     4    59    1
    19     4    60    1
    20     5     6    1
    21     5    61    1
    22     5    62    1
    23     6     7    1
    24     6    63    1
    25     6    64    1
    26     7     8    1
    27     7    65    1
    28     7    66    1
    29     8     9    1
    30     8    67    1
    31     8    68    1
    32     9    10    1
    33     9    69    1
    34     9    70    1
    35    10    11    1
    36    10    19    1
    37    11    12    1
    38    11    71    1
    39    11    72    1
    40    12    13    1
    41    12    73    1
    42    12    74    1
    43    13    14    1
    44    13    75    1
    45    13    76    1
    46    14    15    1
    47    14    77    1
    48    14    78    1
    49    15    16    1
    50    15    79    1
    51    15    80    1
    52    16    17    1
    53    16    81    1
    54    16    82    1
    55    17    18    1
    56    17    83    1
    57    17    84    1
    58    18    85    1
    59    18    86    1
    60    18    87    1
    61    19    20    2
    62    19    21    1
    63    21    22    1
    64    21    53    2
    65    22    23    2
    66    22    88    1
    67    23    24    1
    68    23    89    1
    69    24    25    1
    70    24    52    2
    71    25    26    2
    72    25    90    1
    73    26    27    1
    74    26    91    1
    75    27    28    1
    76    27    51    2
    77    28    29    2
    78    28    92    1
    79    29    30    1
    80    29    93    1
    81    30    31    1
    82    30    50    2
    83    31    32    2
    84    31    33    1
    85    33    34    1
    86    33    42    1
    87    34    35    1
    88    34    94    1
    89    34    95    1
    90    35    36    1
    91    35    96    1
    92    35    97    1
    93    36    37    1
    94    36    98    1
    95    36    99    1
    96    37    38    1
    97    37   100    1
    98    37   101    1
    99    38    39    1
   100    38   102    1
   101    38   103    1
   102    39    40    1
   103    39   104    1
   104    39   105    1
   105    40    41    1
   106    40   106    1
   107    40   107    1
   108    41   108    1
   109    41   109    1
   110    41   110    1
   111    42    43    1
   112    42   111    1
   113    42   112    1
   114    43    44    1
   115    43   113    1
   116    43   114    1
   117    44    45    1
   118    44   115    1
   119    44   116    1
   120    45    46    1
   121    45   117    1
   122    45   118    1
   123    46    47    1
   124    46   119    1
   125    46   120    1
   126    47    48    1
   127    47   121    1
   128    47   122    1
   129    48    49    1
   130    48   123    1
   131    48   124    1
   132    49   125    1
   133    49   126    1
   134    49   127    1
   135    50    51    1
   136    51    52    1
   137    52    53    1
   138   128   129    1
   139   128   180    1
   140   128   181    1
   141   128   182    1
   142   129   130    1
   143   129   183    1
   144   129   184    1
   145   130   131    1
   146   130   185    1
   147   130   186    1
   148   131   132    1
   149   131   187    1
   150   131   188    1
   151   132   133    1
   152   132   189    1
   153   132   190    1
   154   133   134    1
   155   133   191    1
   156   133   192    1
   157   134   135    1
   158   134   193    1
   159   134   194    1
   160   135   136    1
   161   135   195    1
   162   135   196    1
   163   136   137    1
   164   136   145    1
   165   137   138    1
   166   137   197    1
   167   137   198    1
   168   138   139    1
   169   138   199    1
   170   138   200    1
   171   139   140    1
   172   139   201    1
   173   139   202    1
   174   140   141    1
   175   140   203    1
   176   140   204    1
   177   141   142    1
   178   141   205    1
   179   141   206    1
   180   142   143    1
   181   142   207    1
   182   142   208    1
   183   143   144    1
   184   143   209    1
   185   143   210    1
   186   144   211    1
   187   144   212    1
   188   144   213    1
   189   145   146    2
   190   145   147    1
   191   147   148    1
   192   147   179    2
   193   148   149    2
   194   148   214    1
   195   149   150    1
   196   149   215    1
   197   150   151    1
   198   150   178    2
   199   151   152    2
   200   151   216    1
   201   152   153    1
   202   152   217    1
   203   153   154    1
   204   153   177    2
   205   154   155    2
   206   154   218    1
   207   155   156    1
   208   155   219    1
   209   156   157    1
   210   156   176    2
   211   157   158    2
   212   157   159    1
   213   159   160    1
   214   159   168    1
   215   160   161    1
   216   160   220    1
   217   160   221    1
   218   161   162    1
   219   161   222    1
   220   161   223    1
   221   162   163    1
   222   162   224    1
   223   162   225    1
   224   163   164    1
   225   163   226    1
   226   163   227    1
   227   164   165    1
   228   164   228    1
   229   164   229    1
   230   165   166    1
   231   165   230    1
   232   165   231    1
   233   166   167    1
   234   166   232    1
   235   166   233    1
   236   167   234    1
   237   167   235    1
   238   167   236    1
   239   168   169    1
   240   168   237    1
   241   168   238    1
   242   169   170    1
   243   169   239    1
   244   169   240    1
   245   170   171    1
   246   170   241    1
   247   170   242    1
   248   171   172    1
   249   171   243    1
   250   171   244    1
   251   172   173    1
   252   172   245    1
   253   172   246    1
   254   173   174    1
   255   173   247    1
   256   173   248    1
   257   174   175    1
   258   174   249    1
   259   174   250    1
   260   175   251    1
   261   175   252    1
   262   175   253    1
   263   176   177    1
   264   177   178    1
   265   178   179    1
   266   254   255    1
   267   254   256    1
@<TRIPOS>SUBSTRUCTURE
     1 RES1      256 GROUP             0 ****  ****    0  
