@<TRIPOS>MOLECULE
tri_tri_mer_capped_0_nunpairedes_0_charge_3 Charge: 3 Unpaired_Electrons: 6 XTB_Unpaired_Electrons: 0 XTB_Charge: 3
   214   219     1     0     0
SMALL
NoCharges
****
Generated from Architector

@<TRIPOS>ATOM
     1 Eu1       0.0858   -0.0952   -0.0305   Eu        1 RES1   0.0000
     2 C1        4.0727   -4.2571    3.2223   C.3       1 RES1   0.0000
     3 C2        2.8763   -3.6368    3.9334   C.3       1 RES1   0.0000
     4 C3        3.0793   -3.4772    5.4440   C.3       1 RES1   0.0000
     5 C4        4.3017   -2.6838    5.9150   C.3       1 RES1   0.0000
     6 C5        4.2859   -1.1848    5.5999   C.3       1 RES1   0.0000
     7 C6        4.7987   -0.8597    4.1985   C.3       1 RES1   0.0000
     8 C7        4.7777    0.6389    3.9100   C.3       1 RES1   0.0000
     9 C8        5.0670    0.9432    2.4332   C.3       1 RES1   0.0000
    10 N1        4.2525    0.1226    1.5448   N.am      1 RES1   0.0000
    11 C9        4.8775   -1.0095    0.8785   C.3       1 RES1   0.0000
    12 C10       2.9370    0.2365    1.4415   C.2       1 RES1   0.0000
    13 O1        2.2202   -0.6252    0.8999   O.2       1 RES1   0.0000
    14 C11       2.2084    1.4917    1.9567   C.3       1 RES1   0.0000
    15 O2        0.8471    1.1390    2.2003   O.3       1 RES1   0.0000
    16 C12       0.6732    0.4171    3.4211   C.3       1 RES1   0.0000
    17 C13      -0.2908   -0.7536    3.1839   C.2       1 RES1   0.0000
    18 O3       -0.4729   -1.1389    2.0122   O.2       1 RES1   0.0000
    19 N2       -0.9325   -1.2721    4.2253   N.am      1 RES1   0.0000
    20 C14      -0.5737   -1.0485    5.6124   C.3       1 RES1   0.0000
    21 C15      -1.8512   -2.3875    3.9858   C.3       1 RES1   0.0000
    22 C16      -3.1360   -2.3954    4.8189   C.3       1 RES1   0.0000
    23 C17      -4.2074   -1.3484    4.5066   C.3       1 RES1   0.0000
    24 C18      -3.9075    0.0439    5.0497   C.3       1 RES1   0.0000
    25 C19      -5.0052    1.0495    4.7053   C.3       1 RES1   0.0000
    26 C20      -4.8547    2.3941    5.4253   C.3       1 RES1   0.0000
    27 C21      -3.4766    3.0591    5.2928   C.3       1 RES1   0.0000
    28 C22      -2.5218    2.7293    6.4375   C.3       1 RES1   0.0000
    29 H1        3.8486   -4.4093    2.1684   H         1 RES1   0.0000
    30 H2        4.9528   -3.6256    3.2970   H         1 RES1   0.0000
    31 H3        4.3058   -5.2237    3.6596   H         1 RES1   0.0000
    32 H4        2.6158   -2.6771    3.4717   H         1 RES1   0.0000
    33 H5        2.0184   -4.2971    3.7830   H         1 RES1   0.0000
    34 H6        2.1825   -3.0157    5.8690   H         1 RES1   0.0000
    35 H7        3.1580   -4.4784    5.8726   H         1 RES1   0.0000
    36 H8        4.3523   -2.8037    6.9983   H         1 RES1   0.0000
    37 H9        5.2085   -3.1298    5.5107   H         1 RES1   0.0000
    38 H10       3.2695   -0.7975    5.7274   H         1 RES1   0.0000
    39 H11       4.9191   -0.6708    6.3238   H         1 RES1   0.0000
    40 H12       5.8153   -1.2391    4.1018   H         1 RES1   0.0000
    41 H13       4.1776   -1.3744    3.4686   H         1 RES1   0.0000
    42 H14       3.8009    1.0268    4.2057   H         1 RES1   0.0000
    43 H15       5.5141    1.1518    4.5277   H         1 RES1   0.0000
    44 H16       4.9044    1.9998    2.2198   H         1 RES1   0.0000
    45 H17       6.1148    0.7284    2.2247   H         1 RES1   0.0000
    46 H18       5.9132   -1.1103    1.1861   H         1 RES1   0.0000
    47 H19       4.3443   -1.9297    1.1087   H         1 RES1   0.0000
    48 H20       4.8307   -0.8677   -0.2003   H         1 RES1   0.0000
    49 H21       2.6714    1.9627    2.8294   H         1 RES1   0.0000
    50 H22       2.1796    2.2207    1.1381   H         1 RES1   0.0000
    51 H23       1.6320    0.0042    3.7539   H         1 RES1   0.0000
    52 H24       0.2808    1.1084    4.1776   H         1 RES1   0.0000
    53 H25       0.1991   -0.2979    5.7159   H         1 RES1   0.0000
    54 H26      -1.4400   -0.7276    6.1891   H         1 RES1   0.0000
    55 H27      -0.2023   -1.9795    6.0457   H         1 RES1   0.0000
    56 H28      -2.0729   -2.3806    2.9171   H         1 RES1   0.0000
    57 H29      -1.3064   -3.3127    4.2001   H         1 RES1   0.0000
    58 H30      -3.5814   -3.3777    4.6625   H         1 RES1   0.0000
    59 H31      -2.8836   -2.3422    5.8756   H         1 RES1   0.0000
    60 H32      -4.3958   -1.2958    3.4331   H         1 RES1   0.0000
    61 H33      -5.1398   -1.6881    4.9579   H         1 RES1   0.0000
    62 H34      -3.8323   -0.0225    6.1352   H         1 RES1   0.0000
    63 H35      -2.9574    0.4092    4.6510   H         1 RES1   0.0000
    64 H36      -5.0190    1.2105    3.6222   H         1 RES1   0.0000
    65 H37      -5.9785    0.6361    4.9759   H         1 RES1   0.0000
    66 H38      -5.6183    3.0694    5.0315   H         1 RES1   0.0000
    67 H39      -5.0695    2.2553    6.4847   H         1 RES1   0.0000
    68 H40      -3.0199    2.7774    4.3377   H         1 RES1   0.0000
    69 H41      -3.6138    4.1424    5.2836   H         1 RES1   0.0000
    70 H42      -2.2704    1.6729    6.4718   H         1 RES1   0.0000
    71 H43      -1.5994    3.2980    6.3357   H         1 RES1   0.0000
    72 H44      -2.9784    2.9970    7.3858   H         1 RES1   0.0000
    73 C23       5.8817   -2.0209   -2.8440   C.3       1 RES1   0.0000
    74 C24       5.1371   -0.7042   -3.0311   C.3       1 RES1   0.0000
    75 C25       5.3022   -0.1088   -4.4353   C.3       1 RES1   0.0000
    76 C26       5.0240   -1.0247   -5.6306   C.3       1 RES1   0.0000
    77 C27       3.5526   -1.3341   -5.9107   C.3       1 RES1   0.0000
    78 C28       2.9468   -2.3957   -4.9949   C.3       1 RES1   0.0000
    79 C29       1.5058   -2.7063   -5.3948   C.3       1 RES1   0.0000
    80 C30       0.7664   -3.5563   -4.3494   C.3       1 RES1   0.0000
    81 N3        1.0396   -3.1332   -2.9804   N.am      1 RES1   0.0000
    82 C31       1.9384   -3.9251   -2.1465   C.3       1 RES1   0.0000
    83 C32       0.6505   -1.9747   -2.4675   C.2       1 RES1   0.0000
    84 O4        1.0535   -1.6016   -1.3474   O.2       1 RES1   0.0000
    85 C33      -0.3581   -1.0693   -3.1983   C.3       1 RES1   0.0000
    86 O5       -0.4349    0.2010   -2.5482   O.3       1 RES1   0.0000
    87 C34       0.2162    1.2779   -3.2175   C.3       1 RES1   0.0000
    88 C35       1.2663    1.9418   -2.3069   C.2       1 RES1   0.0000
    89 O6        1.4794    1.4537   -1.1777   O.2       1 RES1   0.0000
    90 N4        1.8769    3.0374   -2.7466   N.am      1 RES1   0.0000
    91 C36       1.8610    3.4935   -4.1241   C.3       1 RES1   0.0000
    92 C37       2.8569    3.6853   -1.8635   C.3       1 RES1   0.0000
    93 C38       3.0359    5.2005   -2.0017   C.3       1 RES1   0.0000
    94 C39       1.9116    6.0799   -1.4479   C.3       1 RES1   0.0000
    95 C40       0.6671    6.1494   -2.3296   C.3       1 RES1   0.0000
    96 C41      -0.2944    7.2513   -1.8845   C.3       1 RES1   0.0000
    97 C42      -1.4999    7.4674   -2.8055   C.3       1 RES1   0.0000
    98 C43      -2.5068    6.3185   -2.9349   C.3       1 RES1   0.0000
    99 C44      -2.0868    5.1914   -3.8769   C.3       1 RES1   0.0000
   100 H45       5.7985   -2.3703   -1.8173   H         1 RES1   0.0000
   101 H46       5.4796   -2.7936   -3.4918   H         1 RES1   0.0000
   102 H47       6.9361   -1.8918   -3.0712   H         1 RES1   0.0000
   103 H48       4.0768   -0.8342   -2.7868   H         1 RES1   0.0000
   104 H49       5.5362    0.0279   -2.3207   H         1 RES1   0.0000
   105 H50       4.6644    0.7771   -4.5149   H         1 RES1   0.0000
   106 H51       6.3362    0.2297   -4.5243   H         1 RES1   0.0000
   107 H52       5.4293   -0.5252   -6.5119   H         1 RES1   0.0000
   108 H53       5.5793   -1.9533   -5.5199   H         1 RES1   0.0000
   109 H54       2.9708   -0.4103   -5.8338   H         1 RES1   0.0000
   110 H55       3.4677   -1.6808   -6.9413   H         1 RES1   0.0000
   111 H56       3.5503   -3.3022   -5.0439   H         1 RES1   0.0000
   112 H57       2.9651   -2.0274   -3.9696   H         1 RES1   0.0000
   113 H58       0.9903   -1.7583   -5.5599   H         1 RES1   0.0000
   114 H59       1.4857   -3.2357   -6.3474   H         1 RES1   0.0000
   115 H60      -0.3101   -3.5160   -4.5322   H         1 RES1   0.0000
   116 H61       1.0806   -4.5959   -4.4481   H         1 RES1   0.0000
   117 H62       2.2673   -4.8176   -2.6672   H         1 RES1   0.0000
   118 H63       2.8118   -3.3348   -1.8675   H         1 RES1   0.0000
   119 H64       1.4346   -4.2119   -1.2214   H         1 RES1   0.0000
   120 H65      -0.1298   -0.9545   -4.2608   H         1 RES1   0.0000
   121 H66      -1.3498   -1.5322   -3.1069   H         1 RES1   0.0000
   122 H67       0.6949    0.9231   -4.1364   H         1 RES1   0.0000
   123 H68      -0.5488    2.0255   -3.4754   H         1 RES1   0.0000
   124 H69       1.1110    2.9803   -4.7117   H         1 RES1   0.0000
   125 H70       1.6432    4.5586   -4.1667   H         1 RES1   0.0000
   126 H71       2.8406    3.3227   -4.5764   H         1 RES1   0.0000
   127 H72       2.5508    3.4530   -0.8413   H         1 RES1   0.0000
   128 H73       3.8269    3.2060   -2.0401   H         1 RES1   0.0000
   129 H74       3.9438    5.4403   -1.4452   H         1 RES1   0.0000
   130 H75       3.2402    5.4672   -3.0356   H         1 RES1   0.0000
   131 H76       1.6363    5.7361   -0.4485   H         1 RES1   0.0000
   132 H77       2.3121    7.0874   -1.3342   H         1 RES1   0.0000
   133 H78       0.9609    6.3759   -3.3564   H         1 RES1   0.0000
   134 H79       0.1714    5.1793   -2.3082   H         1 RES1   0.0000
   135 H80      -0.6395    7.0627   -0.8682   H         1 RES1   0.0000
   136 H81       0.2616    8.1907   -1.8595   H         1 RES1   0.0000
   137 H82      -2.0416    8.3348   -2.4214   H         1 RES1   0.0000
   138 H83      -1.1443    7.7311   -3.8020   H         1 RES1   0.0000
   139 H84      -2.7464    5.9184   -1.9475   H         1 RES1   0.0000
   140 H85      -3.4286    6.7410   -3.3395   H         1 RES1   0.0000
   141 H86      -1.3083    4.5577   -3.4551   H         1 RES1   0.0000
   142 H87      -2.9418    4.5580   -4.1025   H         1 RES1   0.0000
   143 H88      -1.7207    5.6095   -4.8111   H         1 RES1   0.0000
   144 C45      -4.5730    2.1546   -2.9945   C.3       1 RES1   0.0000
   145 C46      -4.7774    1.0779   -1.9369   C.3       1 RES1   0.0000
   146 C47      -6.2253    0.9879   -1.4383   C.3       1 RES1   0.0000
   147 C48      -6.8616    2.2680   -0.8881   C.3       1 RES1   0.0000
   148 C49      -6.3472    2.7247    0.4788   C.3       1 RES1   0.0000
   149 C50      -5.0644    3.5543    0.4234   C.3       1 RES1   0.0000
   150 C51      -4.5702    3.8878    1.8300   C.3       1 RES1   0.0000
   151 C52      -3.1281    4.4020    1.8633   C.3       1 RES1   0.0000
   152 N5       -2.1610    3.7821    0.9564   N.am      1 RES1   0.0000
   153 C53      -1.3529    4.6985    0.1711   C.3       1 RES1   0.0000
   154 C54      -1.8529    2.5013    0.8216   C.2       1 RES1   0.0000
   155 O7       -0.9281    2.1280    0.0645   O.2       1 RES1   0.0000
   156 C55      -2.6358    1.3989    1.5403   C.3       1 RES1   0.0000
   157 O8       -2.3487    0.2391    0.7754   O.3       1 RES1   0.0000
   158 C56      -3.2980   -0.8068    0.8475   C.3       1 RES1   0.0000
   159 C57      -2.7341   -1.8897   -0.0729   C.2       1 RES1   0.0000
   160 O9       -1.6562   -1.6614   -0.6569   O.2       1 RES1   0.0000
   161 N6       -3.4227   -3.0070   -0.2454   N.am      1 RES1   0.0000
   162 C58      -4.6907   -3.2452    0.4082   C.3       1 RES1   0.0000
   163 C59      -3.0322   -3.9389   -1.3022   C.3       1 RES1   0.0000
   164 C60      -2.7781   -5.3866   -0.8773   C.3       1 RES1   0.0000
   165 C61      -1.4178   -5.6335   -0.2124   C.3       1 RES1   0.0000
   166 C62      -1.4710   -5.7017    1.3138   C.3       1 RES1   0.0000
   167 C63      -0.0775   -5.9882    1.8848   C.3       1 RES1   0.0000
   168 C64      -0.0327   -6.7359    3.2211   C.3       1 RES1   0.0000
   169 C65      -0.5071   -5.9491    4.4447   C.3       1 RES1   0.0000
   170 C66      -2.0213   -5.9373    4.6234   C.3       1 RES1   0.0000
   171 H89      -3.5519    2.1200   -3.3688   H         1 RES1   0.0000
   172 H90      -4.7501    3.1444   -2.5835   H         1 RES1   0.0000
   173 H91      -5.2496    1.9992   -3.8301   H         1 RES1   0.0000
   174 H92      -4.0825    1.2546   -1.1103   H         1 RES1   0.0000
   175 H93      -4.5094    0.1078   -2.3700   H         1 RES1   0.0000
   176 H94      -6.2895    0.2132   -0.6660   H         1 RES1   0.0000
   177 H95      -6.8401    0.6530   -2.2761   H         1 RES1   0.0000
   178 H96      -7.9312    2.0728   -0.7975   H         1 RES1   0.0000
   179 H97      -6.7555    3.0754   -1.6090   H         1 RES1   0.0000
   180 H98      -6.2011    1.8483    1.1190   H         1 RES1   0.0000
   181 H99      -7.1183    3.3314    0.9529   H         1 RES1   0.0000
   182 H100     -5.2586    4.4757   -0.1258   H         1 RES1   0.0000
   183 H101     -4.2951    3.0064   -0.1198   H         1 RES1   0.0000
   184 H102     -4.6968    3.0232    2.4811   H         1 RES1   0.0000
   185 H103     -5.1956    4.6724    2.2590   H         1 RES1   0.0000
   186 H104     -2.7439    4.3390    2.8835   H         1 RES1   0.0000
   187 H105     -3.1586    5.4573    1.5950   H         1 RES1   0.0000
   188 H106     -1.7360    5.7094    0.2748   H         1 RES1   0.0000
   189 H107     -1.3802    4.3959   -0.8750   H         1 RES1   0.0000
   190 H108     -0.3145    4.6653    0.5020   H         1 RES1   0.0000
   191 H109     -3.7099    1.5890    1.5692   H         1 RES1   0.0000
   192 H110     -2.2699    1.2904    2.5749   H         1 RES1   0.0000
   193 H111     -4.2838   -0.4664    0.4933   H         1 RES1   0.0000
   194 H112     -3.4209   -1.1804    1.8726   H         1 RES1   0.0000
   195 H113     -4.5670   -3.3032    1.4886   H         1 RES1   0.0000
   196 H114     -5.1032   -4.1858    0.0530   H         1 RES1   0.0000
   197 H115     -5.4008   -2.4509    0.1799   H         1 RES1   0.0000
   198 H116     -2.1152   -3.5467   -1.7446   H         1 RES1   0.0000
   199 H117     -3.8287   -3.9186   -2.0554   H         1 RES1   0.0000
   200 H118     -2.8327   -5.9797   -1.7923   H         1 RES1   0.0000
   201 H119     -3.5710   -5.7429   -0.2214   H         1 RES1   0.0000
   202 H120     -0.7096   -4.8614   -0.5239   H         1 RES1   0.0000
   203 H121     -1.0337   -6.5920   -0.5650   H         1 RES1   0.0000
   204 H122     -2.1501   -6.5081    1.5917   H         1 RES1   0.0000
   205 H123     -1.8631   -4.7642    1.7162   H         1 RES1   0.0000
   206 H124      0.4763   -5.0492    1.9735   H         1 RES1   0.0000
   207 H125      0.4556   -6.6140    1.1656   H         1 RES1   0.0000
   208 H126      1.0071   -7.0254    3.3914   H         1 RES1   0.0000
   209 H127     -0.6099   -7.6576    3.1397   H         1 RES1   0.0000
   210 H128     -0.1133   -4.9284    4.3818   H         1 RES1   0.0000
   211 H129     -0.0710   -6.3993    5.3387   H         1 RES1   0.0000
   212 H130     -2.5204   -5.4198    3.8081   H         1 RES1   0.0000
   213 H131     -2.2870   -5.4520    5.5603   H         1 RES1   0.0000
   214 H132     -2.3922   -6.9581    4.6592   H         1 RES1   0.0000
@<TRIPOS>BOND
     1     1    13    1
     2     1    15    1
     3     1    18    1
     4     1    84    1
     5     1    86    1
     6     1    89    1
     7     1   155    1
     8     1   157    1
     9     1   160    1
    10     2     3    1
    11     2    29    1
    12     2    30    1
    13     2    31    1
    14     3     4    1
    15     3    32    1
    16     3    33    1
    17     4     5    1
    18     4    34    1
    19     4    35    1
    20     5     6    1
    21     5    36    1
    22     5    37    1
    23     6     7    1
    24     6    38    1
    25     6    39    1
    26     7     8    1
    27     7    40    1
    28     7    41    1
    29     8     9    1
    30     8    42    1
    31     8    43    1
    32     9    10    1
    33     9    44    1
    34     9    45    1
    35    10    11    1
    36    10    12    1
    37    11    46    1
    38    11    47    1
    39    11    48    1
    40    12    13    2
    41    12    14    1
    42    14    15    1
    43    14    49    1
    44    14    50    1
    45    15    16    1
    46    16    17    1
    47    16    51    1
    48    16    52    1
    49    17    18    2
    50    17    19    1
    51    19    20    1
    52    19    21    1
    53    20    53    1
    54    20    54    1
    55    20    55    1
    56    21    22    1
    57    21    56    1
    58    21    57    1
    59    22    23    1
    60    22    58    1
    61    22    59    1
    62    23    24    1
    63    23    60    1
    64    23    61    1
    65    24    25    1
    66    24    62    1
    67    24    63    1
    68    25    26    1
    69    25    64    1
    70    25    65    1
    71    26    27    1
    72    26    66    1
    73    26    67    1
    74    27    28    1
    75    27    68    1
    76    27    69    1
    77    28    70    1
    78    28    71    1
    79    28    72    1
    80    73    74    1
    81    73   100    1
    82    73   101    1
    83    73   102    1
    84    74    75    1
    85    74   103    1
    86    74   104    1
    87    75    76    1
    88    75   105    1
    89    75   106    1
    90    76    77    1
    91    76   107    1
    92    76   108    1
    93    77    78    1
    94    77   109    1
    95    77   110    1
    96    78    79    1
    97    78   111    1
    98    78   112    1
    99    79    80    1
   100    79   113    1
   101    79   114    1
   102    80    81    1
   103    80   115    1
   104    80   116    1
   105    81    82    1
   106    81    83    1
   107    82   117    1
   108    82   118    1
   109    82   119    1
   110    83    84    2
   111    83    85    1
   112    85    86    1
   113    85   120    1
   114    85   121    1
   115    86    87    1
   116    87    88    1
   117    87   122    1
   118    87   123    1
   119    88    89    2
   120    88    90    1
   121    90    91    1
   122    90    92    1
   123    91   124    1
   124    91   125    1
   125    91   126    1
   126    92    93    1
   127    92   127    1
   128    92   128    1
   129    93    94    1
   130    93   129    1
   131    93   130    1
   132    94    95    1
   133    94   131    1
   134    94   132    1
   135    95    96    1
   136    95   133    1
   137    95   134    1
   138    96    97    1
   139    96   135    1
   140    96   136    1
   141    97    98    1
   142    97   137    1
   143    97   138    1
   144    98    99    1
   145    98   139    1
   146    98   140    1
   147    99   141    1
   148    99   142    1
   149    99   143    1
   150   144   145    1
   151   144   171    1
   152   144   172    1
   153   144   173    1
   154   145   146    1
   155   145   174    1
   156   145   175    1
   157   146   147    1
   158   146   176    1
   159   146   177    1
   160   147   148    1
   161   147   178    1
   162   147   179    1
   163   148   149    1
   164   148   180    1
   165   148   181    1
   166   149   150    1
   167   149   182    1
   168   149   183    1
   169   150   151    1
   170   150   184    1
   171   150   185    1
   172   151   152    1
   173   151   186    1
   174   151   187    1
   175   152   153    1
   176   152   154    1
   177   153   188    1
   178   153   189    1
   179   153   190    1
   180   154   155    2
   181   154   156    1
   182   156   157    1
   183   156   191    1
   184   156   192    1
   185   157   158    1
   186   158   159    1
   187   158   193    1
   188   158   194    1
   189   159   160    2
   190   159   161    1
   191   161   162    1
   192   161   163    1
   193   162   195    1
   194   162   196    1
   195   162   197    1
   196   163   164    1
   197   163   198    1
   198   163   199    1
   199   164   165    1
   200   164   200    1
   201   164   201    1
   202   165   166    1
   203   165   202    1
   204   165   203    1
   205   166   167    1
   206   166   204    1
   207   166   205    1
   208   167   168    1
   209   167   206    1
   210   167   207    1
   211   168   169    1
   212   168   208    1
   213   168   209    1
   214   169   170    1
   215   169   210    1
   216   169   211    1
   217   170   212    1
   218   170   213    1
   219   170   214    1
@<TRIPOS>SUBSTRUCTURE
     1 RES1      214 GROUP             0 ****  ****    0  
