@<TRIPOS>MOLECULE
tri_tri_mer_capped_0_nunpairedes_0_charge_3 Charge: 3 Unpaired_Electrons: 6 XTB_Unpaired_Electrons: 0 XTB_Charge: 3
    84    97     1     0     0
SMALL
NoCharges
****
Generated from Architector

@<TRIPOS>ATOM
     1 Eu1      -0.1051    0.1959   -1.0252   Eu        1 RES1   0.0000
     2 C1       -1.6672   -1.5834   -4.5351   C.3       1 RES1   0.0000
     3 C2       -2.7327   -0.5003   -4.7210   C.3       1 RES1   0.0000
     4 C3       -4.0913   -1.1981   -4.9086   C.3       1 RES1   0.0000
     5 C4       -2.4045    0.3989   -5.9265   C.3       1 RES1   0.0000
     6 C5       -3.4381    1.5037   -6.1188   C.3       1 RES1   0.0000
     7 C6       -3.6508    2.3954   -4.8850   C.3       1 RES1   0.0000
     8 C7       -5.1008    2.9062   -4.8494   C.3       1 RES1   0.0000
     9 C8       -2.6947    3.6094   -4.9625   C.3       1 RES1   0.0000
    10 C9       -3.3125    1.7285   -3.6001   C.ar      1 RES1   0.0000
    11 N1       -3.2559    2.4997   -2.5227   N.ar      1 RES1   0.0000
    12 C10      -2.7350    1.9994   -1.4185   C.ar      1 RES1   0.0000
    13 C11      -2.2019    2.8816   -0.3463   C.ar      1 RES1   0.0000
    14 C12      -2.7884    3.9708    0.3084   C.ar      1 RES1   0.0000
    15 C13      -1.9909    4.7914    1.0865   C.ar      1 RES1   0.0000
    16 C14      -0.6070    4.5453    1.1925   C.ar      1 RES1   0.0000
    17 C15       0.3558    5.3917    1.8223   C.ar      1 RES1   0.0000
    18 C16       1.6913    5.1256    1.7616   C.ar      1 RES1   0.0000
    19 C17       2.2018    3.9714    1.0897   C.ar      1 RES1   0.0000
    20 C18       3.5607    3.6705    0.8514   C.ar      1 RES1   0.0000
    21 C19       3.8983    2.6417   -0.0120   C.ar      1 RES1   0.0000
    22 C20       2.8834    1.8467   -0.5611   C.ar      1 RES1   0.0000
    23 C21       2.9228    0.9939   -1.7831   C.ar      1 RES1   0.0000
    24 N2        1.9756    0.0328   -1.8450   N.ar      1 RES1   0.0000
    25 N3        1.8436   -0.6813   -2.9807   N.ar      1 RES1   0.0000
    26 C22       2.5226   -0.3376   -4.0553   C.ar      1 RES1   0.0000
    27 C23       3.0923    0.9836   -4.0390   C.ar      1 RES1   0.0000
    28 N4        3.4391    1.5082   -2.8850   N.ar      1 RES1   0.0000
    29 C24       2.8677    1.8569   -5.2290   C.3       1 RES1   0.0000
    30 C25       1.3892    2.2887   -4.9742   C.3       1 RES1   0.0000
    31 C26       3.7831    3.0789   -5.2083   C.3       1 RES1   0.0000
    32 C27       2.9901    1.0552   -6.5362   C.3       1 RES1   0.0000
    33 C28       2.2994   -0.3102   -6.5104   C.3       1 RES1   0.0000
    34 C29       2.6725   -1.1665   -5.2791   C.3       1 RES1   0.0000
    35 C30       1.8805   -2.4708   -5.2297   C.3       1 RES1   0.0000
    36 C31       4.1799   -1.5056   -5.2948   C.3       1 RES1   0.0000
    37 N5        1.6033    2.0000   -0.1982   N.ar      1 RES1   0.0000
    38 C32       1.2657    3.0656    0.5504   C.ar      1 RES1   0.0000
    39 C33      -0.1395    3.3614    0.5808   C.ar      1 RES1   0.0000
    40 N6       -0.9188    2.5517   -0.1557   N.ar      1 RES1   0.0000
    41 N7       -2.2672    0.7480   -1.3087   N.ar      1 RES1   0.0000
    42 N8       -2.2305   -0.0239   -2.4028   N.ar      1 RES1   0.0000
    43 C34      -2.7900    0.3940   -3.5276   C.ar      1 RES1   0.0000
    44 H1       -1.5374   -2.1176   -5.4731   H         1 RES1   0.0000
    45 H2       -1.9851   -2.3119   -3.7937   H         1 RES1   0.0000
    46 H3       -0.7002   -1.1549   -4.2306   H         1 RES1   0.0000
    47 H4       -4.0514   -1.7824   -5.8232   H         1 RES1   0.0000
    48 H5       -4.9189   -0.5037   -4.9810   H         1 RES1   0.0000
    49 H6       -4.2967   -1.8747   -4.0851   H         1 RES1   0.0000
    50 H7       -2.3747   -0.2090   -6.8314   H         1 RES1   0.0000
    51 H8       -1.4103    0.8417   -5.7873   H         1 RES1   0.0000
    52 H9       -4.3806    1.0562   -6.4285   H         1 RES1   0.0000
    53 H10      -3.1069    2.1462   -6.9371   H         1 RES1   0.0000
    54 H11      -5.3114    3.4228   -5.7816   H         1 RES1   0.0000
    55 H12      -5.2503    3.5938   -4.0255   H         1 RES1   0.0000
    56 H13      -5.7989    2.0795   -4.7517   H         1 RES1   0.0000
    57 H14      -2.9205    4.1844   -5.8506   H         1 RES1   0.0000
    58 H15      -1.6623    3.2734   -5.0160   H         1 RES1   0.0000
    59 H16      -2.8083    4.2495   -4.0947   H         1 RES1   0.0000
    60 H17      -3.8491    4.1370    0.2111   H         1 RES1   0.0000
    61 H18      -2.4198    5.6418    1.5949   H         1 RES1   0.0000
    62 H19       0.0156    6.2851    2.3279   H         1 RES1   0.0000
    63 H20       2.3978    5.8059    2.2118   H         1 RES1   0.0000
    64 H21       4.3307    4.2851    1.2916   H         1 RES1   0.0000
    65 H22       4.9278    2.4627   -0.2775   H         1 RES1   0.0000
    66 H23       1.1808    2.4375   -3.9021   H         1 RES1   0.0000
    67 H24       0.6901    1.5387   -5.3381   H         1 RES1   0.0000
    68 H25       1.1959    3.2261   -5.4868   H         1 RES1   0.0000
    69 H26       3.5771    3.7011   -4.3418   H         1 RES1   0.0000
    70 H27       3.6365    3.6611   -6.1120   H         1 RES1   0.0000
    71 H28       4.8212    2.7666   -5.1721   H         1 RES1   0.0000
    72 H29       4.0474    0.9210   -6.7628   H         1 RES1   0.0000
    73 H30       2.5609    1.6399   -7.3491   H         1 RES1   0.0000
    74 H31       2.5830   -0.8637   -7.4079   H         1 RES1   0.0000
    75 H32       1.2121   -0.1934   -6.5396   H         1 RES1   0.0000
    76 H33       0.8513   -2.3236   -5.5427   H         1 RES1   0.0000
    77 H34       1.8973   -2.8816   -4.2209   H         1 RES1   0.0000
    78 H35       2.3222   -3.2035   -5.9011   H         1 RES1   0.0000
    79 H36       4.8018   -0.6213   -5.1912   H         1 RES1   0.0000
    80 H37       4.4286   -1.9946   -6.2319   H         1 RES1   0.0000
    81 H38       4.4207   -2.1926   -4.4886   H         1 RES1   0.0000
    82 O1       -0.3433   -1.4414    0.8275   O.3       1 RES1   0.0000
    83 H39      -1.2021   -1.6777    1.2240   H         1 RES1   0.0000
    84 H40       0.2901   -1.9970    1.3220   H         1 RES1   0.0000
@<TRIPOS>BOND
     1     1    11    1
     2     1    24    1
     3     1    25    1
     4     1    28    1
     5     1    37    1
     6     1    40    1
     7     1    41    1
     8     1    42    1
     9     1    82    1
    10     2     3    1
    11     2    44    1
    12     2    45    1
    13     2    46    1
    14     3     4    1
    15     3     5    1
    16     3    43    1
    17     4    47    1
    18     4    48    1
    19     4    49    1
    20     5     6    1
    21     5    50    1
    22     5    51    1
    23     6     7    1
    24     6    52    1
    25     6    53    1
    26     7     8    1
    27     7     9    1
    28     7    10    1
    29     8    54    1
    30     8    55    1
    31     8    56    1
    32     9    57    1
    33     9    58    1
    34     9    59    1
    35    10    11    1
    36    10    43    2
    37    11    12    2
    38    12    13    1
    39    12    41    1
    40    13    14    1
    41    13    40    2
    42    14    15    2
    43    14    60    1
    44    15    16    1
    45    15    61    1
    46    16    17    1
    47    16    39    2
    48    17    18    2
    49    17    62    1
    50    18    19    1
    51    18    63    1
    52    19    20    1
    53    19    38    2
    54    20    21    2
    55    20    64    1
    56    21    22    1
    57    21    65    1
    58    22    23    1
    59    22    37    2
    60    23    24    1
    61    23    28    2
    62    24    25    2
    63    25    26    1
    64    26    27    2
    65    26    34    1
    66    27    28    1
    67    27    29    1
    68    29    30    1
    69    29    31    1
    70    29    32    1
    71    30    66    1
    72    30    67    1
    73    30    68    1
    74    31    69    1
    75    31    70    1
    76    31    71    1
    77    32    33    1
    78    32    72    1
    79    32    73    1
    80    33    34    1
    81    33    74    1
    82    33    75    1
    83    34    35    1
    84    34    36    1
    85    35    76    1
    86    35    77    1
    87    35    78    1
    88    36    79    1
    89    36    80    1
    90    36    81    1
    91    37    38    1
    92    38    39    1
    93    39    40    1
    94    41    42    2
    95    42    43    1
    96    82    83    1
    97    82    84    1
@<TRIPOS>SUBSTRUCTURE
     1 RES1       84 GROUP             0 ****  ****    0  
