@<TRIPOS>MOLECULE
tricapped_trigonal_prismatic_0_nunpairedes_0_charge_3 Charge: 3 Unpaired_Electrons: 6 XTB_Unpaired_Electrons: 0 XTB_Charge: 3
   186   193     1     0     0
SMALL
NoCharges
****
Generated from Architector

@<TRIPOS>ATOM
     1 Eu1       0.0183    0.0422    0.2966   Eu        1 RES1   0.0000
     2 C1       -7.3742   -3.1476    5.3247   C.3       1 RES1   0.0000
     3 C2       -6.8250   -4.3522    4.5727   C.3       1 RES1   0.0000
     4 C3       -5.5088   -4.8446    5.1741   C.3       1 RES1   0.0000
     5 C4       -4.9340   -6.0733    4.4651   C.3       1 RES1   0.0000
     6 C5       -4.3786   -5.7333    3.0801   C.3       1 RES1   0.0000
     7 C6       -3.7961   -6.9590    2.3719   C.3       1 RES1   0.0000
     8 C7       -2.8342   -6.6435    1.2207   C.3       1 RES1   0.0000
     9 C8       -3.4991   -6.2198   -0.0934   C.3       1 RES1   0.0000
    10 C9       -4.3190   -4.9300    0.0216   C.3       1 RES1   0.0000
    11 C10      -4.3242   -4.0745   -1.2392   C.3       1 RES1   0.0000
    12 C11      -5.3361   -2.9345   -1.1043   C.3       1 RES1   0.0000
    13 C12      -4.9706   -1.6874   -1.9041   C.3       1 RES1   0.0000
    14 N1       -4.1662   -0.7031   -1.1763   N.am      1 RES1   0.0000
    15 C13      -3.0045   -0.8215   -0.5865   C.2       1 RES1   0.0000
    16 O1       -2.3488    0.1567   -0.1335   O.2       1 RES1   0.0000
    17 C14      -2.3659   -2.1147   -0.1277   C.ar      1 RES1   0.0000
    18 C15      -2.6494   -2.3952    1.1746   C.ar      1 RES1   0.0000
    19 C16      -1.4193   -2.6045    1.9275   C.ar      1 RES1   0.0000
    20 O2       -0.9589   -1.7209    2.6450   O.2       1 RES1   0.0000
    21 C17      -0.5301   -3.5888    1.3219   C.ar      1 RES1   0.0000
    22 C18      -0.3134   -3.2754    0.0210   C.ar      1 RES1   0.0000
    23 C19       1.1482   -3.1582   -0.3341   C.2       1 RES1   0.0000
    24 O3        1.5268   -1.9729   -0.1647   O.2       1 RES1   0.0000
    25 N2        1.9319   -4.1745   -0.5775   N.am      1 RES1   0.0000
    26 C20       1.5887   -5.5786   -0.7313   C.3       1 RES1   0.0000
    27 C21       1.6967   -6.3920    0.5626   C.3       1 RES1   0.0000
    28 C22       3.0902   -6.4286    1.2108   C.3       1 RES1   0.0000
    29 C23       3.1913   -5.6608    2.5326   C.3       1 RES1   0.0000
    30 C24       3.2472   -4.1409    2.3795   C.3       1 RES1   0.0000
    31 C25       3.4055   -3.4074    3.7157   C.3       1 RES1   0.0000
    32 C26       2.1411   -3.4697    4.5747   C.3       1 RES1   0.0000
    33 C27       2.2567   -2.6998    5.8932   C.3       1 RES1   0.0000
    34 C28       2.4212   -1.1912    5.7331   C.3       1 RES1   0.0000
    35 C29       1.1853   -0.5043    5.1513   C.3       1 RES1   0.0000
    36 C30       1.4593    0.9766    4.9191   C.3       1 RES1   0.0000
    37 C31       2.3053    1.1265    3.6634   C.3       1 RES1   0.0000
    38 O4       -1.1116   -2.3730   -0.6645   O.2       1 RES1   0.0000
    39 H1       -8.2713   -2.7719    4.8401   H         1 RES1   0.0000
    40 H2       -6.6355   -2.3493    5.3630   H         1 RES1   0.0000
    41 H3       -7.6277   -3.4221    6.3451   H         1 RES1   0.0000
    42 H4       -6.6733   -4.0859    3.5216   H         1 RES1   0.0000
    43 H5       -7.5559   -5.1633    4.5969   H         1 RES1   0.0000
    44 H6       -5.6892   -5.0988    6.2205   H         1 RES1   0.0000
    45 H7       -4.7697   -4.0358    5.1564   H         1 RES1   0.0000
    46 H8       -5.7128   -6.8329    4.3716   H         1 RES1   0.0000
    47 H9       -4.1296   -6.4925    5.0764   H         1 RES1   0.0000
    48 H10      -3.5955   -4.9729    3.1998   H         1 RES1   0.0000
    49 H11      -5.1866   -5.3076    2.4840   H         1 RES1   0.0000
    50 H12      -4.6072   -7.5854    1.9984   H         1 RES1   0.0000
    51 H13      -3.2484   -7.5475    3.1116   H         1 RES1   0.0000
    52 H14      -2.2593   -7.5477    1.0137   H         1 RES1   0.0000
    53 H15      -2.1236   -5.8686    1.5379   H         1 RES1   0.0000
    54 H16      -4.1440   -7.0315   -0.4309   H         1 RES1   0.0000
    55 H17      -2.7168   -6.0906   -0.8490   H         1 RES1   0.0000
    56 H18      -3.9057   -4.3125    0.8327   H         1 RES1   0.0000
    57 H19      -5.3473   -5.1805    0.2863   H         1 RES1   0.0000
    58 H20      -4.5529   -4.6840   -2.1151   H         1 RES1   0.0000
    59 H21      -3.3191   -3.6552   -1.3862   H         1 RES1   0.0000
    60 H22      -5.4504   -2.6647   -0.0569   H         1 RES1   0.0000
    61 H23      -6.3079   -3.2896   -1.4404   H         1 RES1   0.0000
    62 H24      -5.8751   -1.1637   -2.1990   H         1 RES1   0.0000
    63 H25      -4.4475   -1.9773   -2.8173   H         1 RES1   0.0000
    64 H26      -4.5293    0.2482   -1.1768   H         1 RES1   0.0000
    65 H27      -3.5302   -1.9882    1.6437   H         1 RES1   0.0000
    66 H28       0.2011   -4.1461    1.8852   H         1 RES1   0.0000
    67 H29       2.9308   -3.9893   -0.5550   H         1 RES1   0.0000
    68 H30       2.2741   -5.9918   -1.4719   H         1 RES1   0.0000
    69 H31       0.5764   -5.6641   -1.1217   H         1 RES1   0.0000
    70 H32       1.3995   -7.4059    0.2987   H         1 RES1   0.0000
    71 H33       0.9647   -6.0401    1.2873   H         1 RES1   0.0000
    72 H34       3.8500   -6.0700    0.5151   H         1 RES1   0.0000
    73 H35       3.3356   -7.4664    1.4292   H         1 RES1   0.0000
    74 H36       4.1045   -5.9759    3.0398   H         1 RES1   0.0000
    75 H37       2.3550   -5.9484    3.1724   H         1 RES1   0.0000
    76 H38       2.3410   -3.7620    1.8920   H         1 RES1   0.0000
    77 H39       4.1000   -3.8901    1.7406   H         1 RES1   0.0000
    78 H40       3.6438   -2.3633    3.4962   H         1 RES1   0.0000
    79 H41       4.2420   -3.8347    4.2719   H         1 RES1   0.0000
    80 H42       1.9306   -4.5108    4.8239   H         1 RES1   0.0000
    81 H43       1.2946   -3.0809    3.9982   H         1 RES1   0.0000
    82 H44       3.1119   -3.0862    6.4502   H         1 RES1   0.0000
    83 H45       1.3590   -2.8892    6.4852   H         1 RES1   0.0000
    84 H46       3.2987   -0.9925    5.1144   H         1 RES1   0.0000
    85 H47       2.6188   -0.7600    6.7173   H         1 RES1   0.0000
    86 H48       0.3525   -0.6370    5.8415   H         1 RES1   0.0000
    87 H49       0.8978   -0.9466    4.1875   H         1 RES1   0.0000
    88 H50       1.9926    1.3889    5.7771   H         1 RES1   0.0000
    89 H51       0.5251    1.5281    4.7982   H         1 RES1   0.0000
    90 H52       3.2047    0.5176    3.7343   H         1 RES1   0.0000
    91 H53       2.6255    2.1563    3.5237   H         1 RES1   0.0000
    92 H54       1.7081    0.7722    2.7923   H         1 RES1   0.0000
    93 C32       0.4677    2.2737    8.1176   C.3       1 RES1   0.0000
    94 C33       0.6546    3.6216    7.4327   C.3       1 RES1   0.0000
    95 C34      -0.6819    4.2512    7.0422   C.3       1 RES1   0.0000
    96 C35      -0.5331    5.6025    6.3419   C.3       1 RES1   0.0000
    97 C36       0.1750    5.4946    4.9885   C.3       1 RES1   0.0000
    98 C37       0.1822    6.8337    4.2523   C.3       1 RES1   0.0000
    99 C38       0.7543    6.7772    2.8296   C.3       1 RES1   0.0000
   100 C39       2.2714    6.9683    2.7450   C.3       1 RES1   0.0000
   101 C40       3.1131    5.7276    3.0827   C.3       1 RES1   0.0000
   102 C41       3.7714    5.1282    1.8398   C.3       1 RES1   0.0000
   103 C42       4.6855    3.9524    2.1874   C.3       1 RES1   0.0000
   104 C43       4.9945    3.0918    0.9596   C.3       1 RES1   0.0000
   105 N3        4.0951    1.9518    0.8390   N.am      1 RES1   0.0000
   106 C44       2.8306    1.8200    0.5358   C.2       1 RES1   0.0000
   107 O5        2.2962    0.6750    0.4543   O.2       1 RES1   0.0000
   108 C45       1.7295    2.8546    0.3768   C.ar      1 RES1   0.0000
   109 C46       1.0482    3.1958    1.5138   C.ar      1 RES1   0.0000
   110 C47      -0.3571    2.8463    1.4513   C.ar      1 RES1   0.0000
   111 O6       -0.8144    1.9379    2.1644   O.2       1 RES1   0.0000
   112 C48      -1.0149    3.2223    0.2135   C.ar      1 RES1   0.0000
   113 C49      -0.2633    2.9776   -0.8842   C.ar      1 RES1   0.0000
   114 C50      -0.9795    2.3969   -2.0871   C.2       1 RES1   0.0000
   115 O7       -1.0424    1.1546   -2.0259   O.2       1 RES1   0.0000
   116 N4       -1.5749    3.1717   -2.9603   N.am      1 RES1   0.0000
   117 C51      -1.2902    4.5874   -3.1785   C.3       1 RES1   0.0000
   118 C52      -1.9410    5.5573   -2.1925   C.3       1 RES1   0.0000
   119 C53      -3.4684    5.6952   -2.2897   C.3       1 RES1   0.0000
   120 C54      -4.2352    5.1409   -1.0858   C.3       1 RES1   0.0000
   121 C55      -4.4716    3.6292   -1.0969   C.3       1 RES1   0.0000
   122 C56      -5.3828    3.1844    0.0546   C.3       1 RES1   0.0000
   123 C57      -4.8170    3.5107    1.4376   C.3       1 RES1   0.0000
   124 C58      -5.7406    3.0983    2.5860   C.3       1 RES1   0.0000
   125 C59      -5.9380    1.5915    2.7419   C.3       1 RES1   0.0000
   126 C60      -4.6334    0.8257    2.9668   C.3       1 RES1   0.0000
   127 C61      -4.8948   -0.6295    3.3582   C.3       1 RES1   0.0000
   128 C62      -5.7572   -1.3607    2.3278   C.3       1 RES1   0.0000
   129 O8        1.0477    2.6213   -0.7997   O.2       1 RES1   0.0000
   130 H55       1.4313    1.8223    8.3403   H         1 RES1   0.0000
   131 H56      -0.0993    1.5957    7.4819   H         1 RES1   0.0000
   132 H57      -0.0724    2.3943    9.0525   H         1 RES1   0.0000
   133 H58       1.2666    3.4905    6.5348   H         1 RES1   0.0000
   134 H59       1.1906    4.3021    8.0979   H         1 RES1   0.0000
   135 H60      -1.2736    4.3941    7.9492   H         1 RES1   0.0000
   136 H61      -1.2346    3.5639    6.3926   H         1 RES1   0.0000
   137 H62       0.0271    6.2826    6.9870   H         1 RES1   0.0000
   138 H63      -1.5279    6.0314    6.1889   H         1 RES1   0.0000
   139 H64      -0.3406    4.7446    4.3736   H         1 RES1   0.0000
   140 H65       1.2005    5.1591    5.1598   H         1 RES1   0.0000
   141 H66       0.7487    7.5623    4.8352   H         1 RES1   0.0000
   142 H67      -0.8477    7.1963    4.2007   H         1 RES1   0.0000
   143 H68       0.2960    7.5850    2.2579   H         1 RES1   0.0000
   144 H69       0.4645    5.8353    2.3475   H         1 RES1   0.0000
   145 H70       2.5420    7.7861    3.4110   H         1 RES1   0.0000
   146 H71       2.5218    7.2914    1.7328   H         1 RES1   0.0000
   147 H72       2.4845    4.9721    3.5587   H         1 RES1   0.0000
   148 H73       3.8936    5.9934    3.7962   H         1 RES1   0.0000
   149 H74       4.3708    5.8944    1.3448   H         1 RES1   0.0000
   150 H75       2.9969    4.8114    1.1338   H         1 RES1   0.0000
   151 H76       4.2373    3.3233    2.9582   H         1 RES1   0.0000
   152 H77       5.6176    4.3385    2.5985   H         1 RES1   0.0000
   153 H78       6.0008    2.6795    1.0295   H         1 RES1   0.0000
   154 H79       4.9432    3.7102    0.0639   H         1 RES1   0.0000
   155 H80       4.5289    1.0631    1.0785   H         1 RES1   0.0000
   156 H81       1.5608    3.2928    2.4524   H         1 RES1   0.0000
   157 H82      -2.0886    3.3189    0.1615   H         1 RES1   0.0000
   158 H83      -2.2215    2.7292   -3.6020   H         1 RES1   0.0000
   159 H84      -1.6095    4.8281   -4.1919   H         1 RES1   0.0000
   160 H85      -0.2089    4.7242   -3.1334   H         1 RES1   0.0000
   161 H86      -1.4869    6.5254   -2.4012   H         1 RES1   0.0000
   162 H87      -1.6568    5.2952   -1.1750   H         1 RES1   0.0000
   163 H88      -3.8407    5.2452   -3.2095   H         1 RES1   0.0000
   164 H89      -3.7015    6.7569   -2.3459   H         1 RES1   0.0000
   165 H90      -5.2162    5.6181   -1.0618   H         1 RES1   0.0000
   166 H91      -3.7120    5.4385   -0.1753   H         1 RES1   0.0000
   167 H92      -3.5248    3.0751   -1.0483   H         1 RES1   0.0000
   168 H93      -4.9515    3.3631   -2.0427   H         1 RES1   0.0000
   169 H94      -5.5513    2.1052   -0.0231   H         1 RES1   0.0000
   170 H95      -6.3511    3.6773   -0.0524   H         1 RES1   0.0000
   171 H96      -4.6714    4.5884    1.5163   H         1 RES1   0.0000
   172 H97      -3.8436    3.0264    1.5660   H         1 RES1   0.0000
   173 H98      -6.7165    3.5636    2.4377   H         1 RES1   0.0000
   174 H99      -5.3272    3.4963    3.5146   H         1 RES1   0.0000
   175 H100     -6.4546    1.1996    1.8642   H         1 RES1   0.0000
   176 H101     -6.5877    1.4258    3.6038   H         1 RES1   0.0000
   177 H102     -4.0682    1.3102    3.7669   H         1 RES1   0.0000
   178 H103     -4.0102    0.8516    2.0614   H         1 RES1   0.0000
   179 H104     -5.3989   -0.6534    4.3247   H         1 RES1   0.0000
   180 H105     -3.9301   -1.1310    3.4905   H         1 RES1   0.0000
   181 H106     -6.8056   -1.1112    2.4624   H         1 RES1   0.0000
   182 H107     -5.6615   -2.4391    2.4373   H         1 RES1   0.0000
   183 H108     -5.4757   -1.0678    1.3137   H         1 RES1   0.0000
   184 O9        1.2112   -0.1802   -2.0770   O.3       1 RES1   0.0000
   185 H109      0.8942   -0.5579   -2.9088   H         1 RES1   0.0000
   186 H110      2.1752   -0.1498   -2.1587   H         1 RES1   0.0000
@<TRIPOS>BOND
     1     1    16    1
     2     1    20    1
     3     1    24    1
     4     1    38    1
     5     1   107    1
     6     1   111    1
     7     1   115    1
     8     1   129    1
     9     1   184    1
    10     2     3    1
    11     2    39    1
    12     2    40    1
    13     2    41    1
    14     3     4    1
    15     3    42    1
    16     3    43    1
    17     4     5    1
    18     4    44    1
    19     4    45    1
    20     5     6    1
    21     5    46    1
    22     5    47    1
    23     6     7    1
    24     6    48    1
    25     6    49    1
    26     7     8    1
    27     7    50    1
    28     7    51    1
    29     8     9    1
    30     8    52    1
    31     8    53    1
    32     9    10    1
    33     9    54    1
    34     9    55    1
    35    10    11    1
    36    10    56    1
    37    10    57    1
    38    11    12    1
    39    11    58    1
    40    11    59    1
    41    12    13    1
    42    12    60    1
    43    12    61    1
    44    13    14    1
    45    13    62    1
    46    13    63    1
    47    14    15    1
    48    14    64    1
    49    15    16    2
    50    15    17    1
    51    17    18    2
    52    17    38    1
    53    18    19    1
    54    18    65    1
    55    19    20    2
    56    19    21    1
    57    21    22    2
    58    21    66    1
    59    22    23    1
    60    22    38    1
    61    23    24    2
    62    23    25    1
    63    25    26    1
    64    25    67    1
    65    26    27    1
    66    26    68    1
    67    26    69    1
    68    27    28    1
    69    27    70    1
    70    27    71    1
    71    28    29    1
    72    28    72    1
    73    28    73    1
    74    29    30    1
    75    29    74    1
    76    29    75    1
    77    30    31    1
    78    30    76    1
    79    30    77    1
    80    31    32    1
    81    31    78    1
    82    31    79    1
    83    32    33    1
    84    32    80    1
    85    32    81    1
    86    33    34    1
    87    33    82    1
    88    33    83    1
    89    34    35    1
    90    34    84    1
    91    34    85    1
    92    35    36    1
    93    35    86    1
    94    35    87    1
    95    36    37    1
    96    36    88    1
    97    36    89    1
    98    37    90    1
    99    37    91    1
   100    37    92    1
   101    93    94    1
   102    93   130    1
   103    93   131    1
   104    93   132    1
   105    94    95    1
   106    94   133    1
   107    94   134    1
   108    95    96    1
   109    95   135    1
   110    95   136    1
   111    96    97    1
   112    96   137    1
   113    96   138    1
   114    97    98    1
   115    97   139    1
   116    97   140    1
   117    98    99    1
   118    98   141    1
   119    98   142    1
   120    99   100    1
   121    99   143    1
   122    99   144    1
   123   100   101    1
   124   100   145    1
   125   100   146    1
   126   101   102    1
   127   101   147    1
   128   101   148    1
   129   102   103    1
   130   102   149    1
   131   102   150    1
   132   103   104    1
   133   103   151    1
   134   103   152    1
   135   104   105    1
   136   104   153    1
   137   104   154    1
   138   105   106    1
   139   105   155    1
   140   106   107    2
   141   106   108    1
   142   108   109    2
   143   108   129    1
   144   109   110    1
   145   109   156    1
   146   110   111    2
   147   110   112    1
   148   112   113    2
   149   112   157    1
   150   113   114    1
   151   113   129    1
   152   114   115    2
   153   114   116    1
   154   116   117    1
   155   116   158    1
   156   117   118    1
   157   117   159    1
   158   117   160    1
   159   118   119    1
   160   118   161    1
   161   118   162    1
   162   119   120    1
   163   119   163    1
   164   119   164    1
   165   120   121    1
   166   120   165    1
   167   120   166    1
   168   121   122    1
   169   121   167    1
   170   121   168    1
   171   122   123    1
   172   122   169    1
   173   122   170    1
   174   123   124    1
   175   123   171    1
   176   123   172    1
   177   124   125    1
   178   124   173    1
   179   124   174    1
   180   125   126    1
   181   125   175    1
   182   125   176    1
   183   126   127    1
   184   126   177    1
   185   126   178    1
   186   127   128    1
   187   127   179    1
   188   127   180    1
   189   128   181    1
   190   128   182    1
   191   128   183    1
   192   184   185    1
   193   184   186    1
@<TRIPOS>SUBSTRUCTURE
     1 RES1      186 GROUP             0 ****  ****    0  
