@<TRIPOS>MOLECULE
am_c3_9H2O_c0_0_nunpairedes_0_charge_3 Charge: 3 Unpaired_Electrons: 6 XTB_Unpaired_Electrons: 0 XTB_Charge: 3
    88   100     1     0     0
SMALL
NoCharges
****
Generated from Architector

@<TRIPOS>ATOM
     1 Eu1       0.0191    1.1224    0.3400   Eu        1 RES1   0.0000
     2 C1       -5.1038   -3.0471    1.8586   C.3       1 RES1   0.0000
     3 C2       -3.9324   -2.2378    1.4721   C.ar      1 RES1   0.0000
     4 C3       -3.3492   -2.3407    0.2043   C.ar      1 RES1   0.0000
     5 C4       -2.3290   -1.4686   -0.1484   C.ar      1 RES1   0.0000
     6 C5       -1.6966   -1.3588   -1.4895   C.ar      1 RES1   0.0000
     7 C6       -1.6659   -2.3177   -2.4930   C.ar      1 RES1   0.0000
     8 C7       -1.0457   -2.0284   -3.7194   C.ar      1 RES1   0.0000
     9 C8       -0.9572   -3.0427   -4.7926   C.3       1 RES1   0.0000
    10 C9       -0.5114   -0.7415   -3.9063   C.ar      1 RES1   0.0000
    11 C10      -0.5565    0.1465   -2.8551   C.ar      1 RES1   0.0000
    12 C11      -0.0178    1.5351   -2.7278   C.ar      1 RES1   0.0000
    13 N1        0.7500    1.6137   -1.6336   N.ar      1 RES1   0.0000
    14 N2        1.0494    2.8086   -1.1181   N.ar      1 RES1   0.0000
    15 C12       0.7142    3.9050   -1.7870   C.ar      1 RES1   0.0000
    16 C13      -0.2481    3.7864   -2.8404   C.ar      1 RES1   0.0000
    17 N3       -0.5796    2.5849   -3.2932   N.ar      1 RES1   0.0000
    18 C14      -1.0672    4.9567   -3.2570   C.3       1 RES1   0.0000
    19 C15      -0.7805    5.2768   -4.7397   C.3       1 RES1   0.0000
    20 C16      -2.5531    4.5496   -3.1541   C.3       1 RES1   0.0000
    21 C17      -0.7731    6.1683   -2.3580   C.3       1 RES1   0.0000
    22 C18       0.7115    6.3844   -2.0742   C.3       1 RES1   0.0000
    23 C19       1.3315    5.1858   -1.3351   C.3       1 RES1   0.0000
    24 C20       2.8287    5.0132   -1.6833   C.3       1 RES1   0.0000
    25 C21       1.2107    5.2960    0.1923   C.3       1 RES1   0.0000
    26 N4       -1.1015   -0.1618   -1.6622   N.ar      1 RES1   0.0000
    27 N5       -1.9032   -0.5079    0.6946   N.ar      1 RES1   0.0000
    28 C22      -2.4705   -0.3995    1.9127   C.ar      1 RES1   0.0000
    29 C23      -1.9794    0.8630    2.5112   C.ar      1 RES1   0.0000
    30 N6       -0.6637    1.0336    2.3877   N.ar      1 RES1   0.0000
    31 N7       -0.1156    2.2403    2.6346   N.ar      1 RES1   0.0000
    32 C24      -0.8932    3.2041    3.1210   C.ar      1 RES1   0.0000
    33 C25      -2.2934    3.0683    2.8289   C.ar      1 RES1   0.0000
    34 N8       -2.8147    1.8907    2.6018   N.ar      1 RES1   0.0000
    35 C26      -3.0553    4.3127    2.5234   C.3       1 RES1   0.0000
    36 C27      -2.4628    4.7841    1.1695   C.3       1 RES1   0.0000
    37 C28      -4.5471    4.0272    2.3590   C.3       1 RES1   0.0000
    38 C29      -2.7852    5.2929    3.6823   C.3       1 RES1   0.0000
    39 C30      -1.2978    5.5647    3.9002   C.3       1 RES1   0.0000
    40 C31      -0.4167    4.3058    3.9831   C.3       1 RES1   0.0000
    41 C32       1.0564    4.6653    3.8341   C.3       1 RES1   0.0000
    42 C33      -0.6387    3.5256    5.3151   C.3       1 RES1   0.0000
    43 C34      -3.4452   -1.2605    2.3556   C.ar      1 RES1   0.0000
    44 H1       -5.9936   -2.4328    1.6996   H         1 RES1   0.0000
    45 H2       -5.0674   -3.2937    2.9163   H         1 RES1   0.0000
    46 H3       -5.2315   -3.9516    1.2690   H         1 RES1   0.0000
    47 H4       -3.7184   -3.0723   -0.4979   H         1 RES1   0.0000
    48 H5       -2.0845   -3.3003   -2.3339   H         1 RES1   0.0000
    49 H6       -1.8844   -3.0332   -5.3707   H         1 RES1   0.0000
    50 H7       -0.8462   -4.0519   -4.3991   H         1 RES1   0.0000
    51 H8       -0.1340   -2.8165   -5.4661   H         1 RES1   0.0000
    52 H9       -0.0468   -0.4364   -4.8323   H         1 RES1   0.0000
    53 H10      -1.1957    4.4971   -5.3709   H         1 RES1   0.0000
    54 H11       0.2787    5.3810   -4.9537   H         1 RES1   0.0000
    55 H12      -1.2635    6.2172   -4.9850   H         1 RES1   0.0000
    56 H13      -2.7186    3.5836   -3.6257   H         1 RES1   0.0000
    57 H14      -3.1526    5.2971   -3.6657   H         1 RES1   0.0000
    58 H15      -2.8794    4.4897   -2.1153   H         1 RES1   0.0000
    59 H16      -1.2940    6.0374   -1.4047   H         1 RES1   0.0000
    60 H17      -1.1804    7.0566   -2.8437   H         1 RES1   0.0000
    61 H18       0.7967    7.2742   -1.4510   H         1 RES1   0.0000
    62 H19       1.2417    6.5846   -3.0065   H         1 RES1   0.0000
    63 H20       2.9728    4.8071   -2.7433   H         1 RES1   0.0000
    64 H21       3.2429    4.1905   -1.0992   H         1 RES1   0.0000
    65 H22       3.3671    5.9263   -1.4416   H         1 RES1   0.0000
    66 H23       0.1676    5.3322    0.4954   H         1 RES1   0.0000
    67 H24       1.7070    6.2016    0.5259   H         1 RES1   0.0000
    68 H25       1.6875    4.4422    0.6817   H         1 RES1   0.0000
    69 H26      -2.1579    3.9244    0.5380   H         1 RES1   0.0000
    70 H27      -1.6041    5.4332    1.3083   H         1 RES1   0.0000
    71 H28      -3.2210    5.3398    0.6300   H         1 RES1   0.0000
    72 H29      -4.7273    3.4609    1.4480   H         1 RES1   0.0000
    73 H30      -5.0958    4.9633    2.2984   H         1 RES1   0.0000
    74 H31      -4.9213    3.4587    3.2060   H         1 RES1   0.0000
    75 H32      -3.2268    4.8693    4.5872   H         1 RES1   0.0000
    76 H33      -3.2887    6.2389    3.4818   H         1 RES1   0.0000
    77 H34      -1.1785    6.1349    4.8210   H         1 RES1   0.0000
    78 H35      -0.9189    6.1981    3.0952   H         1 RES1   0.0000
    79 H36       1.2203    5.2562    2.9374   H         1 RES1   0.0000
    80 H37       1.6732    3.7722    3.7865   H         1 RES1   0.0000
    81 H38       1.3639    5.2634    4.6875   H         1 RES1   0.0000
    82 H39      -1.6673    3.1950    5.4530   H         1 RES1   0.0000
    83 H40      -0.3891    4.2012    6.1259   H         1 RES1   0.0000
    84 H41       0.0188    2.6587    5.3731   H         1 RES1   0.0000
    85 H42      -3.8509   -1.1840    3.3507   H         1 RES1   0.0000
    86 O1        1.4894   -0.8972    0.3768   O.3       1 RES1   0.0000
    87 H43       2.3267   -1.0331   -0.1049   H         1 RES1   0.0000
    88 H44       1.4625   -1.6368    1.0075   H         1 RES1   0.0000
@<TRIPOS>BOND
     1     1    13    1
     2     1    14    1
     3     1    17    1
     4     1    26    1
     5     1    27    1
     6     1    30    1
     7     1    31    1
     8     1    34    1
     9     1    86    1
    10     2     3    1
    11     2    44    1
    12     2    45    1
    13     2    46    1
    14     3     4    1
    15     3    43    2
    16     4     5    2
    17     4    47    1
    18     5     6    1
    19     5    27    1
    20     6     7    1
    21     6    26    2
    22     7     8    2
    23     7    48    1
    24     8     9    1
    25     8    10    1
    26     9    49    1
    27     9    50    1
    28     9    51    1
    29    10    11    2
    30    10    52    1
    31    11    12    1
    32    11    26    1
    33    12    13    1
    34    12    17    2
    35    13    14    2
    36    14    15    1
    37    15    16    2
    38    15    23    1
    39    16    17    1
    40    16    18    1
    41    18    19    1
    42    18    20    1
    43    18    21    1
    44    19    53    1
    45    19    54    1
    46    19    55    1
    47    20    56    1
    48    20    57    1
    49    20    58    1
    50    21    22    1
    51    21    59    1
    52    21    60    1
    53    22    23    1
    54    22    61    1
    55    22    62    1
    56    23    24    1
    57    23    25    1
    58    24    63    1
    59    24    64    1
    60    24    65    1
    61    25    66    1
    62    25    67    1
    63    25    68    1
    64    27    28    2
    65    28    29    1
    66    28    43    1
    67    29    30    1
    68    29    34    2
    69    30    31    2
    70    31    32    1
    71    32    33    2
    72    32    40    1
    73    33    34    1
    74    33    35    1
    75    35    36    1
    76    35    37    1
    77    35    38    1
    78    36    69    1
    79    36    70    1
    80    36    71    1
    81    37    72    1
    82    37    73    1
    83    37    74    1
    84    38    39    1
    85    38    75    1
    86    38    76    1
    87    39    40    1
    88    39    77    1
    89    39    78    1
    90    40    41    1
    91    40    42    1
    92    41    79    1
    93    41    80    1
    94    41    81    1
    95    42    82    1
    96    42    83    1
    97    42    84    1
    98    43    85    1
    99    86    87    1
   100    86    88    1
@<TRIPOS>SUBSTRUCTURE
     1 RES1       88 GROUP             0 ****  ****    0  
