@<TRIPOS>MOLECULE
cn9_YICLED_0_nunpairedes_0_charge_3 Charge: 3 Unpaired_Electrons: 6 XTB_Unpaired_Electrons: 0 XTB_Charge: 3
   130   141     1     0     0
SMALL
NoCharges
****
Generated from Architector

@<TRIPOS>ATOM
     1 Eu1       0.2326    0.1857   -0.3727   Eu        1 RES1   0.0000
     2 O1        0.6613    0.8845    1.8088   O.2       1 RES1   0.0000
     3 C1       -0.1432    1.4158    2.6009   C.2       1 RES1   0.0000
     4 C2       -1.6568    1.1639    2.4326   C.3       1 RES1   0.0000
     5 O2       -1.9181    0.2204    1.3989   O.3       1 RES1   0.0000
     6 C3       -2.3860   -1.0713    1.7743   C.3       1 RES1   0.0000
     7 C4       -1.3271   -2.1360    1.4226   C.2       1 RES1   0.0000
     8 O3       -0.2545   -1.7576    0.9125   O.2       1 RES1   0.0000
     9 N1       -1.6074   -3.4029    1.6818   N.am      1 RES1   0.0000
    10 C5       -0.5935   -4.4430    1.5622   C.3       1 RES1   0.0000
    11 C6       -0.4352   -5.1712    2.9036   C.3       1 RES1   0.0000
    12 C7       -1.7716   -5.7610    3.3538   C.3       1 RES1   0.0000
    13 C8       -2.8058   -4.6423    3.4289   C.3       1 RES1   0.0000
    14 C9       -2.8995   -3.9473    2.0716   C.3       1 RES1   0.0000
    15 N2        0.2569    2.1760    3.6083   N.am      1 RES1   0.0000
    16 C10       1.6923    2.2515    3.9075   C.3       1 RES1   0.0000
    17 C11       1.9668    3.1281    5.1277   C.3       1 RES1   0.0000
    18 C12       1.1179    2.6887    6.3206   C.3       1 RES1   0.0000
    19 C13      -0.3673    2.5855    5.9363   C.3       1 RES1   0.0000
    20 C14      -0.5821    2.9839    4.4783   C.3       1 RES1   0.0000
    21 H1       -2.0955    0.8521    3.3881   H         1 RES1   0.0000
    22 H2       -2.1338    2.0978    2.1113   H         1 RES1   0.0000
    23 H3       -2.6259   -1.1161    2.8443   H         1 RES1   0.0000
    24 H4       -3.2971   -1.2785    1.1942   H         1 RES1   0.0000
    25 H5       -0.9162   -5.1529    0.7929   H         1 RES1   0.0000
    26 H6        0.3458   -3.9737    1.2645   H         1 RES1   0.0000
    27 H7        0.3072   -5.9631    2.7928   H         1 RES1   0.0000
    28 H8       -0.0734   -4.4675    3.6592   H         1 RES1   0.0000
    29 H9       -2.1029   -6.5239    2.6440   H         1 RES1   0.0000
    30 H10      -1.6624   -6.2359    4.3292   H         1 RES1   0.0000
    31 H11      -3.7840   -5.0409    3.6950   H         1 RES1   0.0000
    32 H12      -2.5138   -3.9164    4.1905   H         1 RES1   0.0000
    33 H13      -3.1719   -4.6891    1.3128   H         1 RES1   0.0000
    34 H14      -3.6650   -3.1784    2.0907   H         1 RES1   0.0000
    35 H15       2.0388    1.2314    4.1071   H         1 RES1   0.0000
    36 H16       2.2186    2.6299    3.0230   H         1 RES1   0.0000
    37 H17       3.0224    3.0462    5.3895   H         1 RES1   0.0000
    38 H18       1.7772    4.1744    4.8882   H         1 RES1   0.0000
    39 H19       1.4800    1.7226    6.6721   H         1 RES1   0.0000
    40 H20       1.2533    3.3991    7.1340   H         1 RES1   0.0000
    41 H21      -0.7144    1.5640    6.0686   H         1 RES1   0.0000
    42 H22      -0.9820    3.2167    6.5759   H         1 RES1   0.0000
    43 H23      -1.6276    2.8918    4.2045   H         1 RES1   0.0000
    44 H24      -0.2995    4.0305    4.3499   H         1 RES1   0.0000
    45 O4       -0.1153    0.6616   -2.5908   O.2       1 RES1   0.0000
    46 C15      -0.7665   -0.1320   -3.2948   C.2       1 RES1   0.0000
    47 C16      -1.9918   -0.8179   -2.6561   C.3       1 RES1   0.0000
    48 O5       -2.1578   -0.3246   -1.3279   O.3       1 RES1   0.0000
    49 C17      -3.0836    0.7543   -1.1877   C.3       1 RES1   0.0000
    50 C18      -2.4108    2.0138   -0.6074   C.2       1 RES1   0.0000
    51 O6       -1.1755    2.0467   -0.4376   O.2       1 RES1   0.0000
    52 N3       -3.1767    3.0578   -0.3128   N.am      1 RES1   0.0000
    53 C19      -2.4914    4.2853    0.1225   C.3       1 RES1   0.0000
    54 C20      -3.4796    5.3201    0.6431   C.3       1 RES1   0.0000
    55 C21      -4.3776    4.7450    1.7416   C.3       1 RES1   0.0000
    56 C22      -4.8562    3.3279    1.3880   C.3       1 RES1   0.0000
    57 C23      -4.6184    3.0444   -0.0976   C.3       1 RES1   0.0000
    58 N4       -0.4004   -0.4359   -4.5251   N.am      1 RES1   0.0000
    59 C24       0.8133    0.2118   -5.0337   C.3       1 RES1   0.0000
    60 C25       1.0184   -0.0777   -6.5124   C.3       1 RES1   0.0000
    61 C26      -0.2338    0.3174   -7.2954   C.3       1 RES1   0.0000
    62 C27      -1.5036   -0.2854   -6.6673   C.3       1 RES1   0.0000
    63 C28      -1.1563   -1.2046   -5.4949   C.3       1 RES1   0.0000
    64 H25      -2.9082   -0.6920   -3.2454   H         1 RES1   0.0000
    65 H26      -1.7827   -1.8909   -2.5616   H         1 RES1   0.0000
    66 H27      -3.5254    1.0220   -2.1532   H         1 RES1   0.0000
    67 H28      -3.8837    0.4180   -0.5156   H         1 RES1   0.0000
    68 H29      -1.7599    4.0203    0.8954   H         1 RES1   0.0000
    69 H30      -1.9341    4.6812   -0.7338   H         1 RES1   0.0000
    70 H31      -2.9290    6.1799    1.0273   H         1 RES1   0.0000
    71 H32      -4.0896    5.6766   -0.1856   H         1 RES1   0.0000
    72 H33      -3.8410    4.7332    2.6905   H         1 RES1   0.0000
    73 H34      -5.2339    5.4060    1.8575   H         1 RES1   0.0000
    74 H35      -4.3082    2.5780    1.9629   H         1 RES1   0.0000
    75 H36      -5.9103    3.2091    1.6350   H         1 RES1   0.0000
    76 H37      -5.0382    2.0821   -0.3754   H         1 RES1   0.0000
    77 H38      -5.1106    3.8125   -0.6970   H         1 RES1   0.0000
    78 H39       0.7038    1.2894   -4.8779   H         1 RES1   0.0000
    79 H40       1.6595   -0.1306   -4.4257   H         1 RES1   0.0000
    80 H41       1.8667    0.5104   -6.8628   H         1 RES1   0.0000
    81 H42       1.2588   -1.1303   -6.6697   H         1 RES1   0.0000
    82 H43      -0.3095    1.4049   -7.3024   H         1 RES1   0.0000
    83 H44      -0.1279   -0.0088   -8.3273   H         1 RES1   0.0000
    84 H45      -2.1413    0.5129   -6.2867   H         1 RES1   0.0000
    85 H46      -2.0782   -0.8453   -7.4037   H         1 RES1   0.0000
    86 H47      -2.0614   -1.6057   -5.0452   H         1 RES1   0.0000
    87 H48      -0.5460   -2.0433   -5.8368   H         1 RES1   0.0000
    88 O7        2.0847    1.3266   -0.8168   O.2       1 RES1   0.0000
    89 C29       3.1171    1.3316   -0.1111   C.2       1 RES1   0.0000
    90 C30       3.4780    0.0449    0.6585   C.3       1 RES1   0.0000
    91 O8        2.4174   -0.8653    0.4151   O.3       1 RES1   0.0000
    92 C31       2.7381   -2.1808    0.0027   C.3       1 RES1   0.0000
    93 C32       1.8355   -2.5039   -1.2029   C.2       1 RES1   0.0000
    94 O9        1.0228   -1.6340   -1.5850   O.2       1 RES1   0.0000
    95 N5        1.9448   -3.6648   -1.8281   N.am      1 RES1   0.0000
    96 C33       1.2823   -3.8475   -3.1178   C.3       1 RES1   0.0000
    97 C34       2.3469   -4.0818   -4.1916   C.3       1 RES1   0.0000
    98 C35       3.1735   -5.3131   -3.8382   C.3       1 RES1   0.0000
    99 C36       3.8222   -5.1161   -2.4724   C.3       1 RES1   0.0000
   100 C37       2.7497   -4.8071   -1.4252   C.3       1 RES1   0.0000
   101 N6        3.8782    2.4050   -0.0604   N.am      1 RES1   0.0000
   102 C38       3.5215    3.4913   -0.9806   C.3       1 RES1   0.0000
   103 C39       4.6514    4.5009   -1.1017   C.3       1 RES1   0.0000
   104 C40       5.9684    3.7809   -1.3904   C.3       1 RES1   0.0000
   105 C41       6.2720    2.6924   -0.3436   C.3       1 RES1   0.0000
   106 C42       5.1251    2.5576    0.6587   C.3       1 RES1   0.0000
   107 H49       4.4406   -0.3429    0.3059   H         1 RES1   0.0000
   108 H50       3.5432    0.2290    1.7398   H         1 RES1   0.0000
   109 H51       3.7893   -2.2727   -0.2937   H         1 RES1   0.0000
   110 H52       2.5366   -2.8704    0.8343   H         1 RES1   0.0000
   111 H53       0.6001   -4.7021   -3.0640   H         1 RES1   0.0000
   112 H54       0.7120   -2.9412   -3.3299   H         1 RES1   0.0000
   113 H55       1.8622   -4.2100   -5.1596   H         1 RES1   0.0000
   114 H56       2.9929   -3.2021   -4.2431   H         1 RES1   0.0000
   115 H57       2.5235   -6.1887   -3.8123   H         1 RES1   0.0000
   116 H58       3.9373   -5.4819   -4.5950   H         1 RES1   0.0000
   117 H59       4.3552   -6.0187   -2.1766   H         1 RES1   0.0000
   118 H60       4.5375   -4.2934   -2.5167   H         1 RES1   0.0000
   119 H61       2.0801   -5.6707   -1.3413   H         1 RES1   0.0000
   120 H62       3.1995   -4.6240   -0.4526   H         1 RES1   0.0000
   121 H63       3.3224    3.0241   -1.9510   H         1 RES1   0.0000
   122 H64       2.5874    3.9586   -0.6468   H         1 RES1   0.0000
   123 H65       4.4179    5.1760   -1.9264   H         1 RES1   0.0000
   124 H66       4.7264    5.0950   -0.1903   H         1 RES1   0.0000
   125 H67       5.9084    3.3323   -2.3828   H         1 RES1   0.0000
   126 H68       6.7704    4.5140   -1.4128   H         1 RES1   0.0000
   127 H69       6.4123    1.7328   -0.8419   H         1 RES1   0.0000
   128 H70       7.1835    2.9196    0.2075   H         1 RES1   0.0000
   129 H71       5.2859    1.7058    1.3155   H         1 RES1   0.0000
   130 H72       5.0586    3.4580    1.2733   H         1 RES1   0.0000
@<TRIPOS>BOND
     1     1     2    1
     2     1     5    1
     3     1     8    1
     4     1    45    1
     5     1    48    1
     6     1    51    1
     7     1    88    1
     8     1    91    1
     9     1    94    1
    10     2     3    2
    11     3     4    1
    12     3    15    1
    13     4     5    1
    14     4    21    1
    15     4    22    1
    16     5     6    1
    17     6     7    1
    18     6    23    1
    19     6    24    1
    20     7     8    2
    21     7     9    1
    22     9    10    1
    23     9    14    1
    24    10    11    1
    25    10    25    1
    26    10    26    1
    27    11    12    1
    28    11    27    1
    29    11    28    1
    30    12    13    1
    31    12    29    1
    32    12    30    1
    33    13    14    1
    34    13    31    1
    35    13    32    1
    36    14    33    1
    37    14    34    1
    38    15    16    1
    39    15    20    1
    40    16    17    1
    41    16    35    1
    42    16    36    1
    43    17    18    1
    44    17    37    1
    45    17    38    1
    46    18    19    1
    47    18    39    1
    48    18    40    1
    49    19    20    1
    50    19    41    1
    51    19    42    1
    52    20    43    1
    53    20    44    1
    54    45    46    2
    55    46    47    1
    56    46    58    1
    57    47    48    1
    58    47    64    1
    59    47    65    1
    60    48    49    1
    61    49    50    1
    62    49    66    1
    63    49    67    1
    64    50    51    2
    65    50    52    1
    66    52    53    1
    67    52    57    1
    68    53    54    1
    69    53    68    1
    70    53    69    1
    71    54    55    1
    72    54    70    1
    73    54    71    1
    74    55    56    1
    75    55    72    1
    76    55    73    1
    77    56    57    1
    78    56    74    1
    79    56    75    1
    80    57    76    1
    81    57    77    1
    82    58    59    1
    83    58    63    1
    84    59    60    1
    85    59    78    1
    86    59    79    1
    87    60    61    1
    88    60    80    1
    89    60    81    1
    90    61    62    1
    91    61    82    1
    92    61    83    1
    93    62    63    1
    94    62    84    1
    95    62    85    1
    96    63    86    1
    97    63    87    1
    98    88    89    2
    99    89    90    1
   100    89   101    1
   101    90    91    1
   102    90   107    1
   103    90   108    1
   104    91    92    1
   105    92    93    1
   106    92   109    1
   107    92   110    1
   108    93    94    2
   109    93    95    1
   110    95    96    1
   111    95   100    1
   112    96    97    1
   113    96   111    1
   114    96   112    1
   115    97    98    1
   116    97   113    1
   117    97   114    1
   118    98    99    1
   119    98   115    1
   120    98   116    1
   121    99   100    1
   122    99   117    1
   123    99   118    1
   124   100   119    1
   125   100   120    1
   126   101   102    1
   127   101   106    1
   128   102   103    1
   129   102   121    1
   130   102   122    1
   131   103   104    1
   132   103   123    1
   133   103   124    1
   134   104   105    1
   135   104   125    1
   136   104   126    1
   137   105   106    1
   138   105   127    1
   139   105   128    1
   140   106   129    1
   141   106   130    1
@<TRIPOS>SUBSTRUCTURE
     1 RES1      130 GROUP             0 ****  ****    0  
