@<TRIPOS>MOLECULE
am_c3_9H2O_c0_0_nunpairedes_0_charge_3 Charge: 3 Unpaired_Electrons: 6 XTB_Unpaired_Electrons: 0 XTB_Charge: 3
   240   243     1     0     0
SMALL
NoCharges
****
Generated from Architector

@<TRIPOS>ATOM
     1 Eu1       0.0555   -0.3432    0.0006   Eu        1 RES1   0.0000
     2 C1        2.5153    7.8653   -1.2313   C.3       1 RES1   0.0000
     3 C2        2.3938    6.9194   -0.0417   C.3       1 RES1   0.0000
     4 C3        3.4731    5.8341    0.0311   C.3       1 RES1   0.0000
     5 C4        3.7393    5.0155   -1.2347   C.3       1 RES1   0.0000
     6 P1        2.5073    3.6948   -1.6157   P.3       1 RES1   0.0000
     7 S1        2.0131    2.5988   -0.0564   S.3       1 RES1   0.0000
     8 C5        3.0885    2.8014   -3.1450   C.3       1 RES1   0.0000
     9 C6        4.5871    2.8453   -3.4300   C.3       1 RES1   0.0000
    10 C7        5.3794    2.0527   -2.3999   C.3       1 RES1   0.0000
    11 C8        6.7983    1.7691   -2.8709   C.3       1 RES1   0.0000
    12 C9        1.1057    4.6695   -2.3428   C.3       1 RES1   0.0000
    13 P2       -0.5753    3.8966   -2.3269   P.3       1 RES1   0.0000
    14 S2       -0.6582    1.9276   -2.1184   S.3       1 RES1   0.0000
    15 C10      -1.3064    4.5061   -3.9024   C.3       1 RES1   0.0000
    16 C11      -0.6962    3.9809   -5.2005   C.3       1 RES1   0.0000
    17 C12      -1.1940    2.5864   -5.5758   C.3       1 RES1   0.0000
    18 C13      -0.7291    2.2028   -6.9735   C.3       1 RES1   0.0000
    19 C14      -1.4635    4.9074   -1.0439   C.3       1 RES1   0.0000
    20 C15      -1.8902    4.0753    0.1543   C.3       1 RES1   0.0000
    21 C16      -2.8931    4.8027    1.0461   C.3       1 RES1   0.0000
    22 C17      -3.4059    3.8961    2.1595   C.3       1 RES1   0.0000
    23 H1        1.7578    8.6418   -1.1658   H         1 RES1   0.0000
    24 H2        2.3846    7.3560   -2.1852   H         1 RES1   0.0000
    25 H3        3.4887    8.3475   -1.2331   H         1 RES1   0.0000
    26 H4        1.3994    6.4651   -0.0106   H         1 RES1   0.0000
    27 H5        2.4834    7.5134    0.8693   H         1 RES1   0.0000
    28 H6        3.2201    5.1447    0.8420   H         1 RES1   0.0000
    29 H7        4.4144    6.3226    0.2923   H         1 RES1   0.0000
    30 H8        4.6909    4.4965   -1.0958   H         1 RES1   0.0000
    31 H9        3.8324    5.6500   -2.1177   H         1 RES1   0.0000
    32 H10       2.5463    3.2375   -3.9868   H         1 RES1   0.0000
    33 H11       2.7496    1.7631   -3.0480   H         1 RES1   0.0000
    34 H12       4.9468    3.8733   -3.4766   H         1 RES1   0.0000
    35 H13       4.7550    2.4125   -4.4201   H         1 RES1   0.0000
    36 H14       4.8364    1.1216   -2.2228   H         1 RES1   0.0000
    37 H15       5.4078    2.5856   -1.4487   H         1 RES1   0.0000
    38 H16       6.7893    1.1857   -3.7880   H         1 RES1   0.0000
    39 H17       7.3575    1.2202   -2.1181   H         1 RES1   0.0000
    40 H18       7.3271    2.6978   -3.0688   H         1 RES1   0.0000
    41 H19       1.3768    4.9016   -3.3751   H         1 RES1   0.0000
    42 H20       1.0175    5.6069   -1.7953   H         1 RES1   0.0000
    43 H21      -1.2139    5.5958   -3.8467   H         1 RES1   0.0000
    44 H22      -2.3706    4.2613   -3.8818   H         1 RES1   0.0000
    45 H23       0.3957    3.9651   -5.1429   H         1 RES1   0.0000
    46 H24      -0.9648    4.6727   -6.0037   H         1 RES1   0.0000
    47 H25      -2.2854    2.5755   -5.5451   H         1 RES1   0.0000
    48 H26      -0.8292    1.8584   -4.8488   H         1 RES1   0.0000
    49 H27      -1.1559    2.8702   -7.7176   H         1 RES1   0.0000
    50 H28      -1.0347    1.1889   -7.2140   H         1 RES1   0.0000
    51 H29       0.3540    2.2671   -7.0444   H         1 RES1   0.0000
    52 H30      -2.3261    5.3613   -1.5338   H         1 RES1   0.0000
    53 H31      -0.8129    5.7194   -0.7162   H         1 RES1   0.0000
    54 H32      -0.9888    3.8387    0.7223   H         1 RES1   0.0000
    55 H33      -2.3415    3.1432   -0.2050   H         1 RES1   0.0000
    56 H34      -3.7387    5.1352    0.4424   H         1 RES1   0.0000
    57 H35      -2.4255    5.6886    1.4812   H         1 RES1   0.0000
    58 H36      -3.7984    2.9636    1.7520   H         1 RES1   0.0000
    59 H37      -4.2086    4.3866    2.7038   H         1 RES1   0.0000
    60 H38      -2.6147    3.6636    2.8691   H         1 RES1   0.0000
    61 C18       3.6344   -1.1926    7.2592   C.3       1 RES1   0.0000
    62 C19       4.0815   -0.7534    5.8710   C.3       1 RES1   0.0000
    63 C20       3.8324    0.7229    5.5776   C.3       1 RES1   0.0000
    64 C21       2.3781    1.1824    5.6558   C.3       1 RES1   0.0000
    65 P3        1.1790    0.5246    4.4188   P.3       1 RES1   0.0000
    66 S3        1.8734    0.4230    2.5614   S.3       1 RES1   0.0000
    67 C22      -0.3636    1.5165    4.7266   C.3       1 RES1   0.0000
    68 C23      -0.1933    3.0313    4.8519   C.3       1 RES1   0.0000
    69 C24       0.3765    3.7051    3.6089   C.3       1 RES1   0.0000
    70 C25       0.5921    5.1964    3.8299   C.3       1 RES1   0.0000
    71 C26       0.6393   -1.1219    5.0903   C.3       1 RES1   0.0000
    72 P4       -0.3034   -2.2684    3.9745   P.3       1 RES1   0.0000
    73 S4       -1.2803   -1.4414    2.4539   S.3       1 RES1   0.0000
    74 C27      -1.3276   -3.1582    5.2191   C.3       1 RES1   0.0000
    75 C28      -2.4418   -2.3871    5.9261   C.3       1 RES1   0.0000
    76 C29      -3.7053   -2.2479    5.0834   C.3       1 RES1   0.0000
    77 C30      -4.8191   -1.5577    5.8585   C.3       1 RES1   0.0000
    78 C31       0.9024   -3.5514    3.4474   C.3       1 RES1   0.0000
    79 C32       2.2207   -3.0067    2.9172   C.3       1 RES1   0.0000
    80 C33       3.1774   -4.1515    2.5958   C.3       1 RES1   0.0000
    81 C34       4.3908   -3.6552    1.8238   C.3       1 RES1   0.0000
    82 H39       3.8603   -2.2437    7.4172   H         1 RES1   0.0000
    83 H40       2.5657   -1.0545    7.4078   H         1 RES1   0.0000
    84 H41       4.1576   -0.6207    8.0195   H         1 RES1   0.0000
    85 H42       3.5969   -1.3587    5.1002   H         1 RES1   0.0000
    86 H43       5.1538   -0.9316    5.7841   H         1 RES1   0.0000
    87 H44       4.2183    0.9561    4.5839   H         1 RES1   0.0000
    88 H45       4.3970    1.3165    6.2996   H         1 RES1   0.0000
    89 H46       2.3673    2.2643    5.4998   H         1 RES1   0.0000
    90 H47       1.9527    0.9842    6.6420   H         1 RES1   0.0000
    91 H48      -0.7818    1.1415    5.6651   H         1 RES1   0.0000
    92 H49      -1.0741    1.2603    3.9324   H         1 RES1   0.0000
    93 H50       0.4378    3.2693    5.7098   H         1 RES1   0.0000
    94 H51      -1.1758    3.4571    5.0704   H         1 RES1   0.0000
    95 H52      -0.3360    3.5880    2.7904   H         1 RES1   0.0000
    96 H53       1.3208    3.2351    3.3198   H         1 RES1   0.0000
    97 H54      -0.3372    5.6670    4.1394   H         1 RES1   0.0000
    98 H55       0.9297    5.6722    2.9139   H         1 RES1   0.0000
    99 H56       1.3389    5.3749    4.5988   H         1 RES1   0.0000
   100 H57       0.0066   -0.9206    5.9582   H         1 RES1   0.0000
   101 H58       1.5111   -1.6819    5.4338   H         1 RES1   0.0000
   102 H59      -0.5909   -3.5029    5.9533   H         1 RES1   0.0000
   103 H60      -1.7386   -4.0420    4.7267   H         1 RES1   0.0000
   104 H61      -2.1048   -1.3933    6.2346   H         1 RES1   0.0000
   105 H62      -2.6921   -2.9343    6.8373   H         1 RES1   0.0000
   106 H63      -4.0446   -3.2429    4.7920   H         1 RES1   0.0000
   107 H64      -3.4808   -1.6832    4.1776   H         1 RES1   0.0000
   108 H65      -5.0951   -2.1412    6.7325   H         1 RES1   0.0000
   109 H66      -5.7022   -1.4461    5.2365   H         1 RES1   0.0000
   110 H67      -4.5090   -0.5709    6.1915   H         1 RES1   0.0000
   111 H68       0.4135   -4.1307    2.6578   H         1 RES1   0.0000
   112 H69       1.0791   -4.2115    4.3000   H         1 RES1   0.0000
   113 H70       2.6907   -2.3455    3.6462   H         1 RES1   0.0000
   114 H71       2.0307   -2.4116    2.0153   H         1 RES1   0.0000
   115 H72       2.6441   -4.8926    1.9991   H         1 RES1   0.0000
   116 H73       3.5005   -4.6341    3.5192   H         1 RES1   0.0000
   117 H74       4.0636   -3.2708    0.8577   H         1 RES1   0.0000
   118 H75       5.1053   -4.4578    1.6642   H         1 RES1   0.0000
   119 H76       4.8951   -2.8569    2.3623   H         1 RES1   0.0000
   120 C35       5.5534   -6.4155   -2.5046   C.3       1 RES1   0.0000
   121 C36       5.1566   -6.0860   -1.0716   C.3       1 RES1   0.0000
   122 C37       3.6913   -6.3709   -0.7188   C.3       1 RES1   0.0000
   123 C38       2.6046   -5.9974   -1.7345   C.3       1 RES1   0.0000
   124 P5        1.9965   -4.2589   -1.8704   P.3       1 RES1   0.0000
   125 S5        1.2044   -3.4539   -0.2434   S.3       1 RES1   0.0000
   126 C39       0.9057   -4.2485   -3.3665   C.3       1 RES1   0.0000
   127 C40      -0.0004   -5.4737   -3.4811   C.3       1 RES1   0.0000
   128 C41      -0.8871   -5.6481   -2.2561   C.3       1 RES1   0.0000
   129 C42      -1.8656   -6.7959   -2.4462   C.3       1 RES1   0.0000
   130 C43       3.5219   -3.3929   -2.4538   C.3       1 RES1   0.0000
   131 P6        3.6488   -1.5469   -2.3861   P.3       1 RES1   0.0000
   132 S6        1.9588   -0.5172   -2.1573   S.3       1 RES1   0.0000
   133 C44       4.4596   -1.1822   -3.9953   C.3       1 RES1   0.0000
   134 C45       3.6732   -1.5142   -5.2622   C.3       1 RES1   0.0000
   135 C46       2.6211   -0.4637   -5.6139   C.3       1 RES1   0.0000
   136 C47       2.0959   -0.6858   -7.0255   C.3       1 RES1   0.0000
   137 C48       4.9705   -1.2281   -1.1316   C.3       1 RES1   0.0000
   138 C49       4.5745   -0.3661    0.0603   C.3       1 RES1   0.0000
   139 C50       5.8398    0.0904    0.7865   C.3       1 RES1   0.0000
   140 C51       5.4880    0.7492    2.1096   C.3       1 RES1   0.0000
   141 H77       6.6167   -6.2433   -2.6389   H         1 RES1   0.0000
   142 H78       5.0282   -5.7977   -3.2280   H         1 RES1   0.0000
   143 H79       5.3524   -7.4582   -2.7275   H         1 RES1   0.0000
   144 H80       5.4234   -5.0530   -0.8373   H         1 RES1   0.0000
   145 H81       5.7572   -6.7057   -0.4055   H         1 RES1   0.0000
   146 H82       3.4619   -5.9022    0.2386   H         1 RES1   0.0000
   147 H83       3.5992   -7.4492   -0.5822   H         1 RES1   0.0000
   148 H84       1.7179   -6.5847   -1.4839   H         1 RES1   0.0000
   149 H85       2.9091   -6.2805   -2.7447   H         1 RES1   0.0000
   150 H86       1.5445   -4.1733   -4.2504   H         1 RES1   0.0000
   151 H87       0.2988   -3.3372   -3.3029   H         1 RES1   0.0000
   152 H88       0.5840   -6.3794   -3.6457   H         1 RES1   0.0000
   153 H89      -0.6300   -5.3533   -4.3663   H         1 RES1   0.0000
   154 H90      -0.2740   -5.8368   -1.3721   H         1 RES1   0.0000
   155 H91      -1.4078   -4.7036   -2.0812   H         1 RES1   0.0000
   156 H92      -2.5465   -6.5925   -3.2678   H         1 RES1   0.0000
   157 H93      -1.3346   -7.7151   -2.6766   H         1 RES1   0.0000
   158 H94      -2.4504   -6.9682   -1.5485   H         1 RES1   0.0000
   159 H95       3.6798   -3.6979   -3.4918   H         1 RES1   0.0000
   160 H96       4.3510   -3.7788   -1.8551   H         1 RES1   0.0000
   161 H97       5.3933   -1.7536   -3.9606   H         1 RES1   0.0000
   162 H98       4.7173   -0.1217   -4.0065   H         1 RES1   0.0000
   163 H99       3.1866   -2.4902   -5.1845   H         1 RES1   0.0000
   164 H100      4.3866   -1.5780   -6.0880   H         1 RES1   0.0000
   165 H101      3.0685    0.5299   -5.5510   H         1 RES1   0.0000
   166 H102      1.8001   -0.5082   -4.8967   H         1 RES1   0.0000
   167 H103      2.8869   -0.5375   -7.7567   H         1 RES1   0.0000
   168 H104      1.2936    0.0114   -7.2497   H         1 RES1   0.0000
   169 H105      1.7188   -1.6994   -7.1373   H         1 RES1   0.0000
   170 H106      5.7874   -0.7513   -1.6805   H         1 RES1   0.0000
   171 H107      5.3500   -2.1875   -0.7749   H         1 RES1   0.0000
   172 H108      3.9371   -0.9295    0.7493   H         1 RES1   0.0000
   173 H109      4.0044    0.5130   -0.2533   H         1 RES1   0.0000
   174 H110      6.3873    0.7964    0.1587   H         1 RES1   0.0000
   175 H111      6.4905   -0.7684    0.9697   H         1 RES1   0.0000
   176 H112      4.7705    1.5529    1.9504   H         1 RES1   0.0000
   177 H113      6.3723    1.1557    2.5943   H         1 RES1   0.0000
   178 H114      5.0350    0.0116    2.7685   H         1 RES1   0.0000
   179 C52      -8.1440   -1.6985   -0.8404   C.3       1 RES1   0.0000
   180 C53      -7.1301   -1.3142    0.2305   C.3       1 RES1   0.0000
   181 C54      -6.7728    0.1716    0.2352   C.3       1 RES1   0.0000
   182 C55      -6.2778    0.7617   -1.0850   C.3       1 RES1   0.0000
   183 P7       -4.5528    0.3234   -1.5633   P.3       1 RES1   0.0000
   184 S7       -3.3020    0.3695   -0.0456   S.3       1 RES1   0.0000
   185 C56      -4.1066    1.3313   -3.0616   C.3       1 RES1   0.0000
   186 C57      -4.8971    2.6202   -3.2722   C.3       1 RES1   0.0000
   187 C58      -4.5563    3.6707   -2.2251   C.3       1 RES1   0.0000
   188 C59      -5.0098    5.0596   -2.6494   C.3       1 RES1   0.0000
   189 C60      -4.7332   -1.3511   -2.3434   C.3       1 RES1   0.0000
   190 P8       -3.2849   -2.5081   -2.3358   P.3       1 RES1   0.0000
   191 S8       -1.4718   -1.7169   -2.1387   S.3       1 RES1   0.0000
   192 C61      -3.4757   -3.3931   -3.9372   C.3       1 RES1   0.0000
   193 C62      -3.3051   -2.5855   -5.2220   C.3       1 RES1   0.0000
   194 C63      -1.8466   -2.3224   -5.5895   C.3       1 RES1   0.0000
   195 C64      -1.7349   -1.7924   -7.0114   C.3       1 RES1   0.0000
   196 C65      -3.7783   -3.8033   -1.1139   C.3       1 RES1   0.0000
   197 C66      -3.0702   -3.7805    0.2318   C.3       1 RES1   0.0000
   198 C67      -3.4517   -5.0411    1.0068   C.3       1 RES1   0.0000
   199 C68      -2.8051   -5.0617    2.3807   C.3       1 RES1   0.0000
   200 H115     -8.4383   -2.7384   -0.7290   H         1 RES1   0.0000
   201 H116     -7.7542   -1.5695   -1.8484   H         1 RES1   0.0000
   202 H117     -9.0372   -1.0879   -0.7448   H         1 RES1   0.0000
   203 H118     -6.2203   -1.9157    0.1483   H         1 RES1   0.0000
   204 H119     -7.5622   -1.5420    1.2055   H         1 RES1   0.0000
   205 H120     -6.0101    0.3442    1.0005   H         1 RES1   0.0000
   206 H121     -7.6653    0.7328    0.5190   H         1 RES1   0.0000
   207 H122     -6.2785    1.8485   -0.9789   H         1 RES1   0.0000
   208 H123     -6.9362    0.5081   -1.9169   H         1 RES1   0.0000
   209 H124     -4.2344    0.6834   -3.9313   H         1 RES1   0.0000
   210 H125     -3.0354    1.5520   -2.9779   H         1 RES1   0.0000
   211 H126     -5.9696    2.4267   -3.2857   H         1 RES1   0.0000
   212 H127     -4.6399    3.0123   -4.2594   H         1 RES1   0.0000
   213 H128     -3.4738    3.6449   -2.0858   H         1 RES1   0.0000
   214 H129     -5.0035    3.4203   -1.2625   H         1 RES1   0.0000
   215 H130     -4.5491    5.3439   -3.5916   H         1 RES1   0.0000
   216 H131     -4.7481    5.8027   -1.9011   H         1 RES1   0.0000
   217 H132     -6.0877    5.0865   -2.7827   H         1 RES1   0.0000
   218 H133     -5.0228   -1.1893   -3.3845   H         1 RES1   0.0000
   219 H134     -5.5440   -1.8804   -1.8422   H         1 RES1   0.0000
   220 H135     -4.4777   -3.8307   -3.8942   H         1 RES1   0.0000
   221 H136     -2.7545   -4.2131   -3.9296   H         1 RES1   0.0000
   222 H137     -3.8350   -1.6302   -5.1628   H         1 RES1   0.0000
   223 H138     -3.7652   -3.1535   -6.0355   H         1 RES1   0.0000
   224 H139     -1.2842   -3.2540   -5.5101   H         1 RES1   0.0000
   225 H140     -1.4112   -1.6070   -4.8904   H         1 RES1   0.0000
   226 H141     -2.0803   -2.5349   -7.7262   H         1 RES1   0.0000
   227 H142     -0.7054   -1.5474   -7.2506   H         1 RES1   0.0000
   228 H143     -2.3423   -0.8998   -7.1334   H         1 RES1   0.0000
   229 H144     -3.5982   -4.7605   -1.6079   H         1 RES1   0.0000
   230 H145     -4.8578   -3.7218   -0.9650   H         1 RES1   0.0000
   231 H146     -3.3567   -2.8929    0.8048   H         1 RES1   0.0000
   232 H147     -1.9830   -3.7462    0.0935   H         1 RES1   0.0000
   233 H148     -3.1393   -5.9248    0.4471   H         1 RES1   0.0000
   234 H149     -4.5365   -5.0850    1.1198   H         1 RES1   0.0000
   235 H150     -1.7199   -5.0654    2.2860   H         1 RES1   0.0000
   236 H151     -3.1048   -5.9432    2.9431   H         1 RES1   0.0000
   237 H152     -3.1044   -4.1721    2.9302   H         1 RES1   0.0000
   238 O1       -0.8066    1.4502    1.3026   O.3       1 RES1   0.0000
   239 H153     -1.6975    1.8261    1.3658   H         1 RES1   0.0000
   240 H154     -0.1957    2.0307    1.7907   H         1 RES1   0.0000
@<TRIPOS>BOND
     1     1     7    1
     2     1    14    1
     3     1    66    1
     4     1    73    1
     5     1   125    1
     6     1   132    1
     7     1   184    1
     8     1   191    1
     9     1   238    1
    10     2     3    1
    11     2    23    1
    12     2    24    1
    13     2    25    1
    14     3     4    1
    15     3    26    1
    16     3    27    1
    17     4     5    1
    18     4    28    1
    19     4    29    1
    20     5     6    1
    21     5    30    1
    22     5    31    1
    23     6     7    2
    24     6     8    1
    25     6    12    1
    26     8     9    1
    27     8    32    1
    28     8    33    1
    29     9    10    1
    30     9    34    1
    31     9    35    1
    32    10    11    1
    33    10    36    1
    34    10    37    1
    35    11    38    1
    36    11    39    1
    37    11    40    1
    38    12    13    1
    39    12    41    1
    40    12    42    1
    41    13    14    2
    42    13    15    1
    43    13    19    1
    44    15    16    1
    45    15    43    1
    46    15    44    1
    47    16    17    1
    48    16    45    1
    49    16    46    1
    50    17    18    1
    51    17    47    1
    52    17    48    1
    53    18    49    1
    54    18    50    1
    55    18    51    1
    56    19    20    1
    57    19    52    1
    58    19    53    1
    59    20    21    1
    60    20    54    1
    61    20    55    1
    62    21    22    1
    63    21    56    1
    64    21    57    1
    65    22    58    1
    66    22    59    1
    67    22    60    1
    68    61    62    1
    69    61    82    1
    70    61    83    1
    71    61    84    1
    72    62    63    1
    73    62    85    1
    74    62    86    1
    75    63    64    1
    76    63    87    1
    77    63    88    1
    78    64    65    1
    79    64    89    1
    80    64    90    1
    81    65    66    2
    82    65    67    1
    83    65    71    1
    84    67    68    1
    85    67    91    1
    86    67    92    1
    87    68    69    1
    88    68    93    1
    89    68    94    1
    90    69    70    1
    91    69    95    1
    92    69    96    1
    93    70    97    1
    94    70    98    1
    95    70    99    1
    96    71    72    1
    97    71   100    1
    98    71   101    1
    99    72    73    2
   100    72    74    1
   101    72    78    1
   102    74    75    1
   103    74   102    1
   104    74   103    1
   105    75    76    1
   106    75   104    1
   107    75   105    1
   108    76    77    1
   109    76   106    1
   110    76   107    1
   111    77   108    1
   112    77   109    1
   113    77   110    1
   114    78    79    1
   115    78   111    1
   116    78   112    1
   117    79    80    1
   118    79   113    1
   119    79   114    1
   120    80    81    1
   121    80   115    1
   122    80   116    1
   123    81   117    1
   124    81   118    1
   125    81   119    1
   126   120   121    1
   127   120   141    1
   128   120   142    1
   129   120   143    1
   130   121   122    1
   131   121   144    1
   132   121   145    1
   133   122   123    1
   134   122   146    1
   135   122   147    1
   136   123   124    1
   137   123   148    1
   138   123   149    1
   139   124   125    2
   140   124   126    1
   141   124   130    1
   142   126   127    1
   143   126   150    1
   144   126   151    1
   145   127   128    1
   146   127   152    1
   147   127   153    1
   148   128   129    1
   149   128   154    1
   150   128   155    1
   151   129   156    1
   152   129   157    1
   153   129   158    1
   154   130   131    1
   155   130   159    1
   156   130   160    1
   157   131   132    2
   158   131   133    1
   159   131   137    1
   160   133   134    1
   161   133   161    1
   162   133   162    1
   163   134   135    1
   164   134   163    1
   165   134   164    1
   166   135   136    1
   167   135   165    1
   168   135   166    1
   169   136   167    1
   170   136   168    1
   171   136   169    1
   172   137   138    1
   173   137   170    1
   174   137   171    1
   175   138   139    1
   176   138   172    1
   177   138   173    1
   178   139   140    1
   179   139   174    1
   180   139   175    1
   181   140   176    1
   182   140   177    1
   183   140   178    1
   184   179   180    1
   185   179   200    1
   186   179   201    1
   187   179   202    1
   188   180   181    1
   189   180   203    1
   190   180   204    1
   191   181   182    1
   192   181   205    1
   193   181   206    1
   194   182   183    1
   195   182   207    1
   196   182   208    1
   197   183   184    2
   198   183   185    1
   199   183   189    1
   200   185   186    1
   201   185   209    1
   202   185   210    1
   203   186   187    1
   204   186   211    1
   205   186   212    1
   206   187   188    1
   207   187   213    1
   208   187   214    1
   209   188   215    1
   210   188   216    1
   211   188   217    1
   212   189   190    1
   213   189   218    1
   214   189   219    1
   215   190   191    2
   216   190   192    1
   217   190   196    1
   218   192   193    1
   219   192   220    1
   220   192   221    1
   221   193   194    1
   222   193   222    1
   223   193   223    1
   224   194   195    1
   225   194   224    1
   226   194   225    1
   227   195   226    1
   228   195   227    1
   229   195   228    1
   230   196   197    1
   231   196   229    1
   232   196   230    1
   233   197   198    1
   234   197   231    1
   235   197   232    1
   236   198   199    1
   237   198   233    1
   238   198   234    1
   239   199   235    1
   240   199   236    1
   241   199   237    1
   242   238   239    1
   243   238   240    1
@<TRIPOS>SUBSTRUCTURE
     1 RES1      240 GROUP             0 ****  ****    0  
