@<TRIPOS>MOLECULE
am_c3_9H2O_c0_0_nunpairedes_0_charge_3 Charge: 3 Unpaired_Electrons: 6 XTB_Unpaired_Electrons: 0 XTB_Charge: 3
    74    79     1     0     0
SMALL
NoCharges
****
Generated from Architector

@<TRIPOS>ATOM
     1 Eu1      -0.0737   -0.0004   -0.0031   Eu        1 RES1   0.0000
     2 C1        3.6788    5.3780    1.0458   C.3       1 RES1   0.0000
     3 C2        3.8374    4.0235    1.7252   C.3       1 RES1   0.0000
     4 C3        3.5028    2.8569    0.7796   C.3       1 RES1   0.0000
     5 C4        2.0456    2.9015    0.3374   C.3       1 RES1   0.0000
     6 O1        1.6096    1.6408   -0.3091   O.3       1 RES1   0.0000
     7 P1        1.6739    1.6594   -1.9890   P.3       1 RES1   0.0000
     8 S1        1.5187   -0.5104   -2.1935   S.3       1 RES1   0.0000
     9 C5        3.0708   -1.0053   -1.3294   C.3       1 RES1   0.0000
    10 O2        2.8448   -0.9336    0.0506   O.3       1 RES1   0.0000
    11 C6        2.7665   -2.1396    0.7718   C.3       1 RES1   0.0000
    12 P2        0.5293   -1.2921    2.8078   P.3       1 RES1   0.0000
    13 S2        0.9971   -2.5149    1.0990   S.3       1 RES1   0.0000
    14 O3       -0.9305   -0.8376    2.0792   O.3       1 RES1   0.0000
    15 C7       -1.8249   -0.1123    2.9761   C.3       1 RES1   0.0000
    16 C8       -3.1733    0.0735    2.3000   C.3       1 RES1   0.0000
    17 C9       -4.0383    1.0493    3.1075   C.3       1 RES1   0.0000
    18 C10      -4.2398    0.5736    4.5415   C.3       1 RES1   0.0000
    19 O4        1.3162    0.0825    2.3193   O.3       1 RES1   0.0000
    20 C11       1.8354    0.8763    3.4437   C.3       1 RES1   0.0000
    21 C12       3.0326    0.2513    4.1322   C.3       1 RES1   0.0000
    22 C13       3.2999    1.0001    5.4495   C.3       1 RES1   0.0000
    23 C14       4.5734    0.5443    6.1516   C.3       1 RES1   0.0000
    24 O5        0.0630    1.8042   -2.1924   O.3       1 RES1   0.0000
    25 C15      -0.5626    2.7890   -3.0925   C.3       1 RES1   0.0000
    26 C16      -1.8612    3.2655   -2.4658   C.3       1 RES1   0.0000
    27 C17      -1.7000    3.9710   -1.1123   C.3       1 RES1   0.0000
    28 C18      -1.7582    3.0598    0.1206   C.3       1 RES1   0.0000
    29 H1        4.0820    6.1627    1.6776   H         1 RES1   0.0000
    30 H2        2.6326    5.6086    0.8572   H         1 RES1   0.0000
    31 H3        4.2251    5.3998    0.1069   H         1 RES1   0.0000
    32 H4        3.2178    3.9889    2.6250   H         1 RES1   0.0000
    33 H5        4.8709    3.9033    2.0455   H         1 RES1   0.0000
    34 H6        3.6953    1.9037    1.2830   H         1 RES1   0.0000
    35 H7        4.1594    2.9179   -0.0921   H         1 RES1   0.0000
    36 H8        1.8723    3.7235   -0.3620   H         1 RES1   0.0000
    37 H9        1.3951    3.0312    1.2113   H         1 RES1   0.0000
    38 H10       3.8510   -0.2998   -1.6117   H         1 RES1   0.0000
    39 H11       3.3282   -2.0126   -1.6699   H         1 RES1   0.0000
    40 H12       3.3188   -2.0322    1.7044   H         1 RES1   0.0000
    41 H13       3.1631   -3.0016    0.2273   H         1 RES1   0.0000
    42 H14      -1.3926    0.8759    3.1978   H         1 RES1   0.0000
    43 H15      -1.9391   -0.6815    3.8981   H         1 RES1   0.0000
    44 H16      -3.6927   -0.8823    2.2278   H         1 RES1   0.0000
    45 H17      -3.0019    0.4644    1.2797   H         1 RES1   0.0000
    46 H18      -5.0124    1.1415    2.6269   H         1 RES1   0.0000
    47 H19      -3.5743    2.0380    3.1112   H         1 RES1   0.0000
    48 H20      -4.6384   -0.4355    4.5575   H         1 RES1   0.0000
    49 H21      -4.9489    1.2190    5.0470   H         1 RES1   0.0000
    50 H22      -3.3145    0.5948    5.1100   H         1 RES1   0.0000
    51 H23       1.0231    0.9949    4.1662   H         1 RES1   0.0000
    52 H24       2.0874    1.8445    3.0187   H         1 RES1   0.0000
    53 H25       3.9196    0.2982    3.4970   H         1 RES1   0.0000
    54 H26       2.8132   -0.8020    4.3489   H         1 RES1   0.0000
    55 H27       2.4511    0.8484    6.1206   H         1 RES1   0.0000
    56 H28       3.3819    2.0704    5.2484   H         1 RES1   0.0000
    57 H29       4.5473   -0.5184    6.3734   H         1 RES1   0.0000
    58 H30       4.6747    1.0764    7.0933   H         1 RES1   0.0000
    59 H31       5.4563    0.7588    5.5550   H         1 RES1   0.0000
    60 H32      -0.7571    2.2879   -4.0444   H         1 RES1   0.0000
    61 H33       0.1228    3.6202   -3.2703   H         1 RES1   0.0000
    62 H34      -2.5460    2.4224   -2.3636   H         1 RES1   0.0000
    63 H35      -2.3095    3.9604   -3.1778   H         1 RES1   0.0000
    64 H36      -2.5193    4.6838   -1.0125   H         1 RES1   0.0000
    65 H37      -0.7698    4.5428   -1.1161   H         1 RES1   0.0000
    66 H38      -2.7640    2.6541    0.2153   H         1 RES1   0.0000
    67 H39      -1.5534    3.6598    1.0065   H         1 RES1   0.0000
    68 H40      -1.0123    2.2168    0.0832   H         1 RES1   0.0000
    69 O6       -2.2587    0.1188   -1.3606   O.3       1 RES1   0.0000
    70 H41      -3.1872    0.0143   -1.0996   H         1 RES1   0.0000
    71 H42      -2.2767    0.0486   -2.3323   H         1 RES1   0.0000
    72 O7       -1.2821   -2.2523   -0.6755   O.3       1 RES1   0.0000
    73 H43      -1.1669   -2.8757   -1.4127   H         1 RES1   0.0000
    74 H44      -1.7852   -2.7576   -0.0164   H         1 RES1   0.0000
@<TRIPOS>BOND
     1     1     6    1
     2     1     8    1
     3     1    10    1
     4     1    13    1
     5     1    14    1
     6     1    19    1
     7     1    24    1
     8     1    69    1
     9     1    72    1
    10     2     3    1
    11     2    29    1
    12     2    30    1
    13     2    31    1
    14     3     4    1
    15     3    32    1
    16     3    33    1
    17     4     5    1
    18     4    34    1
    19     4    35    1
    20     5     6    1
    21     5    36    1
    22     5    37    1
    23     6     7    1
    24     7     8    2
    25     7     9    1
    26     7    24    1
    27     9    10    1
    28     9    38    1
    29     9    39    1
    30    10    11    1
    31    11    12    1
    32    11    40    1
    33    11    41    1
    34    12    13    2
    35    12    14    1
    36    12    19    1
    37    14    15    1
    38    15    16    1
    39    15    42    1
    40    15    43    1
    41    16    17    1
    42    16    44    1
    43    16    45    1
    44    17    18    1
    45    17    46    1
    46    17    47    1
    47    18    48    1
    48    18    49    1
    49    18    50    1
    50    19    20    1
    51    20    21    1
    52    20    51    1
    53    20    52    1
    54    21    22    1
    55    21    53    1
    56    21    54    1
    57    22    23    1
    58    22    55    1
    59    22    56    1
    60    23    57    1
    61    23    58    1
    62    23    59    1
    63    24    25    1
    64    25    26    1
    65    25    60    1
    66    25    61    1
    67    26    27    1
    68    26    62    1
    69    26    63    1
    70    27    28    1
    71    27    64    1
    72    27    65    1
    73    28    66    1
    74    28    67    1
    75    28    68    1
    76    69    70    1
    77    69    71    1
    78    72    73    1
    79    72    74    1
@<TRIPOS>SUBSTRUCTURE
     1 RES1       74 GROUP             0 ****  ****    0  
