@<TRIPOS>MOLECULE
tri_tri_mer_capped_0_nunpairedes_0_charge_3 Charge: 3 Unpaired_Electrons: 6 XTB_Unpaired_Electrons: 0 XTB_Charge: 3
   342   347     1     0     0
SMALL
NoCharges
****
Generated from Architector

@<TRIPOS>ATOM
     1 Eu1       0.0179    0.0476    0.0012   Eu        1 RES1   0.0000
     2 C1       -9.8416   -0.7997   -0.9894   C.3       1 RES1   0.0000
     3 C2      -10.3185   -2.1569   -0.4786   C.3       1 RES1   0.0000
     4 C3       -9.8765   -3.3378   -1.3500   C.3       1 RES1   0.0000
     5 C4       -8.5522   -4.0142   -0.9914   C.3       1 RES1   0.0000
     6 C5       -7.3282   -3.1003   -0.9580   C.3       1 RES1   0.0000
     7 C6       -7.1414   -2.4934    0.4271   C.3       1 RES1   0.0000
     8 C7       -5.8184   -1.7571    0.5673   C.3       1 RES1   0.0000
     9 C8       -5.8182   -0.4161   -0.1704   C.3       1 RES1   0.0000
    10 N1       -4.6751    0.4298    0.1680   N.am      1 RES1   0.0000
    11 C9       -4.9121    1.7453    0.7533   C.3       1 RES1   0.0000
    12 C10      -5.8186    2.6192   -0.1047   C.3       1 RES1   0.0000
    13 C11      -5.4192    2.6330   -1.5789   C.3       1 RES1   0.0000
    14 C12      -6.6221    2.9884   -2.4477   C.3       1 RES1   0.0000
    15 C13      -6.3826    2.8161   -3.9455   C.3       1 RES1   0.0000
    16 C14      -6.0037    1.3993   -4.3912   C.3       1 RES1   0.0000
    17 C15      -6.9740    0.2967   -3.9675   C.3       1 RES1   0.0000
    18 C16      -8.3479    0.4388   -4.6053   C.3       1 RES1   0.0000
    19 C17      -3.4112    0.0459    0.0367   C.2       1 RES1   0.0000
    20 O1       -2.4506    0.6571    0.5395   O.2       1 RES1   0.0000
    21 C18      -3.0958   -1.1987   -0.7836   C.3       1 RES1   0.0000
    22 N2       -1.8078   -1.0147   -1.4835   N.4       1 RES1   0.0000
    23 C19      -1.9865   -0.1611   -2.6879   C.3       1 RES1   0.0000
    24 C20      -0.7907    0.7697   -2.9562   C.2       1 RES1   0.0000
    25 O2        0.1512    0.7916   -2.1413   O.2       1 RES1   0.0000
    26 N3       -0.7442    1.5367   -4.0372   N.am      1 RES1   0.0000
    27 C21      -1.7068    1.5330   -5.1293   C.3       1 RES1   0.0000
    28 C22      -2.5530    2.8050   -5.1994   C.3       1 RES1   0.0000
    29 C23      -3.4572    2.7808   -6.4372   C.3       1 RES1   0.0000
    30 C24      -2.7872    3.3348   -7.7008   C.3       1 RES1   0.0000
    31 C25      -3.0765    4.8178   -7.9582   C.3       1 RES1   0.0000
    32 C26      -2.4993    5.7957   -6.9351   C.3       1 RES1   0.0000
    33 C27      -0.9723    5.8544   -6.9005   C.3       1 RES1   0.0000
    34 C28      -0.3588    6.4615   -8.1543   C.3       1 RES1   0.0000
    35 C29       0.5032    2.2744   -4.2897   C.3       1 RES1   0.0000
    36 C30       0.9096    3.3942   -3.3145   C.3       1 RES1   0.0000
    37 C31       0.2808    4.7763   -3.5455   C.3       1 RES1   0.0000
    38 C32      -1.0383    4.9757   -2.8044   C.3       1 RES1   0.0000
    39 C33      -1.6271    6.3811   -2.9748   C.3       1 RES1   0.0000
    40 C34      -2.6825    6.6887   -1.9150   C.3       1 RES1   0.0000
    41 C35      -3.4083    8.0208   -2.0838   C.3       1 RES1   0.0000
    42 C36      -4.4055    8.0385   -3.2312   C.3       1 RES1   0.0000
    43 C37      -1.3347   -2.3613   -1.8533   C.3       1 RES1   0.0000
    44 C38       0.1369   -2.3830   -2.2506   C.2       1 RES1   0.0000
    45 O3        0.9232   -1.6284   -1.6439   O.2       1 RES1   0.0000
    46 N4        0.5177   -3.2195   -3.2073   N.am      1 RES1   0.0000
    47 C39       1.8732   -3.0760   -3.7216   C.3       1 RES1   0.0000
    48 C40       1.9413   -2.0378   -4.8431   C.3       1 RES1   0.0000
    49 C41       3.3669   -2.0002   -5.3894   C.3       1 RES1   0.0000
    50 C42       3.6220   -0.9516   -6.4743   C.3       1 RES1   0.0000
    51 C43       3.4319   -1.4387   -7.9153   C.3       1 RES1   0.0000
    52 C44       2.0017   -1.7089   -8.3885   C.3       1 RES1   0.0000
    53 C45       1.2185   -0.4746   -8.8354   C.3       1 RES1   0.0000
    54 C46       0.8807    0.5113   -7.7232   C.3       1 RES1   0.0000
    55 C47      -0.2163   -4.3943   -3.6663   C.3       1 RES1   0.0000
    56 C48       0.2527   -5.6627   -2.9352   C.3       1 RES1   0.0000
    57 C49      -0.0069   -5.6499   -1.4293   C.3       1 RES1   0.0000
    58 C50       0.4898   -6.9216   -0.7304   C.3       1 RES1   0.0000
    59 C51       1.9937   -7.1884   -0.8312   C.3       1 RES1   0.0000
    60 C52       2.8660   -6.0518   -0.3094   C.3       1 RES1   0.0000
    61 C53       4.3401   -6.4453   -0.2826   C.3       1 RES1   0.0000
    62 C54       5.2254   -5.3466    0.2924   C.3       1 RES1   0.0000
    63 H1      -10.2065    0.0006   -0.3481   H         1 RES1   0.0000
    64 H2      -10.2258   -0.6203   -1.9908   H         1 RES1   0.0000
    65 H3       -8.7584   -0.7273   -1.0317   H         1 RES1   0.0000
    66 H4      -11.4076   -2.1257   -0.4712   H         1 RES1   0.0000
    67 H5      -10.0050   -2.3112    0.5546   H         1 RES1   0.0000
    68 H6       -9.8421   -3.0106   -2.3905   H         1 RES1   0.0000
    69 H7      -10.6365   -4.1167   -1.2834   H         1 RES1   0.0000
    70 H8       -8.3837   -4.8091   -1.7203   H         1 RES1   0.0000
    71 H9       -8.6387   -4.4966   -0.0156   H         1 RES1   0.0000
    72 H10      -7.4193   -2.3206   -1.7154   H         1 RES1   0.0000
    73 H11      -6.4290   -3.6806   -1.1900   H         1 RES1   0.0000
    74 H12      -7.1625   -3.2972    1.1656   H         1 RES1   0.0000
    75 H13      -7.9491   -1.8107    0.6685   H         1 RES1   0.0000
    76 H14      -5.0280   -2.4194    0.2225   H         1 RES1   0.0000
    77 H15      -5.6459   -1.5634    1.6169   H         1 RES1   0.0000
    78 H16      -6.7130    0.1297    0.1322   H         1 RES1   0.0000
    79 H17      -5.8698   -0.5762   -1.2522   H         1 RES1   0.0000
    80 H18      -3.9336    2.2018    0.8437   H         1 RES1   0.0000
    81 H19      -5.3192    1.6489    1.7572   H         1 RES1   0.0000
    82 H20      -5.7944    3.6327    0.2955   H         1 RES1   0.0000
    83 H21      -6.8475    2.2754   -0.0123   H         1 RES1   0.0000
    84 H22      -5.0501    1.6465   -1.8592   H         1 RES1   0.0000
    85 H23      -4.6049    3.3445   -1.7327   H         1 RES1   0.0000
    86 H24      -6.8921    4.0255   -2.2440   H         1 RES1   0.0000
    87 H25      -7.4714    2.3732   -2.1454   H         1 RES1   0.0000
    88 H26      -5.5946    3.5070   -4.2553   H         1 RES1   0.0000
    89 H27      -7.2908    3.1181   -4.4643   H         1 RES1   0.0000
    90 H28      -5.0028    1.1546   -4.0204   H         1 RES1   0.0000
    91 H29      -5.9490    1.3969   -5.4800   H         1 RES1   0.0000
    92 H30      -7.0847    0.2915   -2.8828   H         1 RES1   0.0000
    93 H31      -6.5547   -0.6699   -4.2616   H         1 RES1   0.0000
    94 H32      -8.8451    1.3400   -4.2586   H         1 RES1   0.0000
    95 H33      -8.9767   -0.4128   -4.3544   H         1 RES1   0.0000
    96 H34      -8.2636    0.4873   -5.6881   H         1 RES1   0.0000
    97 H35      -3.8914   -1.4527   -1.4958   H         1 RES1   0.0000
    98 H36      -2.9641   -2.0147   -0.0629   H         1 RES1   0.0000
    99 H37      -2.8620    0.4814   -2.5507   H         1 RES1   0.0000
   100 H38      -2.1582   -0.8083   -3.5595   H         1 RES1   0.0000
   101 H39      -2.3607    0.6645   -5.0498   H         1 RES1   0.0000
   102 H40      -1.1323    1.4329   -6.0539   H         1 RES1   0.0000
   103 H41      -1.8891    3.6628   -5.2524   H         1 RES1   0.0000
   104 H42      -3.1457    2.8903   -4.2848   H         1 RES1   0.0000
   105 H43      -4.3587    3.3603   -6.2393   H         1 RES1   0.0000
   106 H44      -3.7668    1.7465   -6.6040   H         1 RES1   0.0000
   107 H45      -3.1643    2.7794   -8.5605   H         1 RES1   0.0000
   108 H46      -1.7102    3.1619   -7.6589   H         1 RES1   0.0000
   109 H47      -4.1600    4.9538   -7.9898   H         1 RES1   0.0000
   110 H48      -2.6957    5.0758   -8.9459   H         1 RES1   0.0000
   111 H49      -2.8834    5.5392   -5.9454   H         1 RES1   0.0000
   112 H50      -2.8641    6.7975   -7.1681   H         1 RES1   0.0000
   113 H51      -0.5601    4.8519   -6.7613   H         1 RES1   0.0000
   114 H52      -0.6668    6.4658   -6.0477   H         1 RES1   0.0000
   115 H53      -0.5579    5.8525   -9.0314   H         1 RES1   0.0000
   116 H54       0.7210    6.5443   -8.0433   H         1 RES1   0.0000
   117 H55      -0.7597    7.4562   -8.3309   H         1 RES1   0.0000
   118 H56       0.4260    2.6990   -5.2896   H         1 RES1   0.0000
   119 H57       1.3036    1.5231   -4.2864   H         1 RES1   0.0000
   120 H58       1.9902    3.5075   -3.4475   H         1 RES1   0.0000
   121 H59       0.7173    3.0878   -2.2828   H         1 RES1   0.0000
   122 H60       0.1512    4.9613   -4.6096   H         1 RES1   0.0000
   123 H61       0.9841    5.5293   -3.1813   H         1 RES1   0.0000
   124 H62      -0.8506    4.7721   -1.7500   H         1 RES1   0.0000
   125 H63      -1.7659    4.2386   -3.1351   H         1 RES1   0.0000
   126 H64      -2.0664    6.4609   -3.9661   H         1 RES1   0.0000
   127 H65      -0.8369    7.1305   -2.9084   H         1 RES1   0.0000
   128 H66      -2.1792    6.7333   -0.9471   H         1 RES1   0.0000
   129 H67      -3.4223    5.8822   -1.8951   H         1 RES1   0.0000
   130 H68      -2.6766    8.8163   -2.2225   H         1 RES1   0.0000
   131 H69      -3.9482    8.2264   -1.1566   H         1 RES1   0.0000
   132 H70      -3.9072    7.9750   -4.1944   H         1 RES1   0.0000
   133 H71      -4.9748    8.9639   -3.2089   H         1 RES1   0.0000
   134 H72      -5.1062    7.2095   -3.1469   H         1 RES1   0.0000
   135 H73      -1.9848   -2.7640   -2.6390   H         1 RES1   0.0000
   136 H74      -1.4064   -3.0111   -0.9735   H         1 RES1   0.0000
   137 H75       2.2173   -4.0370   -4.0999   H         1 RES1   0.0000
   138 H76       2.5234   -2.7640   -2.9031   H         1 RES1   0.0000
   139 H77       1.6599   -1.0515   -4.4600   H         1 RES1   0.0000
   140 H78       1.2324   -2.3032   -5.6262   H         1 RES1   0.0000
   141 H79       3.6254   -2.9882   -5.7704   H         1 RES1   0.0000
   142 H80       4.0228   -1.7916   -4.5414   H         1 RES1   0.0000
   143 H81       4.6649   -0.6385   -6.3859   H         1 RES1   0.0000
   144 H82       3.0023   -0.0837   -6.2596   H         1 RES1   0.0000
   145 H83       4.0159   -2.3557   -8.0282   H         1 RES1   0.0000
   146 H84       3.8729   -0.6997   -8.5872   H         1 RES1   0.0000
   147 H85       1.4405   -2.2452   -7.6232   H         1 RES1   0.0000
   148 H86       2.0589   -2.3724   -9.2531   H         1 RES1   0.0000
   149 H87       0.2826   -0.8146   -9.2833   H         1 RES1   0.0000
   150 H88       1.7806    0.0460   -9.6111   H         1 RES1   0.0000
   151 H89       0.4765   -0.0143   -6.8573   H         1 RES1   0.0000
   152 H90       0.1391    1.2253   -8.0782   H         1 RES1   0.0000
   153 H91       1.7567    1.0743   -7.4133   H         1 RES1   0.0000
   154 H92      -0.0185   -4.4947   -4.7370   H         1 RES1   0.0000
   155 H93      -1.2943   -4.2879   -3.5334   H         1 RES1   0.0000
   156 H94       1.3177   -5.7996   -3.1149   H         1 RES1   0.0000
   157 H95      -0.2694   -6.5097   -3.3819   H         1 RES1   0.0000
   158 H96      -1.0835   -5.5696   -1.2530   H         1 RES1   0.0000
   159 H97       0.4749   -4.7803   -0.9731   H         1 RES1   0.0000
   160 H98      -0.0417   -7.7836   -1.1398   H         1 RES1   0.0000
   161 H99       0.2227   -6.8454    0.3268   H         1 RES1   0.0000
   162 H100      2.2734   -7.4203   -1.8594   H         1 RES1   0.0000
   163 H101      2.2062   -8.0795   -0.2383   H         1 RES1   0.0000
   164 H102      2.5390   -5.7894    0.6974   H         1 RES1   0.0000
   165 H103      2.7458   -5.1635   -0.9343   H         1 RES1   0.0000
   166 H104      4.6645   -6.6767   -1.2968   H         1 RES1   0.0000
   167 H105      4.4677   -7.3499    0.3118   H         1 RES1   0.0000
   168 H106      5.0432   -4.3983   -0.2093   H         1 RES1   0.0000
   169 H107      6.2759   -5.5983    0.1709   H         1 RES1   0.0000
   170 H108      5.0296   -5.2189    1.3526   H         1 RES1   0.0000
   171 C55      -0.8012    8.9816    3.1977   C.3       1 RES1   0.0000
   172 C56       0.1711   10.0419    2.6888   C.3       1 RES1   0.0000
   173 C57       1.6143    9.8294    3.1601   C.3       1 RES1   0.0000
   174 C58       2.5264    9.0141    2.2371   C.3       1 RES1   0.0000
   175 C59       2.0846    7.5727    1.9620   C.3       1 RES1   0.0000
   176 C60       1.2145    7.4593    0.7134   C.3       1 RES1   0.0000
   177 C61       0.7515    6.0358    0.4120   C.3       1 RES1   0.0000
   178 C62      -0.2264    5.5109    1.4704   C.3       1 RES1   0.0000
   179 N5       -0.8762    4.2866    1.0313   N.am      1 RES1   0.0000
   180 C63      -2.2873    4.3490    0.6744   C.3       1 RES1   0.0000
   181 C64      -3.1515    4.7568    1.8723   C.3       1 RES1   0.0000
   182 C65      -2.8274    3.9810    3.1467   C.3       1 RES1   0.0000
   183 C66      -3.4216    4.6768    4.3674   C.3       1 RES1   0.0000
   184 C67      -3.0112    4.0530    5.7000   C.3       1 RES1   0.0000
   185 C68      -1.5020    3.9137    5.9231   C.3       1 RES1   0.0000
   186 C69      -0.6831    5.1812    5.6808   C.3       1 RES1   0.0000
   187 C70      -1.0354    6.3045    6.6438   C.3       1 RES1   0.0000
   188 C71      -0.2178    3.1568    0.8114   C.2       1 RES1   0.0000
   189 O4       -0.5963    2.2939   -0.0049   O.2       1 RES1   0.0000
   190 C72       1.0141    2.8283    1.6491   C.3       1 RES1   0.0000
   191 N6        0.9669    1.3820    1.9569   N.4       1 RES1   0.0000
   192 C73      -0.0457    1.1420    3.0140   C.3       1 RES1   0.0000
   193 C74      -0.5853   -0.2978    3.0254   C.2       1 RES1   0.0000
   194 O5       -0.7571   -0.8632    1.9270   O.2       1 RES1   0.0000
   195 N7       -0.8752   -0.9080    4.1713   N.am      1 RES1   0.0000
   196 C75      -0.7487   -0.3453    5.5159   C.3       1 RES1   0.0000
   197 C76      -2.0834    0.1710    6.0656   C.3       1 RES1   0.0000
   198 C77      -1.9935    0.6596    7.5175   C.3       1 RES1   0.0000
   199 C78      -2.2046   -0.4435    8.5658   C.3       1 RES1   0.0000
   200 C79      -3.6498   -0.5969    9.0622   C.3       1 RES1   0.0000
   201 C80      -4.6678   -1.1205    8.0483   C.3       1 RES1   0.0000
   202 C81      -4.4176   -2.5489    7.5635   C.3       1 RES1   0.0000
   203 C82      -4.6223   -3.6054    8.6407   C.3       1 RES1   0.0000
   204 C83      -1.2098   -2.3391    4.1184   C.3       1 RES1   0.0000
   205 C84      -2.4169   -2.7897    3.2867   C.3       1 RES1   0.0000
   206 C85      -3.7988   -2.5241    3.8879   C.3       1 RES1   0.0000
   207 C86      -4.3014   -1.0937    3.7170   C.3       1 RES1   0.0000
   208 C87      -5.7575   -0.9416    4.1699   C.3       1 RES1   0.0000
   209 C88      -6.3873    0.3449    3.6480   C.3       1 RES1   0.0000
   210 C89      -7.8589    0.5314    4.0064   C.3       1 RES1   0.0000
   211 C90      -8.0831    0.9143    5.4598   C.3       1 RES1   0.0000
   212 C91       2.3053    0.9100    2.3459   C.3       1 RES1   0.0000
   213 C92       2.5622   -0.5409    1.9251   C.2       1 RES1   0.0000
   214 O6        1.7156   -1.1410    1.2373   O.2       1 RES1   0.0000
   215 N8        3.6973   -1.0996    2.3242   N.am      1 RES1   0.0000
   216 C93       3.8129   -2.5529    2.2582   C.3       1 RES1   0.0000
   217 C94       3.1099   -3.1964    3.4567   C.3       1 RES1   0.0000
   218 C95       3.4183   -4.6907    3.5228   C.3       1 RES1   0.0000
   219 C96       2.6981   -5.4513    4.6408   C.3       1 RES1   0.0000
   220 C97       3.4417   -5.5203    5.9803   C.3       1 RES1   0.0000
   221 C98       3.5794   -4.2283    6.7901   C.3       1 RES1   0.0000
   222 C99       2.3550   -3.8299    7.6143   C.3       1 RES1   0.0000
   223 C100      1.1401   -3.4003    6.8007   C.3       1 RES1   0.0000
   224 C101      4.9022   -0.3618    2.6816   C.3       1 RES1   0.0000
   225 C102      5.8901   -0.3238    1.5005   C.3       1 RES1   0.0000
   226 C103      5.2979    0.2758    0.2253   C.3       1 RES1   0.0000
   227 C104      6.3009    0.3427   -0.9318   C.3       1 RES1   0.0000
   228 C105      6.8311   -1.0041   -1.4264   C.3       1 RES1   0.0000
   229 C106      5.7710   -1.9378   -2.0031   C.3       1 RES1   0.0000
   230 C107      6.4128   -3.2128   -2.5455   C.3       1 RES1   0.0000
   231 C108      5.4038   -4.1809   -3.1495   C.3       1 RES1   0.0000
   232 H109     -1.8104    9.1809    2.8408   H         1 RES1   0.0000
   233 H110     -0.8274    8.9842    4.2852   H         1 RES1   0.0000
   234 H111     -0.5187    7.9850    2.8741   H         1 RES1   0.0000
   235 H112     -0.1855   11.0030    3.0590   H         1 RES1   0.0000
   236 H113      0.1416   10.0967    1.5999   H         1 RES1   0.0000
   237 H114      1.5975    9.3717    4.1515   H         1 RES1   0.0000
   238 H115      2.0860   10.8074    3.2688   H         1 RES1   0.0000
   239 H116      3.5110    8.9875    2.7082   H         1 RES1   0.0000
   240 H117      2.6421    9.5365    1.2857   H         1 RES1   0.0000
   241 H118      1.5574    7.1934    2.8371   H         1 RES1   0.0000
   242 H119      2.9652    6.9430    1.8054   H         1 RES1   0.0000
   243 H120      1.7909    7.8098   -0.1430   H         1 RES1   0.0000
   244 H121      0.3395    8.0996    0.7893   H         1 RES1   0.0000
   245 H122      1.6163    5.3726    0.3342   H         1 RES1   0.0000
   246 H123      0.2436    6.0450   -0.5537   H         1 RES1   0.0000
   247 H124     -1.0184    6.2448    1.6083   H         1 RES1   0.0000
   248 H125      0.2831    5.3642    2.4264   H         1 RES1   0.0000
   249 H126     -2.5506    3.3509    0.3305   H         1 RES1   0.0000
   250 H127     -2.4397    5.0444   -0.1454   H         1 RES1   0.0000
   251 H128     -4.1977    4.6056    1.6050   H         1 RES1   0.0000
   252 H129     -3.0296    5.8215    2.0725   H         1 RES1   0.0000
   253 H130     -1.7463    3.9295    3.2672   H         1 RES1   0.0000
   254 H131     -3.2025    2.9591    3.0672   H         1 RES1   0.0000
   255 H132     -4.5094    4.6563    4.2890   H         1 RES1   0.0000
   256 H133     -3.1190    5.7245    4.3514   H         1 RES1   0.0000
   257 H134     -3.4698    3.0650    5.7893   H         1 RES1   0.0000
   258 H135     -3.4341    4.6633    6.4960   H         1 RES1   0.0000
   259 H136     -1.1146    3.1132    5.2855   H         1 RES1   0.0000
   260 H137     -1.3474    3.6018    6.9563   H         1 RES1   0.0000
   261 H138     -0.8218    5.5311    4.6568   H         1 RES1   0.0000
   262 H139      0.3758    4.9388    5.8046   H         1 RES1   0.0000
   263 H140     -2.0641    6.6251    6.5081   H         1 RES1   0.0000
   264 H141     -0.3876    7.1633    6.4829   H         1 RES1   0.0000
   265 H142     -0.9110    5.9773    7.6728   H         1 RES1   0.0000
   266 H143      1.0522    3.4284    2.5660   H         1 RES1   0.0000
   267 H144      1.9129    3.0443    1.0650   H         1 RES1   0.0000
   268 H145     -0.9094    1.7878    2.8092   H         1 RES1   0.0000
   269 H146      0.3686    1.4258    3.9869   H         1 RES1   0.0000
   270 H147     -0.0043    0.4529    5.5302   H         1 RES1   0.0000
   271 H148     -0.3759   -1.1423    6.1611   H         1 RES1   0.0000
   272 H149     -2.8037   -0.6410    6.0246   H         1 RES1   0.0000
   273 H150     -2.4266    0.9797    5.4147   H         1 RES1   0.0000
   274 H151     -2.7498    1.4297    7.6742   H         1 RES1   0.0000
   275 H152     -1.0192    1.1327    7.6623   H         1 RES1   0.0000
   276 H153     -1.5984   -0.1952    9.4383   H         1 RES1   0.0000
   277 H154     -1.8370   -1.3964    8.1813   H         1 RES1   0.0000
   278 H155     -3.9959    0.3749    9.4226   H         1 RES1   0.0000
   279 H156     -3.6429   -1.2670    9.9220   H         1 RES1   0.0000
   280 H157     -4.6983   -0.4391    7.1955   H         1 RES1   0.0000
   281 H158     -5.6577   -1.0972    8.5083   H         1 RES1   0.0000
   282 H159     -3.4015   -2.6396    7.1722   H         1 RES1   0.0000
   283 H160     -5.1122   -2.7664    6.7478   H         1 RES1   0.0000
   284 H161     -3.9041   -3.4978    9.4484   H         1 RES1   0.0000
   285 H162     -4.5028   -4.6018    8.2183   H         1 RES1   0.0000
   286 H163     -5.6223   -3.5331    9.0609   H         1 RES1   0.0000
   287 H164     -1.3694   -2.6695    5.1438   H         1 RES1   0.0000
   288 H165     -0.3208   -2.8376    3.7120   H         1 RES1   0.0000
   289 H166     -2.3004   -3.8731    3.1918   H         1 RES1   0.0000
   290 H167     -2.3642   -2.3616    2.2845   H         1 RES1   0.0000
   291 H168     -3.8039   -2.7938    4.9429   H         1 RES1   0.0000
   292 H169     -4.5055   -3.1894    3.3855   H         1 RES1   0.0000
   293 H170     -4.1849   -0.8066    2.6706   H         1 RES1   0.0000
   294 H171     -3.6839   -0.4037    4.2789   H         1 RES1   0.0000
   295 H172     -5.7856   -0.9579    5.2566   H         1 RES1   0.0000
   296 H173     -6.3492   -1.7882    3.8160   H         1 RES1   0.0000
   297 H174     -6.3338    0.3142    2.5620   H         1 RES1   0.0000
   298 H175     -5.8126    1.2038    4.0047   H         1 RES1   0.0000
   299 H176     -8.4015   -0.3872    3.7795   H         1 RES1   0.0000
   300 H177     -8.2670    1.3233    3.3733   H         1 RES1   0.0000
   301 H178     -7.7822    0.1138    6.1295   H         1 RES1   0.0000
   302 H179     -9.1355    1.1207    5.6352   H         1 RES1   0.0000
   303 H180     -7.5174    1.8099    5.7102   H         1 RES1   0.0000
   304 H181      2.4580    1.0174    3.4292   H         1 RES1   0.0000
   305 H182      3.0535    1.5183    1.8352   H         1 RES1   0.0000
   306 H183      4.8669   -2.8231    2.2726   H         1 RES1   0.0000
   307 H184      3.3604   -2.9145    1.3338   H         1 RES1   0.0000
   308 H185      2.0300   -3.0516    3.3708   H         1 RES1   0.0000
   309 H186      3.4398   -2.6963    4.3660   H         1 RES1   0.0000
   310 H187      4.4937   -4.8347    3.6252   H         1 RES1   0.0000
   311 H188      3.1149   -5.1230    2.5678   H         1 RES1   0.0000
   312 H189      2.5732   -6.4840    4.3047   H         1 RES1   0.0000
   313 H190      1.7022   -5.0283    4.7559   H         1 RES1   0.0000
   314 H191      4.4434   -5.9086    5.7763   H         1 RES1   0.0000
   315 H192      2.9422   -6.2587    6.6113   H         1 RES1   0.0000
   316 H193      3.8719   -3.4022    6.1428   H         1 RES1   0.0000
   317 H194      4.3988   -4.3700    7.4970   H         1 RES1   0.0000
   318 H195      2.6413   -2.9954    8.2585   H         1 RES1   0.0000
   319 H196      2.0718   -4.6596    8.2627   H         1 RES1   0.0000
   320 H197      1.4250   -2.6714    6.0414   H         1 RES1   0.0000
   321 H198      0.3986   -2.9507    7.4599   H         1 RES1   0.0000
   322 H199      0.6707   -4.2482    6.3104   H         1 RES1   0.0000
   323 H200      5.3626   -0.8677    3.5342   H         1 RES1   0.0000
   324 H201      4.6620    0.6569    2.9880   H         1 RES1   0.0000
   325 H202      6.2356   -1.3345    1.2883   H         1 RES1   0.0000
   326 H203      6.7538    0.2636    1.8136   H         1 RES1   0.0000
   327 H204      4.9599    1.2950    0.4297   H         1 RES1   0.0000
   328 H205      4.4280   -0.3096   -0.0785   H         1 RES1   0.0000
   329 H206      7.1516    0.9529   -0.6208   H         1 RES1   0.0000
   330 H207      5.8248    0.8579   -1.7711   H         1 RES1   0.0000
   331 H208      7.3649   -1.5157   -0.6256   H         1 RES1   0.0000
   332 H209      7.5605   -0.8001   -2.2119   H         1 RES1   0.0000
   333 H210      5.2396   -1.4249   -2.8071   H         1 RES1   0.0000
   334 H211      5.0374   -2.2028   -1.2377   H         1 RES1   0.0000
   335 H212      6.9449   -3.7101   -1.7353   H         1 RES1   0.0000
   336 H213      7.1504   -2.9528   -3.3046   H         1 RES1   0.0000
   337 H214      4.5979   -4.3936   -2.4500   H         1 RES1   0.0000
   338 H215      5.8864   -5.1212   -3.4036   H         1 RES1   0.0000
   339 H216      4.9762   -3.7692   -4.0582   H         1 RES1   0.0000
   340 O7        2.3229    0.9460   -0.7671   O.3       1 RES1   0.0000
   341 H217      2.5362    0.1173   -1.2272   H         1 RES1   0.0000
   342 H218      2.3899    1.6210   -1.4601   H         1 RES1   0.0000
@<TRIPOS>BOND
     1     1    20    1
     2     1    22    1
     3     1    25    1
     4     1    45    1
     5     1   189    1
     6     1   191    1
     7     1   194    1
     8     1   214    1
     9     1   340    1
    10     2     3    1
    11     2    63    1
    12     2    64    1
    13     2    65    1
    14     3     4    1
    15     3    66    1
    16     3    67    1
    17     4     5    1
    18     4    68    1
    19     4    69    1
    20     5     6    1
    21     5    70    1
    22     5    71    1
    23     6     7    1
    24     6    72    1
    25     6    73    1
    26     7     8    1
    27     7    74    1
    28     7    75    1
    29     8     9    1
    30     8    76    1
    31     8    77    1
    32     9    10    1
    33     9    78    1
    34     9    79    1
    35    10    11    1
    36    10    19    1
    37    11    12    1
    38    11    80    1
    39    11    81    1
    40    12    13    1
    41    12    82    1
    42    12    83    1
    43    13    14    1
    44    13    84    1
    45    13    85    1
    46    14    15    1
    47    14    86    1
    48    14    87    1
    49    15    16    1
    50    15    88    1
    51    15    89    1
    52    16    17    1
    53    16    90    1
    54    16    91    1
    55    17    18    1
    56    17    92    1
    57    17    93    1
    58    18    94    1
    59    18    95    1
    60    18    96    1
    61    19    20    2
    62    19    21    1
    63    21    22    1
    64    21    97    1
    65    21    98    1
    66    22    23    1
    67    22    43    1
    68    23    24    1
    69    23    99    1
    70    23   100    1
    71    24    25    2
    72    24    26    1
    73    26    27    1
    74    26    35    1
    75    27    28    1
    76    27   101    1
    77    27   102    1
    78    28    29    1
    79    28   103    1
    80    28   104    1
    81    29    30    1
    82    29   105    1
    83    29   106    1
    84    30    31    1
    85    30   107    1
    86    30   108    1
    87    31    32    1
    88    31   109    1
    89    31   110    1
    90    32    33    1
    91    32   111    1
    92    32   112    1
    93    33    34    1
    94    33   113    1
    95    33   114    1
    96    34   115    1
    97    34   116    1
    98    34   117    1
    99    35    36    1
   100    35   118    1
   101    35   119    1
   102    36    37    1
   103    36   120    1
   104    36   121    1
   105    37    38    1
   106    37   122    1
   107    37   123    1
   108    38    39    1
   109    38   124    1
   110    38   125    1
   111    39    40    1
   112    39   126    1
   113    39   127    1
   114    40    41    1
   115    40   128    1
   116    40   129    1
   117    41    42    1
   118    41   130    1
   119    41   131    1
   120    42   132    1
   121    42   133    1
   122    42   134    1
   123    43    44    1
   124    43   135    1
   125    43   136    1
   126    44    45    2
   127    44    46    1
   128    46    47    1
   129    46    55    1
   130    47    48    1
   131    47   137    1
   132    47   138    1
   133    48    49    1
   134    48   139    1
   135    48   140    1
   136    49    50    1
   137    49   141    1
   138    49   142    1
   139    50    51    1
   140    50   143    1
   141    50   144    1
   142    51    52    1
   143    51   145    1
   144    51   146    1
   145    52    53    1
   146    52   147    1
   147    52   148    1
   148    53    54    1
   149    53   149    1
   150    53   150    1
   151    54   151    1
   152    54   152    1
   153    54   153    1
   154    55    56    1
   155    55   154    1
   156    55   155    1
   157    56    57    1
   158    56   156    1
   159    56   157    1
   160    57    58    1
   161    57   158    1
   162    57   159    1
   163    58    59    1
   164    58   160    1
   165    58   161    1
   166    59    60    1
   167    59   162    1
   168    59   163    1
   169    60    61    1
   170    60   164    1
   171    60   165    1
   172    61    62    1
   173    61   166    1
   174    61   167    1
   175    62   168    1
   176    62   169    1
   177    62   170    1
   178   171   172    1
   179   171   232    1
   180   171   233    1
   181   171   234    1
   182   172   173    1
   183   172   235    1
   184   172   236    1
   185   173   174    1
   186   173   237    1
   187   173   238    1
   188   174   175    1
   189   174   239    1
   190   174   240    1
   191   175   176    1
   192   175   241    1
   193   175   242    1
   194   176   177    1
   195   176   243    1
   196   176   244    1
   197   177   178    1
   198   177   245    1
   199   177   246    1
   200   178   179    1
   201   178   247    1
   202   178   248    1
   203   179   180    1
   204   179   188    1
   205   180   181    1
   206   180   249    1
   207   180   250    1
   208   181   182    1
   209   181   251    1
   210   181   252    1
   211   182   183    1
   212   182   253    1
   213   182   254    1
   214   183   184    1
   215   183   255    1
   216   183   256    1
   217   184   185    1
   218   184   257    1
   219   184   258    1
   220   185   186    1
   221   185   259    1
   222   185   260    1
   223   186   187    1
   224   186   261    1
   225   186   262    1
   226   187   263    1
   227   187   264    1
   228   187   265    1
   229   188   189    2
   230   188   190    1
   231   190   191    1
   232   190   266    1
   233   190   267    1
   234   191   192    1
   235   191   212    1
   236   192   193    1
   237   192   268    1
   238   192   269    1
   239   193   194    2
   240   193   195    1
   241   195   196    1
   242   195   204    1
   243   196   197    1
   244   196   270    1
   245   196   271    1
   246   197   198    1
   247   197   272    1
   248   197   273    1
   249   198   199    1
   250   198   274    1
   251   198   275    1
   252   199   200    1
   253   199   276    1
   254   199   277    1
   255   200   201    1
   256   200   278    1
   257   200   279    1
   258   201   202    1
   259   201   280    1
   260   201   281    1
   261   202   203    1
   262   202   282    1
   263   202   283    1
   264   203   284    1
   265   203   285    1
   266   203   286    1
   267   204   205    1
   268   204   287    1
   269   204   288    1
   270   205   206    1
   271   205   289    1
   272   205   290    1
   273   206   207    1
   274   206   291    1
   275   206   292    1
   276   207   208    1
   277   207   293    1
   278   207   294    1
   279   208   209    1
   280   208   295    1
   281   208   296    1
   282   209   210    1
   283   209   297    1
   284   209   298    1
   285   210   211    1
   286   210   299    1
   287   210   300    1
   288   211   301    1
   289   211   302    1
   290   211   303    1
   291   212   213    1
   292   212   304    1
   293   212   305    1
   294   213   214    2
   295   213   215    1
   296   215   216    1
   297   215   224    1
   298   216   217    1
   299   216   306    1
   300   216   307    1
   301   217   218    1
   302   217   308    1
   303   217   309    1
   304   218   219    1
   305   218   310    1
   306   218   311    1
   307   219   220    1
   308   219   312    1
   309   219   313    1
   310   220   221    1
   311   220   314    1
   312   220   315    1
   313   221   222    1
   314   221   316    1
   315   221   317    1
   316   222   223    1
   317   222   318    1
   318   222   319    1
   319   223   320    1
   320   223   321    1
   321   223   322    1
   322   224   225    1
   323   224   323    1
   324   224   324    1
   325   225   226    1
   326   225   325    1
   327   225   326    1
   328   226   227    1
   329   226   327    1
   330   226   328    1
   331   227   228    1
   332   227   329    1
   333   227   330    1
   334   228   229    1
   335   228   331    1
   336   228   332    1
   337   229   230    1
   338   229   333    1
   339   229   334    1
   340   230   231    1
   341   230   335    1
   342   230   336    1
   343   231   337    1
   344   231   338    1
   345   231   339    1
   346   340   341    1
   347   340   342    1
@<TRIPOS>SUBSTRUCTURE
     1 RES1      342 GROUP             0 ****  ****    0  
