@<TRIPOS>MOLECULE
cn9_YICLED_0_nunpairedes_0_charge_3 Charge: 3 Unpaired_Electrons: 6 XTB_Unpaired_Electrons: 0 XTB_Charge: 3
   340   345     1     0     0
SMALL
NoCharges
****
Generated from Architector

@<TRIPOS>ATOM
     1 Eu1      -0.1442   -0.0240   -0.3616   Eu        1 RES1   0.0000
     2 C1        0.2595   -6.4083   -7.1877   C.3       1 RES1   0.0000
     3 C2        1.3982   -5.4687   -7.5542   C.3       1 RES1   0.0000
     4 C3        1.0274   -3.9855   -7.4960   C.3       1 RES1   0.0000
     5 C4       -0.0194   -3.5513   -8.5344   C.3       1 RES1   0.0000
     6 C5       -1.4500   -3.3884   -7.9931   C.3       1 RES1   0.0000
     7 C6       -1.8596   -1.9470   -7.6121   C.3       1 RES1   0.0000
     8 C7       -1.6495   -1.5817   -6.1260   C.3       1 RES1   0.0000
     9 C8       -2.5198   -0.3753   -5.7365   C.3       1 RES1   0.0000
    10 N1       -2.2758    0.3525   -4.4778   N.am      1 RES1   0.0000
    11 C9       -2.9145    1.6745   -4.3922   C.3       1 RES1   0.0000
    12 C10      -2.0100    2.9034   -4.2203   C.3       1 RES1   0.0000
    13 C11      -2.9264    4.0960   -3.8951   C.3       1 RES1   0.0000
    14 C12      -2.1975    5.3317   -3.3774   C.3       1 RES1   0.0000
    15 C13      -1.1632    3.1558   -5.4723   C.3       1 RES1   0.0000
    16 C14       0.1822    2.4350   -5.4314   C.3       1 RES1   0.0000
    17 C15       1.2005    3.2068   -4.5950   C.3       1 RES1   0.0000
    18 C16       2.2844    2.2779   -4.0702   C.3       1 RES1   0.0000
    19 C17      -1.7782   -0.1308   -3.3459   C.2       1 RES1   0.0000
    20 O1       -1.5002    0.5789   -2.3505   O.2       1 RES1   0.0000
    21 C18      -1.6464   -1.6330   -3.1864   C.3       1 RES1   0.0000
    22 O2       -1.4607   -1.8683   -1.8066   O.3       1 RES1   0.0000
    23 C19      -1.8558   -3.1834   -1.4741   C.3       1 RES1   0.0000
    24 C20      -1.6954   -3.3141    0.0444   C.2       1 RES1   0.0000
    25 O3       -1.1019   -2.3810    0.6213   O.2       1 RES1   0.0000
    26 N2       -2.2576   -4.3838    0.6043   N.am      1 RES1   0.0000
    27 C21      -2.5681   -5.5842   -0.1778   C.3       1 RES1   0.0000
    28 C22      -4.0263   -6.0528   -0.1515   C.3       1 RES1   0.0000
    29 C23      -4.3639   -6.9551   -1.3433   C.3       1 RES1   0.0000
    30 C24      -4.2740   -6.2714   -2.7131   C.3       1 RES1   0.0000
    31 C25      -5.1329   -5.0138   -2.8382   C.3       1 RES1   0.0000
    32 C26      -5.0329   -4.3822   -4.2272   C.3       1 RES1   0.0000
    33 C27      -5.6375   -2.9799   -4.2646   C.3       1 RES1   0.0000
    34 C28      -5.8340   -2.4841   -5.6915   C.3       1 RES1   0.0000
    35 C29      -2.3769   -4.5575    2.0541   C.3       1 RES1   0.0000
    36 C30      -3.3886   -3.6379    2.7742   C.3       1 RES1   0.0000
    37 C31      -2.7230   -2.3197    3.1887   C.3       1 RES1   0.0000
    38 C32      -1.7272   -2.5000    4.3289   C.3       1 RES1   0.0000
    39 C33      -4.6947   -3.3903    1.9994   C.3       1 RES1   0.0000
    40 C34      -5.7988   -4.3772    2.3884   C.3       1 RES1   0.0000
    41 C35      -7.0975   -4.1789    1.6076   C.3       1 RES1   0.0000
    42 C36      -8.1507   -5.1842    2.0514   C.3       1 RES1   0.0000
    43 H1        0.6157   -7.4354   -7.1672   H         1 RES1   0.0000
    44 H2       -0.5464   -6.3406   -7.9117   H         1 RES1   0.0000
    45 H3       -0.1385   -6.1706   -6.2022   H         1 RES1   0.0000
    46 H4        1.7479   -5.7066   -8.5573   H         1 RES1   0.0000
    47 H5        2.2344   -5.6416   -6.8707   H         1 RES1   0.0000
    48 H6        1.9492   -3.4305   -7.6729   H         1 RES1   0.0000
    49 H7        0.6741   -3.7454   -6.4897   H         1 RES1   0.0000
    50 H8       -0.0213   -4.2957   -9.3336   H         1 RES1   0.0000
    51 H9        0.2830   -2.6062   -8.9898   H         1 RES1   0.0000
    52 H10      -1.5961   -4.0557   -7.1414   H         1 RES1   0.0000
    53 H11      -2.1382   -3.7157   -8.7748   H         1 RES1   0.0000
    54 H12      -2.9235   -1.8404   -7.8362   H         1 RES1   0.0000
    55 H13      -1.3210   -1.2405   -8.2467   H         1 RES1   0.0000
    56 H14      -0.5983   -1.3582   -5.9508   H         1 RES1   0.0000
    57 H15      -1.9282   -2.4669   -5.5549   H         1 RES1   0.0000
    58 H16      -3.5699   -0.6888   -5.7576   H         1 RES1   0.0000
    59 H17      -2.3900    0.3711   -6.5227   H         1 RES1   0.0000
    60 H18      -3.5861    1.6398   -3.5297   H         1 RES1   0.0000
    61 H19      -3.5200    1.7992   -5.2885   H         1 RES1   0.0000
    62 H20      -1.3621    2.7229   -3.3577   H         1 RES1   0.0000
    63 H21      -3.6508    3.7847   -3.1342   H         1 RES1   0.0000
    64 H22      -3.4900    4.3699   -4.7879   H         1 RES1   0.0000
    65 H23      -1.5378    5.0731   -2.5509   H         1 RES1   0.0000
    66 H24      -2.9308    6.0562   -3.0297   H         1 RES1   0.0000
    67 H25      -1.6084    5.8172   -4.1505   H         1 RES1   0.0000
    68 H26      -0.9789    4.2245   -5.5763   H         1 RES1   0.0000
    69 H27      -1.7369    2.8427   -6.3455   H         1 RES1   0.0000
    70 H28       0.5626    2.3116   -6.4466   H         1 RES1   0.0000
    71 H29       0.0468    1.4447   -4.9908   H         1 RES1   0.0000
    72 H30       0.6883    3.6806   -3.7544   H         1 RES1   0.0000
    73 H31       1.6457    4.0040   -5.1903   H         1 RES1   0.0000
    74 H32       2.7239    1.7281   -4.8986   H         1 RES1   0.0000
    75 H33       1.8671    1.5707   -3.3483   H         1 RES1   0.0000
    76 H34       3.0765    2.8405   -3.5870   H         1 RES1   0.0000
    77 H35      -0.8175   -2.0480   -3.7688   H         1 RES1   0.0000
    78 H36      -2.5821   -2.0997   -3.5209   H         1 RES1   0.0000
    79 H37      -1.2421   -3.9067   -2.0257   H         1 RES1   0.0000
    80 H38      -2.9135   -3.3310   -1.7355   H         1 RES1   0.0000
    81 H39      -1.9374   -6.3934    0.2018   H         1 RES1   0.0000
    82 H40      -2.2753   -5.4153   -1.2062   H         1 RES1   0.0000
    83 H41      -4.6973   -5.1986   -0.1605   H         1 RES1   0.0000
    84 H42      -4.2123   -6.6100    0.7661   H         1 RES1   0.0000
    85 H43      -5.3805   -7.3264   -1.2029   H         1 RES1   0.0000
    86 H44      -3.7014   -7.8231   -1.3368   H         1 RES1   0.0000
    87 H45      -4.5861   -6.9946   -3.4680   H         1 RES1   0.0000
    88 H46      -3.2335   -6.0151   -2.9312   H         1 RES1   0.0000
    89 H47      -4.8201   -4.2738   -2.0937   H         1 RES1   0.0000
    90 H48      -6.1705   -5.2709   -2.6245   H         1 RES1   0.0000
    91 H49      -5.5497   -5.0107   -4.9520   H         1 RES1   0.0000
    92 H50      -3.9844   -4.3344   -4.5397   H         1 RES1   0.0000
    93 H51      -4.9901   -2.2863   -3.7149   H         1 RES1   0.0000
    94 H52      -6.6030   -2.9933   -3.7590   H         1 RES1   0.0000
    95 H53      -4.9122   -2.5711   -6.2654   H         1 RES1   0.0000
    96 H54      -6.1651   -1.4481   -5.6971   H         1 RES1   0.0000
    97 H55      -6.5939   -3.0754   -6.1941   H         1 RES1   0.0000
    98 H56      -1.3943   -4.3981    2.5031   H         1 RES1   0.0000
    99 H57      -2.6591   -5.5963    2.2173   H         1 RES1   0.0000
   100 H58      -3.6720   -4.1541    3.6979   H         1 RES1   0.0000
   101 H59      -3.5030   -1.6405    3.5270   H         1 RES1   0.0000
   102 H60      -2.2228   -1.8689    2.3322   H         1 RES1   0.0000
   103 H61      -2.2407   -2.7599    5.2509   H         1 RES1   0.0000
   104 H62      -1.1778   -1.5771    4.4949   H         1 RES1   0.0000
   105 H63      -1.0098   -3.2881    4.1129   H         1 RES1   0.0000
   106 H64      -4.5179   -3.4171    0.9250   H         1 RES1   0.0000
   107 H65      -5.0479   -2.3830    2.2229   H         1 RES1   0.0000
   108 H66      -6.0212   -4.2487    3.4491   H         1 RES1   0.0000
   109 H67      -5.4568   -5.4043    2.2484   H         1 RES1   0.0000
   110 H68      -6.9164   -4.2961    0.5371   H         1 RES1   0.0000
   111 H69      -7.4622   -3.1623    1.7667   H         1 RES1   0.0000
   112 H70      -7.8127   -6.1982    1.8601   H         1 RES1   0.0000
   113 H71      -9.0831   -5.0332    1.5175   H         1 RES1   0.0000
   114 H72      -8.3335   -5.0824    3.1163   H         1 RES1   0.0000
   115 C37       5.9877    3.5669   -6.0530   C.3       1 RES1   0.0000
   116 C38       5.1916    4.8034   -5.6588   C.3       1 RES1   0.0000
   117 C39       5.5497    5.2713   -4.2506   C.3       1 RES1   0.0000
   118 C40       4.7728    6.5301   -3.8747   C.3       1 RES1   0.0000
   119 C41       5.2204    7.1850   -2.5626   C.3       1 RES1   0.0000
   120 C42       4.4262    6.7887   -1.3127   C.3       1 RES1   0.0000
   121 C43       4.6002    5.3272   -0.8499   C.3       1 RES1   0.0000
   122 C44       3.4476    4.4465   -1.3481   C.3       1 RES1   0.0000
   123 N3        3.3993    3.0445   -0.8687   N.am      1 RES1   0.0000
   124 C45       4.7326    2.4256   -1.0919   C.3       1 RES1   0.0000
   125 C46       5.2855    1.0751   -0.5641   C.3       1 RES1   0.0000
   126 C47       6.7515    1.0803   -1.0735   C.3       1 RES1   0.0000
   127 C48       7.4925   -0.2569   -1.1553   C.3       1 RES1   0.0000
   128 C49       5.2105    1.0204    0.9705   C.3       1 RES1   0.0000
   129 C50       6.1297    0.0421    1.7263   C.3       1 RES1   0.0000
   130 C51       5.8901   -1.4529    1.5105   C.3       1 RES1   0.0000
   131 C52       6.9098   -2.3083    2.2545   C.3       1 RES1   0.0000
   132 C53       2.2303    2.3910   -0.7779   C.2       1 RES1   0.0000
   133 O4        2.1354    1.1568   -0.7546   O.2       1 RES1   0.0000
   134 C54       0.9251    3.2302   -0.6586   C.3       1 RES1   0.0000
   135 O5       -0.2215    2.4002   -0.4161   O.3       1 RES1   0.0000
   136 C55      -1.2443    2.9635    0.4180   C.3       1 RES1   0.0000
   137 C56      -1.7080    1.9130    1.4552   C.2       1 RES1   0.0000
   138 O6       -1.4458    0.7144    1.2081   O.2       1 RES1   0.0000
   139 N4       -2.3526    2.2774    2.5590   N.am      1 RES1   0.0000
   140 C57      -3.0316    3.5565    2.7254   C.3       1 RES1   0.0000
   141 C58      -4.3704    3.6874    1.9858   C.3       1 RES1   0.0000
   142 C59      -5.4647    2.7052    2.4193   C.3       1 RES1   0.0000
   143 C60      -5.3522    1.3026    1.8064   C.3       1 RES1   0.0000
   144 C61      -6.0462    1.1586    0.4460   C.3       1 RES1   0.0000
   145 C62      -5.1098    0.5610   -0.6060   C.3       1 RES1   0.0000
   146 C63      -5.6284    0.8060   -2.0203   C.3       1 RES1   0.0000
   147 C64      -7.0286    0.2685   -2.2918   C.3       1 RES1   0.0000
   148 C65      -2.7128    1.2508    3.5535   C.3       1 RES1   0.0000
   149 C66      -1.9750    1.1901    4.9108   C.3       1 RES1   0.0000
   150 C67      -0.4601    1.1591    4.7107   C.3       1 RES1   0.0000
   151 C68       0.2679    0.6694    5.9643   C.3       1 RES1   0.0000
   152 C69      -2.4638    2.1626    6.0114   C.3       1 RES1   0.0000
   153 C70      -1.7280    3.4934    6.1520   C.3       1 RES1   0.0000
   154 C71      -1.9697    4.1466    7.5131   C.3       1 RES1   0.0000
   155 C72      -1.3930    5.5567    7.5576   C.3       1 RES1   0.0000
   156 H73       5.7694    3.2756   -7.0765   H         1 RES1   0.0000
   157 H74       7.0526    3.7737   -5.9776   H         1 RES1   0.0000
   158 H75       5.7478    2.7300   -5.3963   H         1 RES1   0.0000
   159 H76       5.4044    5.6107   -6.3611   H         1 RES1   0.0000
   160 H77       4.1204    4.5872   -5.7159   H         1 RES1   0.0000
   161 H78       5.3569    4.4618   -3.5429   H         1 RES1   0.0000
   162 H79       6.6199    5.4826   -4.2152   H         1 RES1   0.0000
   163 H80       4.9188    7.2470   -4.6825   H         1 RES1   0.0000
   164 H81       3.7023    6.3155   -3.8377   H         1 RES1   0.0000
   165 H82       6.2824    6.9898   -2.4007   H         1 RES1   0.0000
   166 H83       5.1102    8.2660   -2.6681   H         1 RES1   0.0000
   167 H84       4.7673    7.4419   -0.5073   H         1 RES1   0.0000
   168 H85       3.3695    7.0021   -1.4853   H         1 RES1   0.0000
   169 H86       5.5664    4.9904   -1.2214   H         1 RES1   0.0000
   170 H87       4.6281    5.2901    0.2388   H         1 RES1   0.0000
   171 H88       2.5254    4.9503   -1.0793   H         1 RES1   0.0000
   172 H89       3.4977    4.4076   -2.4398   H         1 RES1   0.0000
   173 H90       4.8642    2.4212   -2.1778   H         1 RES1   0.0000
   174 H91       5.4217    3.1528   -0.6694   H         1 RES1   0.0000
   175 H92       4.7404    0.2400   -1.0150   H         1 RES1   0.0000
   176 H93       6.7515    1.5051   -2.0798   H         1 RES1   0.0000
   177 H94       7.3338    1.7580   -0.4446   H         1 RES1   0.0000
   178 H95       6.8461   -1.0748   -1.4622   H         1 RES1   0.0000
   179 H96       8.2876   -0.1695   -1.8906   H         1 RES1   0.0000
   180 H97       7.9661   -0.5295   -0.2215   H         1 RES1   0.0000
   181 H98       5.4725    2.0161    1.3347   H         1 RES1   0.0000
   182 H99       4.1711    0.8459    1.2509   H         1 RES1   0.0000
   183 H100      7.1686    0.2816    1.5003   H         1 RES1   0.0000
   184 H101      6.0027    0.2330    2.7929   H         1 RES1   0.0000
   185 H102      4.8941   -1.7226    1.8766   H         1 RES1   0.0000
   186 H103      5.9359   -1.6978    0.4501   H         1 RES1   0.0000
   187 H104      6.8750   -2.1108    3.3231   H         1 RES1   0.0000
   188 H105      6.7000   -3.3625    2.0932   H         1 RES1   0.0000
   189 H106      7.9167   -2.1071    1.9020   H         1 RES1   0.0000
   190 H107      1.0427    3.9425    0.1605   H         1 RES1   0.0000
   191 H108      0.7642    3.7633   -1.6057   H         1 RES1   0.0000
   192 H109     -0.8794    3.8636    0.9209   H         1 RES1   0.0000
   193 H110     -2.0924    3.2385   -0.2293   H         1 RES1   0.0000
   194 H111     -3.2176    3.6769    3.7905   H         1 RES1   0.0000
   195 H112     -2.3731    4.3616    2.3952   H         1 RES1   0.0000
   196 H113     -4.7175    4.6969    2.2184   H         1 RES1   0.0000
   197 H114     -4.2194    3.6288    0.9073   H         1 RES1   0.0000
   198 H115     -5.4712    2.6478    3.5090   H         1 RES1   0.0000
   199 H116     -6.4280    3.1324    2.1363   H         1 RES1   0.0000
   200 H117     -4.3081    1.0351    1.6587   H         1 RES1   0.0000
   201 H118     -5.7801    0.5898    2.5100   H         1 RES1   0.0000
   202 H119     -6.9241    0.5206    0.5509   H         1 RES1   0.0000
   203 H120     -6.3897    2.1323    0.0934   H         1 RES1   0.0000
   204 H121     -4.1155    1.0246   -0.5215   H         1 RES1   0.0000
   205 H122     -4.9783   -0.5075   -0.4226   H         1 RES1   0.0000
   206 H123     -5.6313    1.8849   -2.1935   H         1 RES1   0.0000
   207 H124     -4.9384    0.3464   -2.7319   H         1 RES1   0.0000
   208 H125     -7.7366    0.6338   -1.5547   H         1 RES1   0.0000
   209 H126     -7.3610    0.6063   -3.2724   H         1 RES1   0.0000
   210 H127     -7.0397   -0.8188   -2.2790   H         1 RES1   0.0000
   211 H128     -3.7711    1.3591    3.7743   H         1 RES1   0.0000
   212 H129     -2.5456    0.2853    3.0696   H         1 RES1   0.0000
   213 H130     -2.2589    0.1947    5.2728   H         1 RES1   0.0000
   214 H131     -0.2507    0.4890    3.8734   H         1 RES1   0.0000
   215 H132     -0.1081    2.1483    4.4206   H         1 RES1   0.0000
   216 H133      0.4656   -0.3985    5.9130   H         1 RES1   0.0000
   217 H134      1.2169    1.1833    6.1114   H         1 RES1   0.0000
   218 H135     -0.3265    0.8410    6.8542   H         1 RES1   0.0000
   219 H136     -3.5290    2.3596    5.8807   H         1 RES1   0.0000
   220 H137     -2.3868    1.6459    6.9693   H         1 RES1   0.0000
   221 H138     -0.6570    3.3391    6.0436   H         1 RES1   0.0000
   222 H139     -2.0470    4.1907    5.3780   H         1 RES1   0.0000
   223 H140     -3.0407    4.1919    7.7187   H         1 RES1   0.0000
   224 H141     -1.5017    3.5443    8.2938   H         1 RES1   0.0000
   225 H142     -1.8884    6.1920    6.8248   H         1 RES1   0.0000
   226 H143     -1.5345    5.9991    8.5396   H         1 RES1   0.0000
   227 H144     -0.3247    5.5435    7.3454   H         1 RES1   0.0000
   228 C73       2.1507    3.9395    8.8442   C.3       1 RES1   0.0000
   229 C74       2.8185    2.5838    8.6521   C.3       1 RES1   0.0000
   230 C75       4.0394    2.6951    7.7447   C.3       1 RES1   0.0000
   231 C76       4.7903    1.3710    7.6372   C.3       1 RES1   0.0000
   232 C77       6.0745    1.4409    6.7976   C.3       1 RES1   0.0000
   233 C78       5.9105    0.9389    5.3589   C.3       1 RES1   0.0000
   234 C79       4.9270    1.7831    4.5184   C.3       1 RES1   0.0000
   235 C80       3.6378    1.0045    4.1936   C.3       1 RES1   0.0000
   236 N5        2.7107    1.6615    3.2516   N.am      1 RES1   0.0000
   237 C81       2.5485    3.0645    3.6969   C.3       1 RES1   0.0000
   238 C82       1.6525    4.1678    3.0758   C.3       1 RES1   0.0000
   239 C83       1.1714    5.0635    4.2407   C.3       1 RES1   0.0000
   240 C84      -0.1227    5.8320    3.9952   C.3       1 RES1   0.0000
   241 C85       2.5210    4.9699    2.0845   C.3       1 RES1   0.0000
   242 C86       2.0773    6.3754    1.6524   C.3       1 RES1   0.0000
   243 C87       0.8413    6.5256    0.7611   C.3       1 RES1   0.0000
   244 C88       0.4064    7.9872    0.6785   C.3       1 RES1   0.0000
   245 C89       1.9546    1.0105    2.3595   C.2       1 RES1   0.0000
   246 O7        1.0874    1.5536    1.6631   O.2       1 RES1   0.0000
   247 C90       2.0864   -0.5371    2.1736   C.3       1 RES1   0.0000
   248 O8        1.6344   -0.9444    0.8669   O.3       1 RES1   0.0000
   249 C91       2.6069   -1.6385    0.0776   C.3       1 RES1   0.0000
   250 C92       2.2722   -1.5362   -1.4285   C.2       1 RES1   0.0000
   251 O9        1.1867   -1.0371   -1.7863   O.2       1 RES1   0.0000
   252 N6        3.1955   -1.9075   -2.3185   N.am      1 RES1   0.0000
   253 C93       4.2538   -2.8326   -1.9630   C.3       1 RES1   0.0000
   254 C94       3.7176   -4.2581   -1.8022   C.3       1 RES1   0.0000
   255 C95       3.2963   -4.9027   -3.1328   C.3       1 RES1   0.0000
   256 C96       1.8189   -5.2945   -3.2163   C.3       1 RES1   0.0000
   257 C97       1.5115   -6.6217   -2.5198   C.3       1 RES1   0.0000
   258 C98       1.2392   -6.4741   -1.0272   C.3       1 RES1   0.0000
   259 C99       0.9324   -7.8091   -0.3495   C.3       1 RES1   0.0000
   260 C100     -0.1555   -8.6261   -1.0418   C.3       1 RES1   0.0000
   261 C101      2.9544   -1.4283   -3.6999   C.3       1 RES1   0.0000
   262 C102      3.7704   -1.8324   -4.9503   C.3       1 RES1   0.0000
   263 C103      3.4090   -0.8362   -6.0745   C.3       1 RES1   0.0000
   264 C104      1.9316   -0.6733   -6.3961   C.3       1 RES1   0.0000
   265 C105      5.3105   -1.8906   -4.9411   C.3       1 RES1   0.0000
   266 C106      6.0646   -0.6330   -4.4920   C.3       1 RES1   0.0000
   267 C107      7.4285   -0.5763   -5.1903   C.3       1 RES1   0.0000
   268 C108      8.2886    0.6281   -4.8260   C.3       1 RES1   0.0000
   269 H145      1.2778    3.8530    9.4855   H         1 RES1   0.0000
   270 H146      2.8473    4.6335    9.3073   H         1 RES1   0.0000
   271 H147      1.8384    4.3578    7.8874   H         1 RES1   0.0000
   272 H148      3.1301    2.1924    9.6211   H         1 RES1   0.0000
   273 H149      2.1021    1.8748    8.2265   H         1 RES1   0.0000
   274 H150      3.7120    3.0437    6.7632   H         1 RES1   0.0000
   275 H151      4.7069    3.4557    8.1499   H         1 RES1   0.0000
   276 H152      5.0460    1.0612    8.6496   H         1 RES1   0.0000
   277 H153      4.1298    0.6007    7.2340   H         1 RES1   0.0000
   278 H154      6.4547    2.4650    6.7874   H         1 RES1   0.0000
   279 H155      6.8391    0.8190    7.2667   H         1 RES1   0.0000
   280 H156      6.8966    0.9527    4.8886   H         1 RES1   0.0000
   281 H157      5.5774   -0.1002    5.3970   H         1 RES1   0.0000
   282 H158      4.7034    2.6720    5.1007   H         1 RES1   0.0000
   283 H159      5.4109    2.1061    3.5968   H         1 RES1   0.0000
   284 H160      3.9146    0.0253    3.8124   H         1 RES1   0.0000
   285 H161      3.0958    0.8493    5.1331   H         1 RES1   0.0000
   286 H162      2.2642    2.9624    4.7487   H         1 RES1   0.0000
   287 H163      3.5585    3.4759    3.6677   H         1 RES1   0.0000
   288 H164      0.7881    3.7239    2.5776   H         1 RES1   0.0000
   289 H165      0.9960    4.4427    5.1224   H         1 RES1   0.0000
   290 H166      1.9678    5.7616    4.5040   H         1 RES1   0.0000
   291 H167     -0.8998    5.1618    3.6443   H         1 RES1   0.0000
   292 H168     -0.4528    6.2725    4.9299   H         1 RES1   0.0000
   293 H169     -0.0196    6.6394    3.2871   H         1 RES1   0.0000
   294 H170      3.4836    5.1436    2.5744   H         1 RES1   0.0000
   295 H171      2.7257    4.3353    1.2219   H         1 RES1   0.0000
   296 H172      1.9447    6.9790    2.5481   H         1 RES1   0.0000
   297 H173      2.9176    6.8198    1.1138   H         1 RES1   0.0000
   298 H174      1.0668    6.1776   -0.2504   H         1 RES1   0.0000
   299 H175      0.0002    5.9350    1.1344   H         1 RES1   0.0000
   300 H176      1.2383    8.6123    0.3674   H         1 RES1   0.0000
   301 H177     -0.4022    8.1023   -0.0379   H         1 RES1   0.0000
   302 H178      0.0555    8.3476    1.6429   H         1 RES1   0.0000
   303 H179      3.0906   -0.9157    2.3502   H         1 RES1   0.0000
   304 H180      1.3958   -0.9890    2.8998   H         1 RES1   0.0000
   305 H181      3.5858   -1.1660    0.1993   H         1 RES1   0.0000
   306 H182      2.6582   -2.6853    0.4128   H         1 RES1   0.0000
   307 H183      5.0069   -2.8039   -2.7400   H         1 RES1   0.0000
   308 H184      4.7205   -2.5065   -1.0309   H         1 RES1   0.0000
   309 H185      4.4981   -4.8478   -1.3266   H         1 RES1   0.0000
   310 H186      2.8688   -4.2230   -1.1232   H         1 RES1   0.0000
   311 H187      3.5198   -4.2169   -3.9458   H         1 RES1   0.0000
   312 H188      3.8907   -5.7982   -3.3155   H         1 RES1   0.0000
   313 H189      1.1969   -4.4978   -2.7933   H         1 RES1   0.0000
   314 H190      1.5612   -5.3897   -4.2727   H         1 RES1   0.0000
   315 H191      0.6435   -7.0772   -2.9948   H         1 RES1   0.0000
   316 H192      2.3526   -7.3011   -2.6621   H         1 RES1   0.0000
   317 H193      2.1171   -6.0519   -0.5385   H         1 RES1   0.0000
   318 H194      0.4085   -5.7758   -0.8774   H         1 RES1   0.0000
   319 H195      1.8500   -8.3981   -0.3232   H         1 RES1   0.0000
   320 H196      0.6368   -7.6094    0.6838   H         1 RES1   0.0000
   321 H197      0.2029   -9.0340   -1.9837   H         1 RES1   0.0000
   322 H198     -0.4432   -9.4628   -0.4101   H         1 RES1   0.0000
   323 H199     -1.0424   -8.0235   -1.2388   H         1 RES1   0.0000
   324 H200      1.9252   -1.7129   -3.9312   H         1 RES1   0.0000
   325 H201      2.9829   -0.3406   -3.6141   H         1 RES1   0.0000
   326 H202      3.4248   -2.8172   -5.2778   H         1 RES1   0.0000
   327 H203      3.8328    0.1360   -5.8261   H         1 RES1   0.0000
   328 H204      3.9123   -1.1744   -6.9801   H         1 RES1   0.0000
   329 H205      1.3597   -0.3380   -5.5341   H         1 RES1   0.0000
   330 H206      1.8103    0.0742   -7.1768   H         1 RES1   0.0000
   331 H207      1.5170   -1.6065   -6.7582   H         1 RES1   0.0000
   332 H208      5.7023   -2.7518   -4.3966   H         1 RES1   0.0000
   333 H209      5.5768   -2.0807   -5.9828   H         1 RES1   0.0000
   334 H210      5.5105    0.2696   -4.7506   H         1 RES1   0.0000
   335 H211      6.1940   -0.6296   -3.4094   H         1 RES1   0.0000
   336 H212      7.9789   -1.4925   -4.9731   H         1 RES1   0.0000
   337 H213      7.2536   -0.5439   -6.2666   H         1 RES1   0.0000
   338 H214      8.6835    0.5563   -3.8176   H         1 RES1   0.0000
   339 H215      9.1312    0.6845   -5.5106   H         1 RES1   0.0000
   340 H216      7.7193    1.5493   -4.9147   H         1 RES1   0.0000
@<TRIPOS>BOND
     1     1    20    1
     2     1    22    1
     3     1    25    1
     4     1   133    1
     5     1   135    1
     6     1   138    1
     7     1   246    1
     8     1   248    1
     9     1   251    1
    10     2     3    1
    11     2    43    1
    12     2    44    1
    13     2    45    1
    14     3     4    1
    15     3    46    1
    16     3    47    1
    17     4     5    1
    18     4    48    1
    19     4    49    1
    20     5     6    1
    21     5    50    1
    22     5    51    1
    23     6     7    1
    24     6    52    1
    25     6    53    1
    26     7     8    1
    27     7    54    1
    28     7    55    1
    29     8     9    1
    30     8    56    1
    31     8    57    1
    32     9    10    1
    33     9    58    1
    34     9    59    1
    35    10    11    1
    36    10    19    1
    37    11    12    1
    38    11    60    1
    39    11    61    1
    40    12    13    1
    41    12    15    1
    42    12    62    1
    43    13    14    1
    44    13    63    1
    45    13    64    1
    46    14    65    1
    47    14    66    1
    48    14    67    1
    49    15    16    1
    50    15    68    1
    51    15    69    1
    52    16    17    1
    53    16    70    1
    54    16    71    1
    55    17    18    1
    56    17    72    1
    57    17    73    1
    58    18    74    1
    59    18    75    1
    60    18    76    1
    61    19    20    2
    62    19    21    1
    63    21    22    1
    64    21    77    1
    65    21    78    1
    66    22    23    1
    67    23    24    1
    68    23    79    1
    69    23    80    1
    70    24    25    2
    71    24    26    1
    72    26    27    1
    73    26    35    1
    74    27    28    1
    75    27    81    1
    76    27    82    1
    77    28    29    1
    78    28    83    1
    79    28    84    1
    80    29    30    1
    81    29    85    1
    82    29    86    1
    83    30    31    1
    84    30    87    1
    85    30    88    1
    86    31    32    1
    87    31    89    1
    88    31    90    1
    89    32    33    1
    90    32    91    1
    91    32    92    1
    92    33    34    1
    93    33    93    1
    94    33    94    1
    95    34    95    1
    96    34    96    1
    97    34    97    1
    98    35    36    1
    99    35    98    1
   100    35    99    1
   101    36    37    1
   102    36    39    1
   103    36   100    1
   104    37    38    1
   105    37   101    1
   106    37   102    1
   107    38   103    1
   108    38   104    1
   109    38   105    1
   110    39    40    1
   111    39   106    1
   112    39   107    1
   113    40    41    1
   114    40   108    1
   115    40   109    1
   116    41    42    1
   117    41   110    1
   118    41   111    1
   119    42   112    1
   120    42   113    1
   121    42   114    1
   122   115   116    1
   123   115   156    1
   124   115   157    1
   125   115   158    1
   126   116   117    1
   127   116   159    1
   128   116   160    1
   129   117   118    1
   130   117   161    1
   131   117   162    1
   132   118   119    1
   133   118   163    1
   134   118   164    1
   135   119   120    1
   136   119   165    1
   137   119   166    1
   138   120   121    1
   139   120   167    1
   140   120   168    1
   141   121   122    1
   142   121   169    1
   143   121   170    1
   144   122   123    1
   145   122   171    1
   146   122   172    1
   147   123   124    1
   148   123   132    1
   149   124   125    1
   150   124   173    1
   151   124   174    1
   152   125   126    1
   153   125   128    1
   154   125   175    1
   155   126   127    1
   156   126   176    1
   157   126   177    1
   158   127   178    1
   159   127   179    1
   160   127   180    1
   161   128   129    1
   162   128   181    1
   163   128   182    1
   164   129   130    1
   165   129   183    1
   166   129   184    1
   167   130   131    1
   168   130   185    1
   169   130   186    1
   170   131   187    1
   171   131   188    1
   172   131   189    1
   173   132   133    2
   174   132   134    1
   175   134   135    1
   176   134   190    1
   177   134   191    1
   178   135   136    1
   179   136   137    1
   180   136   192    1
   181   136   193    1
   182   137   138    2
   183   137   139    1
   184   139   140    1
   185   139   148    1
   186   140   141    1
   187   140   194    1
   188   140   195    1
   189   141   142    1
   190   141   196    1
   191   141   197    1
   192   142   143    1
   193   142   198    1
   194   142   199    1
   195   143   144    1
   196   143   200    1
   197   143   201    1
   198   144   145    1
   199   144   202    1
   200   144   203    1
   201   145   146    1
   202   145   204    1
   203   145   205    1
   204   146   147    1
   205   146   206    1
   206   146   207    1
   207   147   208    1
   208   147   209    1
   209   147   210    1
   210   148   149    1
   211   148   211    1
   212   148   212    1
   213   149   150    1
   214   149   152    1
   215   149   213    1
   216   150   151    1
   217   150   214    1
   218   150   215    1
   219   151   216    1
   220   151   217    1
   221   151   218    1
   222   152   153    1
   223   152   219    1
   224   152   220    1
   225   153   154    1
   226   153   221    1
   227   153   222    1
   228   154   155    1
   229   154   223    1
   230   154   224    1
   231   155   225    1
   232   155   226    1
   233   155   227    1
   234   228   229    1
   235   228   269    1
   236   228   270    1
   237   228   271    1
   238   229   230    1
   239   229   272    1
   240   229   273    1
   241   230   231    1
   242   230   274    1
   243   230   275    1
   244   231   232    1
   245   231   276    1
   246   231   277    1
   247   232   233    1
   248   232   278    1
   249   232   279    1
   250   233   234    1
   251   233   280    1
   252   233   281    1
   253   234   235    1
   254   234   282    1
   255   234   283    1
   256   235   236    1
   257   235   284    1
   258   235   285    1
   259   236   237    1
   260   236   245    1
   261   237   238    1
   262   237   286    1
   263   237   287    1
   264   238   239    1
   265   238   241    1
   266   238   288    1
   267   239   240    1
   268   239   289    1
   269   239   290    1
   270   240   291    1
   271   240   292    1
   272   240   293    1
   273   241   242    1
   274   241   294    1
   275   241   295    1
   276   242   243    1
   277   242   296    1
   278   242   297    1
   279   243   244    1
   280   243   298    1
   281   243   299    1
   282   244   300    1
   283   244   301    1
   284   244   302    1
   285   245   246    2
   286   245   247    1
   287   247   248    1
   288   247   303    1
   289   247   304    1
   290   248   249    1
   291   249   250    1
   292   249   305    1
   293   249   306    1
   294   250   251    2
   295   250   252    1
   296   252   253    1
   297   252   261    1
   298   253   254    1
   299   253   307    1
   300   253   308    1
   301   254   255    1
   302   254   309    1
   303   254   310    1
   304   255   256    1
   305   255   311    1
   306   255   312    1
   307   256   257    1
   308   256   313    1
   309   256   314    1
   310   257   258    1
   311   257   315    1
   312   257   316    1
   313   258   259    1
   314   258   317    1
   315   258   318    1
   316   259   260    1
   317   259   319    1
   318   259   320    1
   319   260   321    1
   320   260   322    1
   321   260   323    1
   322   261   262    1
   323   261   324    1
   324   261   325    1
   325   262   263    1
   326   262   265    1
   327   262   326    1
   328   263   264    1
   329   263   327    1
   330   263   328    1
   331   264   329    1
   332   264   330    1
   333   264   331    1
   334   265   266    1
   335   265   332    1
   336   265   333    1
   337   266   267    1
   338   266   334    1
   339   266   335    1
   340   267   268    1
   341   267   336    1
   342   267   337    1
   343   268   338    1
   344   268   339    1
   345   268   340    1
@<TRIPOS>SUBSTRUCTURE
     1 RES1      340 GROUP             0 ****  ****    0  
