@<TRIPOS>MOLECULE
cn9_YICLED_0_nunpairedes_0_charge_3 Charge: 3 Unpaired_Electrons: 6 XTB_Unpaired_Electrons: 0 XTB_Charge: 3
   295   300     1     0     0
SMALL
NoCharges
****
Generated from Architector

@<TRIPOS>ATOM
     1 Eu1      -0.1838   -0.2096   -0.0048   Eu        1 RES1   0.0000
     2 C1        1.3209    3.7062    8.1369   C.3       1 RES1   0.0000
     3 C2        0.8975    3.8726    6.6793   C.3       1 RES1   0.0000
     4 C3        0.1425    2.6421    6.1583   C.3       1 RES1   0.0000
     5 C4       -0.6648    2.8940    4.8721   C.3       1 RES1   0.0000
     6 N1        0.0282    2.5362    3.6449   N.am      1 RES1   0.0000
     7 C5        1.3195    3.1733    3.4186   C.3       1 RES1   0.0000
     8 C6        1.3199    4.6882    3.2469   C.3       1 RES1   0.0000
     9 C7        0.7323    5.1804    1.9268   C.3       1 RES1   0.0000
    10 C8       -0.7855    5.0532    1.8409   C.3       1 RES1   0.0000
    11 C9       -0.4096    1.6757    2.7354   C.2       1 RES1   0.0000
    12 O1        0.1289    1.5624    1.6162   O.2       1 RES1   0.0000
    13 C10      -1.5785    0.7311    3.0584   C.3       1 RES1   0.0000
    14 O2       -1.5326   -0.2667    2.0512   O.3       1 RES1   0.0000
    15 C11      -2.0565   -1.5453    2.4049   C.3       1 RES1   0.0000
    16 C12      -1.0867   -2.6170    1.8745   C.2       1 RES1   0.0000
    17 O3       -0.0845   -2.2160    1.2682   O.2       1 RES1   0.0000
    18 N2       -1.3366   -3.9135    2.0238   N.am      1 RES1   0.0000
    19 C13      -2.1778   -4.6410    2.9546   C.3       1 RES1   0.0000
    20 C14      -1.3762   -5.7350    3.6792   C.3       1 RES1   0.0000
    21 C15      -1.1146   -6.9745    2.8182   C.3       1 RES1   0.0000
    22 C16      -0.2801   -8.0360    3.5427   C.3       1 RES1   0.0000
    23 C17       1.1780   -7.6106    3.7892   C.3       1 RES1   0.0000
    24 C18       2.2096   -8.3505    2.9185   C.3       1 RES1   0.0000
    25 N3        2.7647   -7.5665    1.8291   N.am      1 RES1   0.0000
    26 C19       4.0893   -7.2790    1.7571   C.2       1 RES1   0.0000
    27 O4        4.8603   -7.4802    2.6624   O.2       1 RES1   0.0000
    28 C20       4.5729   -6.7401    0.3887   C.3       1 RES1   0.0000
    29 O5        5.3358   -5.5612    0.5298   O.3       1 RES1   0.0000
    30 C21       6.3729   -5.4012   -0.4154   C.3       1 RES1   0.0000
    31 C22       7.2519   -4.2274    0.0428   C.2       1 RES1   0.0000
    32 O6        7.1021   -3.7443    1.1482   O.2       1 RES1   0.0000
    33 N4        8.1598   -3.7435   -0.8314   N.am      1 RES1   0.0000
    34 C23       8.2297   -4.0942   -2.2323   C.3       1 RES1   0.0000
    35 C24       7.2452   -3.2900   -3.1053   C.3       1 RES1   0.0000
    36 C25       7.6816   -1.8442   -3.3600   C.3       1 RES1   0.0000
    37 C26       6.6592   -1.0561   -4.1765   C.3       1 RES1   0.0000
    38 C27       9.0066   -2.6511   -0.3653   C.3       1 RES1   0.0000
    39 C28      10.2287   -3.0780    0.4527   C.3       1 RES1   0.0000
    40 C29       9.9657   -3.0728    1.9694   C.3       1 RES1   0.0000
    41 C30       9.9421   -4.4715    2.5697   C.3       1 RES1   0.0000
    42 H1        1.8894    4.5750    8.4609   H         1 RES1   0.0000
    43 H2        0.4532    3.6046    8.7837   H         1 RES1   0.0000
    44 H3        1.9416    2.8224    8.2618   H         1 RES1   0.0000
    45 H4        0.2505    4.7500    6.6052   H         1 RES1   0.0000
    46 H5        1.7919    4.0620    6.0822   H         1 RES1   0.0000
    47 H6        0.8419    1.8168    6.0133   H         1 RES1   0.0000
    48 H7       -0.5516    2.3351    6.9414   H         1 RES1   0.0000
    49 H8       -1.6016    2.3467    4.9222   H         1 RES1   0.0000
    50 H9       -0.9125    3.9592    4.8217   H         1 RES1   0.0000
    51 H10       1.9288    2.9054    4.2821   H         1 RES1   0.0000
    52 H11       1.7388    2.7069    2.5259   H         1 RES1   0.0000
    53 H12       0.8136    5.1699    4.0796   H         1 RES1   0.0000
    54 H13       2.3646    4.9954    3.2952   H         1 RES1   0.0000
    55 H14       1.0057    6.2288    1.8103   H         1 RES1   0.0000
    56 H15       1.1921    4.6309    1.1006   H         1 RES1   0.0000
    57 H16      -1.2517    5.4453    2.7410   H         1 RES1   0.0000
    58 H17      -1.1633    5.6272    0.9981   H         1 RES1   0.0000
    59 H18      -1.0859    4.0166    1.7110   H         1 RES1   0.0000
    60 H19      -1.4209    0.2960    4.0528   H         1 RES1   0.0000
    61 H20      -2.5591    1.2339    3.0378   H         1 RES1   0.0000
    62 H21      -2.1804   -1.5871    3.4893   H         1 RES1   0.0000
    63 H22      -3.0003   -1.6952    1.8656   H         1 RES1   0.0000
    64 H23      -0.6692   -4.5368    1.5425   H         1 RES1   0.0000
    65 H24      -2.6056   -3.9385    3.6723   H         1 RES1   0.0000
    66 H25      -2.9819   -5.1372    2.3999   H         1 RES1   0.0000
    67 H26      -0.4280   -5.3223    4.0181   H         1 RES1   0.0000
    68 H27      -1.9398   -6.0369    4.5616   H         1 RES1   0.0000
    69 H28      -2.0744   -7.4084    2.5316   H         1 RES1   0.0000
    70 H29      -0.5889   -6.6923    1.9131   H         1 RES1   0.0000
    71 H30      -0.7627   -8.2817    4.4899   H         1 RES1   0.0000
    72 H31      -0.2936   -8.9472    2.9409   H         1 RES1   0.0000
    73 H32       1.2859   -6.5409    3.6120   H         1 RES1   0.0000
    74 H33       1.4238   -7.8052    4.8311   H         1 RES1   0.0000
    75 H34       3.0629   -8.6530    3.5256   H         1 RES1   0.0000
    76 H35       1.7587   -9.2495    2.4908   H         1 RES1   0.0000
    77 H36       2.1348   -7.3055    1.0872   H         1 RES1   0.0000
    78 H37       5.1844   -7.5525   -0.0340   H         1 RES1   0.0000
    79 H38       3.7177   -6.5550   -0.2831   H         1 RES1   0.0000
    80 H39       6.9921   -6.3089   -0.4707   H         1 RES1   0.0000
    81 H40       5.9587   -5.2008   -1.4166   H         1 RES1   0.0000
    82 H41       9.2458   -3.9123   -2.5815   H         1 RES1   0.0000
    83 H42       8.0289   -5.1559   -2.3593   H         1 RES1   0.0000
    84 H43       7.1387   -3.7948   -4.0678   H         1 RES1   0.0000
    85 H44       6.2605   -3.2825   -2.6285   H         1 RES1   0.0000
    86 H45       7.8192   -1.3267   -2.4100   H         1 RES1   0.0000
    87 H46       8.6367   -1.8460   -3.8884   H         1 RES1   0.0000
    88 H47       5.7213   -0.9795   -3.6239   H         1 RES1   0.0000
    89 H48       7.0311   -0.0510   -4.3647   H         1 RES1   0.0000
    90 H49       6.4676   -1.5357   -5.1341   H         1 RES1   0.0000
    91 H50       9.3237   -2.0914   -1.2406   H         1 RES1   0.0000
    92 H51       8.3910   -2.0114    0.2705   H         1 RES1   0.0000
    93 H52      10.5491   -4.0679    0.1280   H         1 RES1   0.0000
    94 H53      11.0306   -2.3764    0.2248   H         1 RES1   0.0000
    95 H54      10.7206   -2.4651    2.4711   H         1 RES1   0.0000
    96 H55       8.9929   -2.6197    2.1687   H         1 RES1   0.0000
    97 H56      10.8787   -4.9929    2.3952   H         1 RES1   0.0000
    98 H57       9.7743   -4.4216    3.6426   H         1 RES1   0.0000
    99 H58       9.1308   -5.0402    2.1241   H         1 RES1   0.0000
   100 C31      -3.8673    6.3125   -4.4700   C.3       1 RES1   0.0000
   101 C32      -2.4018    6.1105   -4.0970   C.3       1 RES1   0.0000
   102 C33      -2.1028    4.6263   -3.9037   C.3       1 RES1   0.0000
   103 C34      -0.6381    4.3535   -3.5722   C.3       1 RES1   0.0000
   104 N5       -0.4014    2.9190   -3.4800   N.am      1 RES1   0.0000
   105 C35       0.0451    2.3028   -4.7283   C.3       1 RES1   0.0000
   106 C36      -0.6188    1.0009   -5.1722   C.3       1 RES1   0.0000
   107 C37      -2.0780    1.1566   -5.6184   C.3       1 RES1   0.0000
   108 C38      -3.0581    1.1093   -4.4529   C.3       1 RES1   0.0000
   109 C39      -0.5603    2.2414   -2.3504   C.2       1 RES1   0.0000
   110 O7       -0.4036    1.0133   -2.2338   O.2       1 RES1   0.0000
   111 C40      -0.9550    2.9926   -1.0724   C.3       1 RES1   0.0000
   112 O8       -1.8003    2.1642   -0.2941   O.3       1 RES1   0.0000
   113 C41      -3.1670    2.1633   -0.7233   C.3       1 RES1   0.0000
   114 C42      -3.5995    0.7189   -1.0611   C.2       1 RES1   0.0000
   115 O9       -2.9469   -0.1756   -0.5355   O.2       1 RES1   0.0000
   116 N6       -4.6862    0.5432   -1.8206   N.am      1 RES1   0.0000
   117 C43      -5.4479   -0.7090   -1.8580   C.3       1 RES1   0.0000
   118 C44      -5.0487   -1.7038   -2.9590   C.3       1 RES1   0.0000
   119 C45      -5.8320   -3.0316   -2.8407   C.3       1 RES1   0.0000
   120 C46      -5.4529   -4.2146   -3.7842   C.3       1 RES1   0.0000
   121 C47      -5.3376   -5.6371   -3.1561   C.3       1 RES1   0.0000
   122 C48      -4.0450   -6.2280   -2.5201   C.3       1 RES1   0.0000
   123 N7       -2.8732   -6.1683   -3.3815   N.am      1 RES1   0.0000
   124 C49      -1.5304   -6.1403   -3.1577   C.2       1 RES1   0.0000
   125 O10      -0.7651   -6.1344   -4.1043   O.2       1 RES1   0.0000
   126 C50      -0.9371   -6.0534   -1.7381   C.3       1 RES1   0.0000
   127 O11      -0.2230   -4.8316   -1.5928   O.3       1 RES1   0.0000
   128 C51       1.1613   -4.8815   -1.2993   C.3       1 RES1   0.0000
   129 C52       1.4198   -4.8846    0.2234   C.2       1 RES1   0.0000
   130 O12       0.6272   -5.5259    0.9169   O.2       1 RES1   0.0000
   131 N8        2.4614   -4.2361    0.7435   N.am      1 RES1   0.0000
   132 C53       2.7296   -4.3473    2.1813   C.3       1 RES1   0.0000
   133 C54       1.8059   -3.4003    2.9522   C.3       1 RES1   0.0000
   134 C55       1.8565   -3.2881    4.4772   C.3       1 RES1   0.0000
   135 C56       0.6339   -2.4838    4.9280   C.3       1 RES1   0.0000
   136 C57       3.2426   -3.3615   -0.1119   C.3       1 RES1   0.0000
   137 C58       4.3390   -2.5381    0.5416   C.3       1 RES1   0.0000
   138 C59       4.7805   -1.5349   -0.5215   C.3       1 RES1   0.0000
   139 C60       5.9519   -0.6477   -0.1264   C.3       1 RES1   0.0000
   140 H59      -4.0771    7.3678   -4.6126   H         1 RES1   0.0000
   141 H60      -4.5257    5.9322   -3.6902   H         1 RES1   0.0000
   142 H61      -4.0956    5.7886   -5.3948   H         1 RES1   0.0000
   143 H62      -2.1770    6.6586   -3.1785   H         1 RES1   0.0000
   144 H63      -1.7615    6.5054   -4.8878   H         1 RES1   0.0000
   145 H64      -2.3667    4.0875   -4.8150   H         1 RES1   0.0000
   146 H65      -2.7391    4.2454   -3.1005   H         1 RES1   0.0000
   147 H66      -0.3425    4.8667   -2.6604   H         1 RES1   0.0000
   148 H67      -0.0046    4.7600   -4.3583   H         1 RES1   0.0000
   149 H68       1.1245    2.1355   -4.6594   H         1 RES1   0.0000
   150 H69      -0.1187    3.0377   -5.5153   H         1 RES1   0.0000
   151 H70      -0.5431    0.2491   -4.3828   H         1 RES1   0.0000
   152 H71      -0.0405    0.6656   -6.0374   H         1 RES1   0.0000
   153 H72      -2.3226    0.3564   -6.3204   H         1 RES1   0.0000
   154 H73      -2.2018    2.0963   -6.1622   H         1 RES1   0.0000
   155 H74      -2.9051    0.2095   -3.8620   H         1 RES1   0.0000
   156 H75      -4.0814    1.1126   -4.8198   H         1 RES1   0.0000
   157 H76      -2.9147    1.9676   -3.8034   H         1 RES1   0.0000
   158 H77      -1.4453    3.9518   -1.2304   H         1 RES1   0.0000
   159 H78      -0.0482    3.1416   -0.4722   H         1 RES1   0.0000
   160 H79      -3.3254    2.8879   -1.5241   H         1 RES1   0.0000
   161 H80      -3.7688    2.4680    0.1434   H         1 RES1   0.0000
   162 H81      -5.0968    1.3391   -2.2851   H         1 RES1   0.0000
   163 H82      -6.5058   -0.4551   -1.9260   H         1 RES1   0.0000
   164 H83      -5.2497   -1.1797   -0.9010   H         1 RES1   0.0000
   165 H84      -3.9816   -1.8461   -2.8175   H         1 RES1   0.0000
   166 H85      -5.2335   -1.2546   -3.9350   H         1 RES1   0.0000
   167 H86      -6.8749   -2.7761   -3.0232   H         1 RES1   0.0000
   168 H87      -5.8034   -3.3569   -1.8058   H         1 RES1   0.0000
   169 H88      -4.5709   -4.0032   -4.3839   H         1 RES1   0.0000
   170 H89      -6.2722   -4.3074   -4.5007   H         1 RES1   0.0000
   171 H90      -5.6131   -6.3331   -3.9496   H         1 RES1   0.0000
   172 H91      -6.1127   -5.7384   -2.3936   H         1 RES1   0.0000
   173 H92      -4.2733   -7.2843   -2.3165   H         1 RES1   0.0000
   174 H93      -3.8176   -5.7714   -1.5600   H         1 RES1   0.0000
   175 H94      -3.0755   -6.4251   -4.3436   H         1 RES1   0.0000
   176 H95      -0.2624   -6.9093   -1.6352   H         1 RES1   0.0000
   177 H96      -1.6938   -6.1234   -0.9560   H         1 RES1   0.0000
   178 H97       1.5928   -3.9947   -1.7605   H         1 RES1   0.0000
   179 H98       1.6283   -5.7719   -1.7480   H         1 RES1   0.0000
   180 H99       3.7919   -4.1942    2.3413   H         1 RES1   0.0000
   181 H100      2.5018   -5.3732    2.4636   H         1 RES1   0.0000
   182 H101      0.8091   -3.7505    2.7194   H         1 RES1   0.0000
   183 H102      1.8928   -2.4011    2.5225   H         1 RES1   0.0000
   184 H103      2.7518   -2.7764    4.8207   H         1 RES1   0.0000
   185 H104      1.8497   -4.2673    4.9549   H         1 RES1   0.0000
   186 H105      0.5908   -1.5443    4.3726   H         1 RES1   0.0000
   187 H106      0.6721   -2.2711    5.9935   H         1 RES1   0.0000
   188 H107     -0.2794   -3.0417    4.7298   H         1 RES1   0.0000
   189 H108      2.5356   -2.6522   -0.5657   H         1 RES1   0.0000
   190 H109      3.7022   -3.9692   -0.8987   H         1 RES1   0.0000
   191 H110      5.1703   -3.1618    0.8630   H         1 RES1   0.0000
   192 H111      3.9356   -2.0063    1.3939   H         1 RES1   0.0000
   193 H112      3.9018   -0.9376   -0.7699   H         1 RES1   0.0000
   194 H113      5.0599   -2.0928   -1.4169   H         1 RES1   0.0000
   195 H114      5.9314   -0.4133    0.9306   H         1 RES1   0.0000
   196 H115      5.9633    0.2822   -0.6928   H         1 RES1   0.0000
   197 H116      6.8805   -1.1600   -0.3363   H         1 RES1   0.0000
   198 C61       5.6423    2.8047    5.9199   C.3       1 RES1   0.0000
   199 C62       4.7153    2.6367    4.7153   C.3       1 RES1   0.0000
   200 C63       5.5133    2.2315    3.4723   C.3       1 RES1   0.0000
   201 C64       4.7168    1.8841    2.2142   C.3       1 RES1   0.0000
   202 N9        3.8444    0.7045    2.2273   N.am      1 RES1   0.0000
   203 C65       3.8795   -0.2890    3.3173   C.3       1 RES1   0.0000
   204 C66       5.2734   -0.8224    3.7148   C.3       1 RES1   0.0000
   205 C67       5.3328   -2.3061    4.1084   C.3       1 RES1   0.0000
   206 C68       6.6444   -2.6947    4.7889   C.3       1 RES1   0.0000
   207 C69       2.9674    0.5621    1.2258   C.2       1 RES1   0.0000
   208 O13       2.0420   -0.2639    1.2171   O.2       1 RES1   0.0000
   209 C70       3.1081    1.4881   -0.0180   C.3       1 RES1   0.0000
   210 O14       2.1557    1.1352   -1.0241   O.3       1 RES1   0.0000
   211 C71       2.6320    0.6306   -2.2730   C.3       1 RES1   0.0000
   212 C72       1.9410   -0.7123   -2.5442   C.2       1 RES1   0.0000
   213 O15       1.2036   -1.1622   -1.6534   O.2       1 RES1   0.0000
   214 N10       2.1294   -1.4439   -3.6361   N.am      1 RES1   0.0000
   215 C73       2.8041   -1.2962   -4.9147   C.3       1 RES1   0.0000
   216 C74       2.4526   -2.4817   -5.8229   C.3       1 RES1   0.0000
   217 C75       0.9711   -2.4899   -6.2368   C.3       1 RES1   0.0000
   218 C76       0.0321   -3.3156   -5.3356   C.3       1 RES1   0.0000
   219 C77      -1.3504   -2.6673   -5.2576   C.3       1 RES1   0.0000
   220 C78      -2.1864   -3.1595   -4.0854   C.3       1 RES1   0.0000
   221 N11      -1.6331   -2.6755   -2.8349   N.am      1 RES1   0.0000
   222 C79      -1.9970   -2.6210   -1.5518   C.2       1 RES1   0.0000
   223 O16      -1.2815   -1.9370   -0.8130   O.2       1 RES1   0.0000
   224 C80      -3.1303   -3.4368   -0.9263   C.3       1 RES1   0.0000
   225 O17      -3.8566   -2.7045    0.0585   O.3       1 RES1   0.0000
   226 C81      -4.8193   -3.4600    0.8056   C.3       1 RES1   0.0000
   227 C82      -6.0939   -2.6034    1.0289   C.2       1 RES1   0.0000
   228 O18      -6.7396   -2.2797    0.0492   O.2       1 RES1   0.0000
   229 N12      -6.4435   -2.1818    2.2607   N.am      1 RES1   0.0000
   230 C83      -7.5427   -1.2187    2.3190   C.3       1 RES1   0.0000
   231 C84      -7.2455    0.1341    1.6696   C.3       1 RES1   0.0000
   232 C85      -6.0539    0.8908    2.2586   C.3       1 RES1   0.0000
   233 C86      -5.9742    2.3012    1.6757   C.3       1 RES1   0.0000
   234 C87      -6.0679   -2.7908    3.5215   C.3       1 RES1   0.0000
   235 C88      -4.8174   -2.1190    4.0826   C.3       1 RES1   0.0000
   236 C89      -4.3980   -2.5364    5.4970   C.3       1 RES1   0.0000
   237 C90      -5.1009   -1.7248    6.5793   C.3       1 RES1   0.0000
   238 H117      5.0815    3.1421    6.7883   H         1 RES1   0.0000
   239 H118      6.1255    1.8642    6.1755   H         1 RES1   0.0000
   240 H119      6.4201    3.5338    5.7106   H         1 RES1   0.0000
   241 H120      3.9654    1.8835    4.9678   H         1 RES1   0.0000
   242 H121      4.2002    3.5840    4.5266   H         1 RES1   0.0000
   243 H122      6.1394    3.0842    3.1991   H         1 RES1   0.0000
   244 H123      6.1908    1.4258    3.7284   H         1 RES1   0.0000
   245 H124      4.0837    2.7479    1.9952   H         1 RES1   0.0000
   246 H125      5.4433    1.7723    1.4026   H         1 RES1   0.0000
   247 H126      3.4052    0.1545    4.1941   H         1 RES1   0.0000
   248 H127      3.2450   -1.1099    2.9893   H         1 RES1   0.0000
   249 H128      5.9781   -0.6765    2.9009   H         1 RES1   0.0000
   250 H129      5.6191   -0.2619    4.5805   H         1 RES1   0.0000
   251 H130      4.5340   -2.5250    4.8128   H         1 RES1   0.0000
   252 H131      5.2123   -2.9495    3.2393   H         1 RES1   0.0000
   253 H132      6.8019   -2.1301    5.7047   H         1 RES1   0.0000
   254 H133      6.6013   -3.7506    5.0452   H         1 RES1   0.0000
   255 H134      7.4982   -2.5465    4.1358   H         1 RES1   0.0000
   256 H135      2.9044    2.5318    0.2535   H         1 RES1   0.0000
   257 H136      4.1294    1.4449   -0.4020   H         1 RES1   0.0000
   258 H137      2.3993    1.3675   -3.0490   H         1 RES1   0.0000
   259 H138      3.7136    0.4874   -2.2685   H         1 RES1   0.0000
   260 H139      1.6107   -2.3183   -3.5932   H         1 RES1   0.0000
   261 H140      2.4682   -0.3750   -5.3940   H         1 RES1   0.0000
   262 H141      3.8853   -1.2495   -4.7753   H         1 RES1   0.0000
   263 H142      3.0680   -2.4145   -6.7201   H         1 RES1   0.0000
   264 H143      2.7057   -3.4296   -5.3467   H         1 RES1   0.0000
   265 H144      0.6222   -1.4537   -6.2571   H         1 RES1   0.0000
   266 H145      0.8702   -2.8759   -7.2519   H         1 RES1   0.0000
   267 H146     -0.0806   -4.3279   -5.7286   H         1 RES1   0.0000
   268 H147      0.4350   -3.4325   -4.3249   H         1 RES1   0.0000
   269 H148     -1.2513   -1.5853   -5.1850   H         1 RES1   0.0000
   270 H149     -1.8820   -2.8815   -6.1846   H         1 RES1   0.0000
   271 H150     -3.1929   -2.7708   -4.2198   H         1 RES1   0.0000
   272 H151     -2.2127   -4.2418   -4.1016   H         1 RES1   0.0000
   273 H152     -0.7359   -2.2071   -2.9359   H         1 RES1   0.0000
   274 H153     -3.8113   -3.8145   -1.6867   H         1 RES1   0.0000
   275 H154     -2.5998   -4.2647   -0.4311   H         1 RES1   0.0000
   276 H155     -5.1353   -4.3357    0.2319   H         1 RES1   0.0000
   277 H156     -4.3744   -3.7953    1.7422   H         1 RES1   0.0000
   278 H157     -8.4046   -1.6585    1.8140   H         1 RES1   0.0000
   279 H158     -7.8002   -1.0665    3.3652   H         1 RES1   0.0000
   280 H159     -7.0918   -0.0014    0.5994   H         1 RES1   0.0000
   281 H160     -8.1421    0.7400    1.8042   H         1 RES1   0.0000
   282 H161     -6.1606    0.9654    3.3450   H         1 RES1   0.0000
   283 H162     -5.1263    0.3497    2.0386   H         1 RES1   0.0000
   284 H163     -6.8563    2.8735    1.9503   H         1 RES1   0.0000
   285 H164     -5.1008    2.8300    2.0570   H         1 RES1   0.0000
   286 H165     -5.9281    2.2615    0.5879   H         1 RES1   0.0000
   287 H166     -6.8975   -2.6737    4.2162   H         1 RES1   0.0000
   288 H167     -5.9067   -3.8613    3.3916   H         1 RES1   0.0000
   289 H168     -4.0233   -2.3627    3.3888   H         1 RES1   0.0000
   290 H169     -4.9679   -1.0376    4.0602   H         1 RES1   0.0000
   291 H170     -3.3148   -2.3896    5.6001   H         1 RES1   0.0000
   292 H171     -4.5967   -3.5995    5.6471   H         1 RES1   0.0000
   293 H172     -6.1691   -1.9168    6.5789   H         1 RES1   0.0000
   294 H173     -4.7083   -1.9889    7.5567   H         1 RES1   0.0000
   295 H174     -4.9457   -0.6587    6.4225   H         1 RES1   0.0000
@<TRIPOS>BOND
     1     1    12    1
     2     1    14    1
     3     1    17    1
     4     1   110    1
     5     1   112    1
     6     1   115    1
     7     1   208    1
     8     1   210    1
     9     1   213    1
    10     2     3    1
    11     2    42    1
    12     2    43    1
    13     2    44    1
    14     3     4    1
    15     3    45    1
    16     3    46    1
    17     4     5    1
    18     4    47    1
    19     4    48    1
    20     5     6    1
    21     5    49    1
    22     5    50    1
    23     6     7    1
    24     6    11    1
    25     7     8    1
    26     7    51    1
    27     7    52    1
    28     8     9    1
    29     8    53    1
    30     8    54    1
    31     9    10    1
    32     9    55    1
    33     9    56    1
    34    10    57    1
    35    10    58    1
    36    10    59    1
    37    11    12    2
    38    11    13    1
    39    13    14    1
    40    13    60    1
    41    13    61    1
    42    14    15    1
    43    15    16    1
    44    15    62    1
    45    15    63    1
    46    16    17    2
    47    16    18    1
    48    18    19    1
    49    18    64    1
    50    19    20    1
    51    19    65    1
    52    19    66    1
    53    20    21    1
    54    20    67    1
    55    20    68    1
    56    21    22    1
    57    21    69    1
    58    21    70    1
    59    22    23    1
    60    22    71    1
    61    22    72    1
    62    23    24    1
    63    23    73    1
    64    23    74    1
    65    24    25    1
    66    24    75    1
    67    24    76    1
    68    25    26    1
    69    25    77    1
    70    26    27    2
    71    26    28    1
    72    28    29    1
    73    28    78    1
    74    28    79    1
    75    29    30    1
    76    30    31    1
    77    30    80    1
    78    30    81    1
    79    31    32    2
    80    31    33    1
    81    33    34    1
    82    33    38    1
    83    34    35    1
    84    34    82    1
    85    34    83    1
    86    35    36    1
    87    35    84    1
    88    35    85    1
    89    36    37    1
    90    36    86    1
    91    36    87    1
    92    37    88    1
    93    37    89    1
    94    37    90    1
    95    38    39    1
    96    38    91    1
    97    38    92    1
    98    39    40    1
    99    39    93    1
   100    39    94    1
   101    40    41    1
   102    40    95    1
   103    40    96    1
   104    41    97    1
   105    41    98    1
   106    41    99    1
   107   100   101    1
   108   100   140    1
   109   100   141    1
   110   100   142    1
   111   101   102    1
   112   101   143    1
   113   101   144    1
   114   102   103    1
   115   102   145    1
   116   102   146    1
   117   103   104    1
   118   103   147    1
   119   103   148    1
   120   104   105    1
   121   104   109    1
   122   105   106    1
   123   105   149    1
   124   105   150    1
   125   106   107    1
   126   106   151    1
   127   106   152    1
   128   107   108    1
   129   107   153    1
   130   107   154    1
   131   108   155    1
   132   108   156    1
   133   108   157    1
   134   109   110    2
   135   109   111    1
   136   111   112    1
   137   111   158    1
   138   111   159    1
   139   112   113    1
   140   113   114    1
   141   113   160    1
   142   113   161    1
   143   114   115    2
   144   114   116    1
   145   116   117    1
   146   116   162    1
   147   117   118    1
   148   117   163    1
   149   117   164    1
   150   118   119    1
   151   118   165    1
   152   118   166    1
   153   119   120    1
   154   119   167    1
   155   119   168    1
   156   120   121    1
   157   120   169    1
   158   120   170    1
   159   121   122    1
   160   121   171    1
   161   121   172    1
   162   122   123    1
   163   122   173    1
   164   122   174    1
   165   123   124    1
   166   123   175    1
   167   124   125    2
   168   124   126    1
   169   126   127    1
   170   126   176    1
   171   126   177    1
   172   127   128    1
   173   128   129    1
   174   128   178    1
   175   128   179    1
   176   129   130    2
   177   129   131    1
   178   131   132    1
   179   131   136    1
   180   132   133    1
   181   132   180    1
   182   132   181    1
   183   133   134    1
   184   133   182    1
   185   133   183    1
   186   134   135    1
   187   134   184    1
   188   134   185    1
   189   135   186    1
   190   135   187    1
   191   135   188    1
   192   136   137    1
   193   136   189    1
   194   136   190    1
   195   137   138    1
   196   137   191    1
   197   137   192    1
   198   138   139    1
   199   138   193    1
   200   138   194    1
   201   139   195    1
   202   139   196    1
   203   139   197    1
   204   198   199    1
   205   198   238    1
   206   198   239    1
   207   198   240    1
   208   199   200    1
   209   199   241    1
   210   199   242    1
   211   200   201    1
   212   200   243    1
   213   200   244    1
   214   201   202    1
   215   201   245    1
   216   201   246    1
   217   202   203    1
   218   202   207    1
   219   203   204    1
   220   203   247    1
   221   203   248    1
   222   204   205    1
   223   204   249    1
   224   204   250    1
   225   205   206    1
   226   205   251    1
   227   205   252    1
   228   206   253    1
   229   206   254    1
   230   206   255    1
   231   207   208    2
   232   207   209    1
   233   209   210    1
   234   209   256    1
   235   209   257    1
   236   210   211    1
   237   211   212    1
   238   211   258    1
   239   211   259    1
   240   212   213    2
   241   212   214    1
   242   214   215    1
   243   214   260    1
   244   215   216    1
   245   215   261    1
   246   215   262    1
   247   216   217    1
   248   216   263    1
   249   216   264    1
   250   217   218    1
   251   217   265    1
   252   217   266    1
   253   218   219    1
   254   218   267    1
   255   218   268    1
   256   219   220    1
   257   219   269    1
   258   219   270    1
   259   220   221    1
   260   220   271    1
   261   220   272    1
   262   221   222    1
   263   221   273    1
   264   222   223    2
   265   222   224    1
   266   224   225    1
   267   224   274    1
   268   224   275    1
   269   225   226    1
   270   226   227    1
   271   226   276    1
   272   226   277    1
   273   227   228    2
   274   227   229    1
   275   229   230    1
   276   229   234    1
   277   230   231    1
   278   230   278    1
   279   230   279    1
   280   231   232    1
   281   231   280    1
   282   231   281    1
   283   232   233    1
   284   232   282    1
   285   232   283    1
   286   233   284    1
   287   233   285    1
   288   233   286    1
   289   234   235    1
   290   234   287    1
   291   234   288    1
   292   235   236    1
   293   235   289    1
   294   235   290    1
   295   236   237    1
   296   236   291    1
   297   236   292    1
   298   237   293    1
   299   237   294    1
   300   237   295    1
@<TRIPOS>SUBSTRUCTURE
     1 RES1      295 GROUP             0 ****  ****    0  
