@<TRIPOS>MOLECULE
am_c3_9H2O_c0_0_nunpairedes_0_charge_3 Charge: 3 Unpaired_Electrons: 6 XTB_Unpaired_Electrons: 0 XTB_Charge: 3
   268   273     1     0     0
SMALL
NoCharges
****
Generated from Architector

@<TRIPOS>ATOM
     1 Eu1      -0.2503   -0.0914    0.5976   Eu        1 RES1   0.0000
     2 C1        4.9812    6.3469   -3.3252   C.3       1 RES1   0.0000
     3 C2        5.2014    5.4130   -2.1373   C.3       1 RES1   0.0000
     4 C3        3.9565    5.2222   -1.2656   C.3       1 RES1   0.0000
     5 C4        3.6109    6.4492   -0.4254   C.3       1 RES1   0.0000
     6 C5        2.2498    6.3626    0.2727   C.3       1 RES1   0.0000
     7 C6        1.0639    6.3061   -0.6972   C.3       1 RES1   0.0000
     8 C7       -0.2805    6.7083   -0.0582   C.3       1 RES1   0.0000
     9 C8       -1.3731    5.6299   -0.0628   C.3       1 RES1   0.0000
    10 N1       -1.2153    4.6316    0.9915   N.am      1 RES1   0.0000
    11 C9       -1.6352    5.0433    2.3423   C.3       1 RES1   0.0000
    12 C10      -0.6176    5.3967    3.4463   C.3       1 RES1   0.0000
    13 C11       0.6107    4.4959    3.4453   C.3       1 RES1   0.0000
    14 C12      -0.2139    6.8715    3.5145   C.3       1 RES1   0.0000
    15 C13      -1.1058    3.3397    0.6945   C.2       1 RES1   0.0000
    16 O1       -0.7507    2.4355    1.4750   O.2       1 RES1   0.0000
    17 C14      -1.5685    2.8738   -0.7071   C.3       1 RES1   0.0000
    18 O2       -1.7633    1.4629   -0.5987   O.3       1 RES1   0.0000
    19 C15      -3.1251    1.0753   -0.7719   C.3       1 RES1   0.0000
    20 C16      -3.3078   -0.3933   -0.3492   C.2       1 RES1   0.0000
    21 O3       -2.5104   -0.8474    0.4959   O.2       1 RES1   0.0000
    22 N2       -4.3126   -1.0774   -0.8863   N.am      1 RES1   0.0000
    23 C17      -4.5384   -2.4887   -0.5163   C.3       1 RES1   0.0000
    24 C18      -5.0661   -3.4123   -1.6334   C.3       1 RES1   0.0000
    25 C19      -4.0263   -4.3485   -2.2598   C.3       1 RES1   0.0000
    26 C20      -4.4432   -4.8272   -3.6628   C.3       1 RES1   0.0000
    27 C21      -3.9713   -3.8672   -4.7540   C.3       1 RES1   0.0000
    28 C22      -4.1220   -4.4060   -6.1776   C.3       1 RES1   0.0000
    29 C23      -3.3382   -3.5761   -7.1999   C.3       1 RES1   0.0000
    30 C24      -3.2008   -4.2943   -8.5365   C.3       1 RES1   0.0000
    31 C25      -5.3132   -0.4635   -1.7516   C.3       1 RES1   0.0000
    32 C26      -6.7681   -0.6087   -1.2739   C.3       1 RES1   0.0000
    33 C27      -7.0212    0.2930   -0.0689   C.3       1 RES1   0.0000
    34 C28      -7.6513   -0.2161   -2.4553   C.3       1 RES1   0.0000
    35 H1        5.8616    6.3393   -3.9640   H         1 RES1   0.0000
    36 H2        4.1260    6.0305   -3.9218   H         1 RES1   0.0000
    37 H3        4.8142    7.3710   -3.0018   H         1 RES1   0.0000
    38 H4        5.5156    4.4355   -2.5151   H         1 RES1   0.0000
    39 H5        6.0180    5.7983   -1.5262   H         1 RES1   0.0000
    40 H6        3.1113    4.9812   -1.9127   H         1 RES1   0.0000
    41 H7        4.1223    4.3706   -0.5965   H         1 RES1   0.0000
    42 H8        4.3845    6.5852    0.3330   H         1 RES1   0.0000
    43 H9        3.6155    7.3357   -1.0587   H         1 RES1   0.0000
    44 H10       2.2225    5.4959    0.9402   H         1 RES1   0.0000
    45 H11       2.1482    7.2560    0.8906   H         1 RES1   0.0000
    46 H12       1.2762    6.9901   -1.5201   H         1 RES1   0.0000
    47 H13       0.9851    5.3019   -1.1274   H         1 RES1   0.0000
    48 H14      -0.1222    7.0549    0.9593   H         1 RES1   0.0000
    49 H15      -0.6923    7.5451   -0.6170   H         1 RES1   0.0000
    50 H16      -2.3461    6.1130    0.0674   H         1 RES1   0.0000
    51 H17      -1.3643    5.1563   -1.0445   H         1 RES1   0.0000
    52 H18      -2.2964    5.9063    2.2100   H         1 RES1   0.0000
    53 H19      -2.2407    4.2167    2.7275   H         1 RES1   0.0000
    54 H20      -1.1668    5.1957    4.3699   H         1 RES1   0.0000
    55 H21       1.2999    4.7910    2.6596   H         1 RES1   0.0000
    56 H22       1.1326    4.5991    4.3918   H         1 RES1   0.0000
    57 H23       0.3285    3.4585    3.3006   H         1 RES1   0.0000
    58 H24       0.6384    7.1070    2.8824   H         1 RES1   0.0000
    59 H25      -1.0368    7.5295    3.2450   H         1 RES1   0.0000
    60 H26       0.0768    7.1144    4.5349   H         1 RES1   0.0000
    61 H27      -2.5029    3.3874   -0.9765   H         1 RES1   0.0000
    62 H28      -0.8356    3.0629   -1.5065   H         1 RES1   0.0000
    63 H29      -3.7793    1.6823   -0.1287   H         1 RES1   0.0000
    64 H30      -3.3618    1.2016   -1.8286   H         1 RES1   0.0000
    65 H31      -3.5953   -2.8734   -0.1264   H         1 RES1   0.0000
    66 H32      -5.2600   -2.4831    0.3026   H         1 RES1   0.0000
    67 H33      -5.8554   -4.0330   -1.2081   H         1 RES1   0.0000
    68 H34      -5.5230   -2.8386   -2.4329   H         1 RES1   0.0000
    69 H35      -3.0634   -3.8346   -2.3324   H         1 RES1   0.0000
    70 H36      -3.8933   -5.2180   -1.6147   H         1 RES1   0.0000
    71 H37      -3.9999   -5.8040   -3.8602   H         1 RES1   0.0000
    72 H38      -5.5237   -4.9572   -3.7165   H         1 RES1   0.0000
    73 H39      -4.4783   -2.9042   -4.6653   H         1 RES1   0.0000
    74 H40      -2.9100   -3.7026   -4.5795   H         1 RES1   0.0000
    75 H41      -3.7329   -5.4254   -6.2005   H         1 RES1   0.0000
    76 H42      -5.1741   -4.4467   -6.4593   H         1 RES1   0.0000
    77 H43      -3.8172   -2.6071   -7.3549   H         1 RES1   0.0000
    78 H44      -2.3356   -3.3852   -6.8050   H         1 RES1   0.0000
    79 H45      -4.1711   -4.4678   -8.9918   H         1 RES1   0.0000
    80 H46      -2.6038   -3.7011   -9.2237   H         1 RES1   0.0000
    81 H47      -2.7132   -5.2560   -8.3985   H         1 RES1   0.0000
    82 H48      -5.1480    0.6081   -1.8101   H         1 RES1   0.0000
    83 H49      -5.2070   -0.8972   -2.7520   H         1 RES1   0.0000
    84 H50      -6.9861   -1.6397   -0.9943   H         1 RES1   0.0000
    85 H51      -6.9059    1.3396   -0.3403   H         1 RES1   0.0000
    86 H52      -8.0342    0.1564    0.2972   H         1 RES1   0.0000
    87 H53      -6.3316    0.0722    0.7442   H         1 RES1   0.0000
    88 H54      -7.4819    0.8209   -2.7355   H         1 RES1   0.0000
    89 H55      -7.4331   -0.8420   -3.3162   H         1 RES1   0.0000
    90 H56      -8.6993   -0.3325   -2.2104   H         1 RES1   0.0000
    91 C29      -3.4634    7.9573   -5.3407   C.3       1 RES1   0.0000
    92 C30      -3.3569    6.7990   -4.3588   C.3       1 RES1   0.0000
    93 C31      -1.9779    6.1392   -4.3529   C.3       1 RES1   0.0000
    94 C32      -1.6578    5.4775   -5.6919   C.3       1 RES1   0.0000
    95 C33      -0.6068    4.3746   -5.5845   C.3       1 RES1   0.0000
    96 C34       0.8276    4.8947   -5.4912   C.3       1 RES1   0.0000
    97 C35       1.8293    3.7324   -5.4068   C.3       1 RES1   0.0000
    98 C36       1.9932    3.2277   -3.9685   C.3       1 RES1   0.0000
    99 N3        2.1901    1.7823   -3.8113   N.am      1 RES1   0.0000
   100 C37       3.2534    1.2050   -4.6613   C.3       1 RES1   0.0000
   101 C38       2.9352    0.2188   -5.8007   C.3       1 RES1   0.0000
   102 C39       2.4639   -1.1075   -5.2166   C.3       1 RES1   0.0000
   103 C40       1.9687    0.6951   -6.8822   C.3       1 RES1   0.0000
   104 C41       1.9027    1.2335   -2.6075   C.2       1 RES1   0.0000
   105 O4        1.7525    0.0438   -2.3574   O.2       1 RES1   0.0000
   106 C42       1.9047    2.2060   -1.4079   C.3       1 RES1   0.0000
   107 O5        1.6346    1.5059   -0.1932   O.3       1 RES1   0.0000
   108 C43       2.4445    1.9970    0.8690   C.3       1 RES1   0.0000
   109 C44       2.2390    1.0839    2.0739   C.2       1 RES1   0.0000
   110 O6        1.6045    0.0185    1.8837   O.2       1 RES1   0.0000
   111 N4        2.7359    1.4132    3.2509   N.am      1 RES1   0.0000
   112 C45       2.4956    0.5230    4.3845   C.3       1 RES1   0.0000
   113 C46       1.2853    0.9459    5.2261   C.3       1 RES1   0.0000
   114 C47      -0.0419    0.5099    4.6026   C.3       1 RES1   0.0000
   115 C48      -1.2530    0.8813    5.4672   C.3       1 RES1   0.0000
   116 C49      -1.8581    2.2360    5.1132   C.3       1 RES1   0.0000
   117 C50      -3.2215    2.4336    5.7692   C.3       1 RES1   0.0000
   118 C51      -3.9053    3.7189    5.3095   C.3       1 RES1   0.0000
   119 C52      -5.3021    3.8605    5.9037   C.3       1 RES1   0.0000
   120 C53       3.5000    2.6091    3.5520   C.3       1 RES1   0.0000
   121 C54       5.0286    2.4085    3.5836   C.3       1 RES1   0.0000
   122 C55       5.6243    2.1647    2.1967   C.3       1 RES1   0.0000
   123 C56       5.6463    3.6516    4.2256   C.3       1 RES1   0.0000
   124 H57      -4.4486    8.4101   -5.2663   H         1 RES1   0.0000
   125 H58      -2.7193    8.7212   -5.1289   H         1 RES1   0.0000
   126 H59      -3.3229    7.6108   -6.3609   H         1 RES1   0.0000
   127 H60      -3.5911    7.1554   -3.3523   H         1 RES1   0.0000
   128 H61      -4.1060    6.0505   -4.6273   H         1 RES1   0.0000
   129 H62      -1.2184    6.8818   -4.1085   H         1 RES1   0.0000
   130 H63      -1.9568    5.3733   -3.5674   H         1 RES1   0.0000
   131 H64      -2.5737    5.0366   -6.0887   H         1 RES1   0.0000
   132 H65      -1.3288    6.2282   -6.4083   H         1 RES1   0.0000
   133 H66      -0.8347    3.7445   -4.7172   H         1 RES1   0.0000
   134 H67      -0.6708    3.7430   -6.4738   H         1 RES1   0.0000
   135 H68       1.0370    5.4706   -6.3930   H         1 RES1   0.0000
   136 H69       0.9441    5.5731   -4.6426   H         1 RES1   0.0000
   137 H70       1.4497    2.9326   -6.0342   H         1 RES1   0.0000
   138 H71       2.7930    4.0505   -5.8011   H         1 RES1   0.0000
   139 H72       2.8294    3.7679   -3.5139   H         1 RES1   0.0000
   140 H73       1.0776    3.4817   -3.4350   H         1 RES1   0.0000
   141 H74       3.7839    2.0599   -5.0796   H         1 RES1   0.0000
   142 H75       3.9421    0.6691   -4.0021   H         1 RES1   0.0000
   143 H76       3.9023    0.0558   -6.2906   H         1 RES1   0.0000
   144 H77       1.6218   -0.9177   -4.5579   H         1 RES1   0.0000
   145 H78       2.1738   -1.7915   -6.0107   H         1 RES1   0.0000
   146 H79       3.2593   -1.5757   -4.6413   H         1 RES1   0.0000
   147 H80       0.9713    0.8787   -6.4845   H         1 RES1   0.0000
   148 H81       2.3414    1.5923   -7.3698   H         1 RES1   0.0000
   149 H82       1.8937   -0.0781   -7.6451   H         1 RES1   0.0000
   150 H83       2.9325    2.5858   -1.4077   H         1 RES1   0.0000
   151 H84       1.2360    3.0631   -1.4775   H         1 RES1   0.0000
   152 H85       3.5034    1.9582    0.5845   H         1 RES1   0.0000
   153 H86       2.1811    3.0381    1.1027   H         1 RES1   0.0000
   154 H87       2.3220   -0.4795    3.9881   H         1 RES1   0.0000
   155 H88       3.4023    0.5179    4.9905   H         1 RES1   0.0000
   156 H89       1.3832    0.4569    6.1968   H         1 RES1   0.0000
   157 H90       1.2977    2.0226    5.4027   H         1 RES1   0.0000
   158 H91      -0.1686    0.9453    3.5968   H         1 RES1   0.0000
   159 H92       0.0025   -0.5731    4.4796   H         1 RES1   0.0000
   160 H93      -2.0306    0.1296    5.3383   H         1 RES1   0.0000
   161 H94      -0.9675    0.8714    6.5206   H         1 RES1   0.0000
   162 H95      -1.1852    3.0391    5.4099   H         1 RES1   0.0000
   163 H96      -1.9844    2.2869    4.0275   H         1 RES1   0.0000
   164 H97      -3.8631    1.5885    5.5106   H         1 RES1   0.0000
   165 H98      -3.1156    2.4465    6.8540   H         1 RES1   0.0000
   166 H99      -3.2999    4.5822    5.5953   H         1 RES1   0.0000
   167 H100     -3.9800    3.7091    4.2161   H         1 RES1   0.0000
   168 H101     -5.2575    3.8958    6.9894   H         1 RES1   0.0000
   169 H102     -5.7724    4.7777    5.5557   H         1 RES1   0.0000
   170 H103     -5.9217    3.0141    5.6120   H         1 RES1   0.0000
   171 H104      3.2704    3.4034    2.8425   H         1 RES1   0.0000
   172 H105      3.1772    2.9390    4.5430   H         1 RES1   0.0000
   173 H106      5.2596    1.5416    4.2097   H         1 RES1   0.0000
   174 H107      5.3944    2.9894    1.5238   H         1 RES1   0.0000
   175 H108      6.7072    2.1050    2.2745   H         1 RES1   0.0000
   176 H109      5.2670    1.2277    1.7695   H         1 RES1   0.0000
   177 H110      5.3669    4.5498    3.6780   H         1 RES1   0.0000
   178 H111      5.3154    3.7562    5.2566   H         1 RES1   0.0000
   179 H112      6.7300    3.5757    4.2167   H         1 RES1   0.0000
   180 C57       4.5503   -3.8037   -0.6230   C.3       1 RES1   0.0000
   181 C58       4.3320   -4.8058    0.5074   C.3       1 RES1   0.0000
   182 C59       4.5414   -4.1679    1.8808   C.3       1 RES1   0.0000
   183 C60       4.2491   -5.1385    3.0275   C.3       1 RES1   0.0000
   184 C61       3.8772   -4.4334    4.3334   C.3       1 RES1   0.0000
   185 C62       2.4284   -3.9336    4.4223   C.3       1 RES1   0.0000
   186 C63       1.3844   -5.0631    4.3808   C.3       1 RES1   0.0000
   187 C64       0.5807   -5.1344    3.0744   C.3       1 RES1   0.0000
   188 N5       -0.2698   -3.9675    2.8722   N.am      1 RES1   0.0000
   189 C65      -1.5547   -3.9547    3.5821   C.3       1 RES1   0.0000
   190 C66      -1.8473   -2.7751    4.5216   C.3       1 RES1   0.0000
   191 C67      -0.9594   -2.8150    5.7621   C.3       1 RES1   0.0000
   192 C68      -3.3191   -2.8480    4.9334   C.3       1 RES1   0.0000
   193 C69       0.0176   -2.9859    2.0293   C.2       1 RES1   0.0000
   194 O7       -0.5820   -1.8913    2.0144   O.2       1 RES1   0.0000
   195 C70       1.0956   -3.2078    0.9507   C.3       1 RES1   0.0000
   196 O8        0.9661   -2.1845   -0.0361   O.3       1 RES1   0.0000
   197 C71       0.9090   -2.6619   -1.3801   C.3       1 RES1   0.0000
   198 C72      -0.1987   -1.9025   -2.1052   C.2       1 RES1   0.0000
   199 O9       -0.7601   -0.9680   -1.4947   O.2       1 RES1   0.0000
   200 N6       -0.5630   -2.2881   -3.3221   N.am      1 RES1   0.0000
   201 C73      -1.6438   -1.5194   -3.9735   C.3       1 RES1   0.0000
   202 C74      -1.2253   -0.1169   -4.4327   C.3       1 RES1   0.0000
   203 C75      -2.2904    0.6384   -5.2558   C.3       1 RES1   0.0000
   204 C76      -3.2478    1.4589   -4.3883   C.3       1 RES1   0.0000
   205 C77      -4.1859    2.4119   -5.1408   C.3       1 RES1   0.0000
   206 C78      -5.2923    2.9652   -4.2342   C.3       1 RES1   0.0000
   207 C79      -4.7590    3.6780   -2.9906   C.3       1 RES1   0.0000
   208 C80      -5.8568    4.3753   -2.1982   C.3       1 RES1   0.0000
   209 C81       0.2877   -3.1671   -4.1382   C.3       1 RES1   0.0000
   210 C82       0.1752   -4.7277   -4.1497   C.3       1 RES1   0.0000
   211 C83      -0.3085   -5.3987   -2.8636   C.3       1 RES1   0.0000
   212 C84      -0.6524   -5.2609   -5.3190   C.3       1 RES1   0.0000
   213 H113      4.3958   -4.2791   -1.5896   H         1 RES1   0.0000
   214 H114      5.5674   -3.4196   -0.5980   H         1 RES1   0.0000
   215 H115      3.8662   -2.9579   -0.5303   H         1 RES1   0.0000
   216 H116      5.0252   -5.6403    0.3883   H         1 RES1   0.0000
   217 H117      3.3171   -5.2150    0.4416   H         1 RES1   0.0000
   218 H118      3.9038   -3.2809    1.9720   H         1 RES1   0.0000
   219 H119      5.5717   -3.8175    1.9530   H         1 RES1   0.0000
   220 H120      5.1360   -5.7450    3.2064   H         1 RES1   0.0000
   221 H121      3.4528   -5.8252    2.7338   H         1 RES1   0.0000
   222 H122      4.5520   -3.5865    4.4798   H         1 RES1   0.0000
   223 H123      4.0449   -5.1170    5.1655   H         1 RES1   0.0000
   224 H124      2.2259   -3.2099    3.6274   H         1 RES1   0.0000
   225 H125      2.3343   -3.3989    5.3700   H         1 RES1   0.0000
   226 H126      0.6923   -4.9657    5.2160   H         1 RES1   0.0000
   227 H127      1.8963   -6.0181    4.5023   H         1 RES1   0.0000
   228 H128     -0.0598   -6.0187    3.1017   H         1 RES1   0.0000
   229 H129      1.2761   -5.2441    2.2454   H         1 RES1   0.0000
   230 H130     -1.6237   -4.8763    4.1585   H         1 RES1   0.0000
   231 H131     -2.3336   -3.9798    2.8140   H         1 RES1   0.0000
   232 H132     -1.6913   -1.8423    3.9706   H         1 RES1   0.0000
   233 H133     -1.1072   -3.7522    6.2940   H         1 RES1   0.0000
   234 H134     -1.2175   -2.0068    6.4408   H         1 RES1   0.0000
   235 H135      0.0907   -2.7138    5.5022   H         1 RES1   0.0000
   236 H136     -3.5385   -3.8026    5.4059   H         1 RES1   0.0000
   237 H137     -3.9772   -2.7276    4.0749   H         1 RES1   0.0000
   238 H138     -3.5471   -2.0613    5.6484   H         1 RES1   0.0000
   239 H139      0.9684   -4.1897    0.4828   H         1 RES1   0.0000
   240 H140      2.0986   -3.1386    1.3896   H         1 RES1   0.0000
   241 H141      0.6741   -3.7302   -1.4018   H         1 RES1   0.0000
   242 H142      1.8763   -2.4761   -1.8716   H         1 RES1   0.0000
   243 H143     -2.4579   -1.4387   -3.2487   H         1 RES1   0.0000
   244 H144     -1.9873   -2.0884   -4.8348   H         1 RES1   0.0000
   245 H145     -0.3228   -0.2183   -5.0355   H         1 RES1   0.0000
   246 H146     -0.9724    0.4673   -3.5458   H         1 RES1   0.0000
   247 H147     -2.8567   -0.0582   -5.8770   H         1 RES1   0.0000
   248 H148     -1.7781    1.3260   -5.9308   H         1 RES1   0.0000
   249 H149     -2.6409    2.0551   -3.7003   H         1 RES1   0.0000
   250 H150     -3.8681    0.7669   -3.8166   H         1 RES1   0.0000
   251 H151     -4.6509    1.8928   -5.9766   H         1 RES1   0.0000
   252 H152     -3.6163    3.2488   -5.5478   H         1 RES1   0.0000
   253 H153     -5.9512    2.1502   -3.9215   H         1 RES1   0.0000
   254 H154     -5.9031    3.6741   -4.7972   H         1 RES1   0.0000
   255 H155     -4.0043    4.4050   -3.2899   H         1 RES1   0.0000
   256 H156     -4.2742    2.9508   -2.3353   H         1 RES1   0.0000
   257 H157     -6.3316    5.1493   -2.7910   H         1 RES1   0.0000
   258 H158     -5.4525    4.8364   -1.2992   H         1 RES1   0.0000
   259 H159     -6.6219    3.6607   -1.9060   H         1 RES1   0.0000
   260 H160      1.3147   -2.9324   -3.8655   H         1 RES1   0.0000
   261 H161      0.1433   -2.8321   -5.1661   H         1 RES1   0.0000
   262 H162      1.2041   -5.0579   -4.3257   H         1 RES1   0.0000
   263 H163     -1.1564   -4.8686   -2.4412   H         1 RES1   0.0000
   264 H164      0.4834   -5.4909   -2.1244   H         1 RES1   0.0000
   265 H165     -0.6279   -6.4121   -3.0956   H         1 RES1   0.0000
   266 H166     -1.7046   -5.3158   -5.0597   H         1 RES1   0.0000
   267 H167     -0.3136   -6.2631   -5.5650   H         1 RES1   0.0000
   268 H168     -0.5287   -4.6558   -6.2121   H         1 RES1   0.0000
@<TRIPOS>BOND
     1     1    16    1
     2     1    18    1
     3     1    21    1
     4     1   105    1
     5     1   107    1
     6     1   110    1
     7     1   194    1
     8     1   196    1
     9     1   199    1
    10     2     3    1
    11     2    35    1
    12     2    36    1
    13     2    37    1
    14     3     4    1
    15     3    38    1
    16     3    39    1
    17     4     5    1
    18     4    40    1
    19     4    41    1
    20     5     6    1
    21     5    42    1
    22     5    43    1
    23     6     7    1
    24     6    44    1
    25     6    45    1
    26     7     8    1
    27     7    46    1
    28     7    47    1
    29     8     9    1
    30     8    48    1
    31     8    49    1
    32     9    10    1
    33     9    50    1
    34     9    51    1
    35    10    11    1
    36    10    15    1
    37    11    12    1
    38    11    52    1
    39    11    53    1
    40    12    13    1
    41    12    14    1
    42    12    54    1
    43    13    55    1
    44    13    56    1
    45    13    57    1
    46    14    58    1
    47    14    59    1
    48    14    60    1
    49    15    16    2
    50    15    17    1
    51    17    18    1
    52    17    61    1
    53    17    62    1
    54    18    19    1
    55    19    20    1
    56    19    63    1
    57    19    64    1
    58    20    21    2
    59    20    22    1
    60    22    23    1
    61    22    31    1
    62    23    24    1
    63    23    65    1
    64    23    66    1
    65    24    25    1
    66    24    67    1
    67    24    68    1
    68    25    26    1
    69    25    69    1
    70    25    70    1
    71    26    27    1
    72    26    71    1
    73    26    72    1
    74    27    28    1
    75    27    73    1
    76    27    74    1
    77    28    29    1
    78    28    75    1
    79    28    76    1
    80    29    30    1
    81    29    77    1
    82    29    78    1
    83    30    79    1
    84    30    80    1
    85    30    81    1
    86    31    32    1
    87    31    82    1
    88    31    83    1
    89    32    33    1
    90    32    34    1
    91    32    84    1
    92    33    85    1
    93    33    86    1
    94    33    87    1
    95    34    88    1
    96    34    89    1
    97    34    90    1
    98    91    92    1
    99    91   124    1
   100    91   125    1
   101    91   126    1
   102    92    93    1
   103    92   127    1
   104    92   128    1
   105    93    94    1
   106    93   129    1
   107    93   130    1
   108    94    95    1
   109    94   131    1
   110    94   132    1
   111    95    96    1
   112    95   133    1
   113    95   134    1
   114    96    97    1
   115    96   135    1
   116    96   136    1
   117    97    98    1
   118    97   137    1
   119    97   138    1
   120    98    99    1
   121    98   139    1
   122    98   140    1
   123    99   100    1
   124    99   104    1
   125   100   101    1
   126   100   141    1
   127   100   142    1
   128   101   102    1
   129   101   103    1
   130   101   143    1
   131   102   144    1
   132   102   145    1
   133   102   146    1
   134   103   147    1
   135   103   148    1
   136   103   149    1
   137   104   105    2
   138   104   106    1
   139   106   107    1
   140   106   150    1
   141   106   151    1
   142   107   108    1
   143   108   109    1
   144   108   152    1
   145   108   153    1
   146   109   110    2
   147   109   111    1
   148   111   112    1
   149   111   120    1
   150   112   113    1
   151   112   154    1
   152   112   155    1
   153   113   114    1
   154   113   156    1
   155   113   157    1
   156   114   115    1
   157   114   158    1
   158   114   159    1
   159   115   116    1
   160   115   160    1
   161   115   161    1
   162   116   117    1
   163   116   162    1
   164   116   163    1
   165   117   118    1
   166   117   164    1
   167   117   165    1
   168   118   119    1
   169   118   166    1
   170   118   167    1
   171   119   168    1
   172   119   169    1
   173   119   170    1
   174   120   121    1
   175   120   171    1
   176   120   172    1
   177   121   122    1
   178   121   123    1
   179   121   173    1
   180   122   174    1
   181   122   175    1
   182   122   176    1
   183   123   177    1
   184   123   178    1
   185   123   179    1
   186   180   181    1
   187   180   213    1
   188   180   214    1
   189   180   215    1
   190   181   182    1
   191   181   216    1
   192   181   217    1
   193   182   183    1
   194   182   218    1
   195   182   219    1
   196   183   184    1
   197   183   220    1
   198   183   221    1
   199   184   185    1
   200   184   222    1
   201   184   223    1
   202   185   186    1
   203   185   224    1
   204   185   225    1
   205   186   187    1
   206   186   226    1
   207   186   227    1
   208   187   188    1
   209   187   228    1
   210   187   229    1
   211   188   189    1
   212   188   193    1
   213   189   190    1
   214   189   230    1
   215   189   231    1
   216   190   191    1
   217   190   192    1
   218   190   232    1
   219   191   233    1
   220   191   234    1
   221   191   235    1
   222   192   236    1
   223   192   237    1
   224   192   238    1
   225   193   194    2
   226   193   195    1
   227   195   196    1
   228   195   239    1
   229   195   240    1
   230   196   197    1
   231   197   198    1
   232   197   241    1
   233   197   242    1
   234   198   199    2
   235   198   200    1
   236   200   201    1
   237   200   209    1
   238   201   202    1
   239   201   243    1
   240   201   244    1
   241   202   203    1
   242   202   245    1
   243   202   246    1
   244   203   204    1
   245   203   247    1
   246   203   248    1
   247   204   205    1
   248   204   249    1
   249   204   250    1
   250   205   206    1
   251   205   251    1
   252   205   252    1
   253   206   207    1
   254   206   253    1
   255   206   254    1
   256   207   208    1
   257   207   255    1
   258   207   256    1
   259   208   257    1
   260   208   258    1
   261   208   259    1
   262   209   210    1
   263   209   260    1
   264   209   261    1
   265   210   211    1
   266   210   212    1
   267   210   262    1
   268   211   263    1
   269   211   264    1
   270   211   265    1
   271   212   266    1
   272   212   267    1
   273   212   268    1
@<TRIPOS>SUBSTRUCTURE
     1 RES1      268 GROUP             0 ****  ****    0  
