@<TRIPOS>MOLECULE
tricapped_trigonal_prismatic_0_nunpairedes_0_charge_3 Charge: 3 Unpaired_Electrons: 6 XTB_Unpaired_Electrons: 0 XTB_Charge: 3
    84    92     1     0     0
SMALL
NoCharges
****
Generated from Architector

@<TRIPOS>ATOM
     1 Eu1      -0.7654    0.6003    0.9624   Eu        1 RES1   0.0000
     2 C1       -3.2406   -6.6712    3.6775   C.3       1 RES1   0.0000
     3 C2       -4.0445   -5.7231    4.5605   C.3       1 RES1   0.0000
     4 C3       -4.6879   -4.5783    3.7742   C.3       1 RES1   0.0000
     5 C4       -5.8841   -5.0306    2.9285   C.3       1 RES1   0.0000
     6 C5       -6.4832   -3.9289    2.0446   C.3       1 RES1   0.0000
     7 C6       -6.0511   -3.9470    0.5704   C.3       1 RES1   0.0000
     8 C7       -4.5734   -4.2413    0.2554   C.3       1 RES1   0.0000
     9 C8       -3.6889   -3.0345   -0.0770   C.3       1 RES1   0.0000
    10 N1       -3.0384   -2.3915    1.0465   N.ar      1 RES1   0.0000
    11 C9       -3.5858   -1.9829    2.2051   C.ar      1 RES1   0.0000
    12 C10      -2.6128   -1.2124    2.8377   C.ar      1 RES1   0.0000
    13 C11      -2.7895    0.1071    3.5189   C.ar      1 RES1   0.0000
    14 C12      -2.9876    0.5517    4.8097   C.ar      1 RES1   0.0000
    15 C13      -3.2075    1.9216    5.0049   C.ar      1 RES1   0.0000
    16 C14      -3.1207    2.5457    6.3501   C.3       1 RES1   0.0000
    17 C15      -1.9097    3.5227    6.2399   C.2       1 RES1   0.0000
    18 O1       -1.0236    3.2587    5.4719   O.2       1 RES1   0.0000
    19 O2       -1.9384    4.6128    6.9594   O.3       1 RES1   0.0000
    20 C16      -3.3305    2.7857    3.8988   C.ar      1 RES1   0.0000
    21 C17      -3.0732    2.2786    2.6480   C.ar      1 RES1   0.0000
    22 C18      -3.1123    2.7772    1.2456   C.ar      1 RES1   0.0000
    23 C19      -4.1842    2.7034    0.3651   C.ar      1 RES1   0.0000
    24 N2       -3.6559    2.3203   -0.8109   N.ar      1 RES1   0.0000
    25 C20      -4.3769    1.8010   -1.9449   C.3       1 RES1   0.0000
    26 C21      -5.4049    0.7602   -1.4527   C.3       1 RES1   0.0000
    27 C22      -6.7836    1.3798   -1.1531   C.3       1 RES1   0.0000
    28 C23      -7.4074    0.9632    0.1813   C.3       1 RES1   0.0000
    29 C24      -8.6067    1.8551    0.5318   C.3       1 RES1   0.0000
    30 C25      -8.2920    3.3525    0.6674   C.3       1 RES1   0.0000
    31 C26      -8.6195    4.1931   -0.5703   C.3       1 RES1   0.0000
    32 C27      -7.9434    5.5598   -0.5437   C.3       1 RES1   0.0000
    33 N3       -2.3500    2.1803   -0.7095   N.ar      1 RES1   0.0000
    34 N4       -1.9942    2.4824    0.5151   N.ar      1 RES1   0.0000
    35 N5       -2.7430    0.9753    2.4840   N.ar      1 RES1   0.0000
    36 N6       -1.5160   -1.2542    2.0212   N.ar      1 RES1   0.0000
    37 N7       -1.8044   -1.9323    0.9336   N.ar      1 RES1   0.0000
    38 H1       -2.7601   -7.4286    4.2917   H         1 RES1   0.0000
    39 H2       -2.4638   -6.1359    3.1257   H         1 RES1   0.0000
    40 H3       -3.8821   -7.1837    2.9613   H         1 RES1   0.0000
    41 H4       -3.3742   -5.2982    5.3161   H         1 RES1   0.0000
    42 H5       -4.8190   -6.2816    5.0899   H         1 RES1   0.0000
    43 H6       -3.9023   -4.1334    3.1514   H         1 RES1   0.0000
    44 H7       -5.0302   -3.8151    4.4804   H         1 RES1   0.0000
    45 H8       -6.6460   -5.3784    3.6258   H         1 RES1   0.0000
    46 H9       -5.6062   -5.8894    2.3191   H         1 RES1   0.0000
    47 H10      -6.3054   -2.9538    2.5064   H         1 RES1   0.0000
    48 H11      -7.5650   -4.0489    2.0404   H         1 RES1   0.0000
    49 H12      -6.3525   -3.0084    0.0999   H         1 RES1   0.0000
    50 H13      -6.6452   -4.7207    0.0842   H         1 RES1   0.0000
    51 H14      -4.5462   -4.8566   -0.6424   H         1 RES1   0.0000
    52 H15      -4.1296   -4.8355    1.0493   H         1 RES1   0.0000
    53 H16      -4.3154   -2.2834   -0.5754   H         1 RES1   0.0000
    54 H17      -2.8816   -3.3234   -0.7565   H         1 RES1   0.0000
    55 H18      -4.5892   -2.2392    2.4862   H         1 RES1   0.0000
    56 H19      -2.9582   -0.1271    5.6495   H         1 RES1   0.0000
    57 H20      -2.9125    1.8066    7.1256   H         1 RES1   0.0000
    58 H21      -4.0365    3.0725    6.6158   H         1 RES1   0.0000
    59 H22      -2.6851    4.7289    7.5651   H         1 RES1   0.0000
    60 H23      -3.5489    3.8328    4.0512   H         1 RES1   0.0000
    61 H24      -5.2416    2.8296    0.5181   H         1 RES1   0.0000
    62 H25      -3.6346    1.3574   -2.6118   H         1 RES1   0.0000
    63 H26      -4.8839    2.6005   -2.4906   H         1 RES1   0.0000
    64 H27      -5.0067    0.2665   -0.5532   H         1 RES1   0.0000
    65 H28      -5.5147   -0.0007   -2.2225   H         1 RES1   0.0000
    66 H29      -7.4888    1.1175   -1.9416   H         1 RES1   0.0000
    67 H30      -6.6993    2.4648   -1.1625   H         1 RES1   0.0000
    68 H31      -6.6604    1.0060    0.9845   H         1 RES1   0.0000
    69 H32      -7.7476   -0.0752    0.1266   H         1 RES1   0.0000
    70 H33      -9.0170    1.4902    1.4729   H         1 RES1   0.0000
    71 H34      -9.3668    1.7142   -0.2360   H         1 RES1   0.0000
    72 H35      -7.2458    3.5048    0.9580   H         1 RES1   0.0000
    73 H36      -8.8872    3.7549    1.4861   H         1 RES1   0.0000
    74 H37      -9.7003    4.3418   -0.6270   H         1 RES1   0.0000
    75 H38      -8.3420    3.6752   -1.4924   H         1 RES1   0.0000
    76 H39      -8.2648    6.1343    0.3251   H         1 RES1   0.0000
    77 H40      -8.2015    6.1294   -1.4354   H         1 RES1   0.0000
    78 H41      -6.8544    5.4702   -0.4985   H         1 RES1   0.0000
    79 O3        0.9474    0.9484    2.7023   O.3       1 RES1   0.0000
    80 H42       1.4156    1.7364    3.0406   H         1 RES1   0.0000
    81 H43       1.2981    0.2321    3.2647   H         1 RES1   0.0000
    82 O4        0.1380    0.2602   -1.2217   O.3       1 RES1   0.0000
    83 H44       0.6003   -0.4923   -1.6377   H         1 RES1   0.0000
    84 H45       0.2399    0.9861   -1.8681   H         1 RES1   0.0000
@<TRIPOS>BOND
     1     1    10    1
     2     1    24    1
     3     1    33    1
     4     1    34    1
     5     1    35    1
     6     1    36    1
     7     1    37    1
     8     1    79    1
     9     1    82    1
    10     2     3    1
    11     2    38    1
    12     2    39    1
    13     2    40    1
    14     3     4    1
    15     3    41    1
    16     3    42    1
    17     4     5    1
    18     4    43    1
    19     4    44    1
    20     5     6    1
    21     5    45    1
    22     5    46    1
    23     6     7    1
    24     6    47    1
    25     6    48    1
    26     7     8    1
    27     7    49    1
    28     7    50    1
    29     8     9    1
    30     8    51    1
    31     8    52    1
    32     9    10    1
    33     9    53    1
    34     9    54    1
    35    10    11    1
    36    10    37    1
    37    11    12    2
    38    11    55    1
    39    12    13    1
    40    12    36    1
    41    13    14    1
    42    13    35    2
    43    14    15    2
    44    14    56    1
    45    15    16    1
    46    15    20    1
    47    16    17    1
    48    16    57    1
    49    16    58    1
    50    17    18    2
    51    17    19    1
    52    19    59    1
    53    20    21    2
    54    20    60    1
    55    21    22    1
    56    21    35    1
    57    22    23    2
    58    22    34    1
    59    23    24    1
    60    23    61    1
    61    24    25    1
    62    24    33    1
    63    25    26    1
    64    25    62    1
    65    25    63    1
    66    26    27    1
    67    26    64    1
    68    26    65    1
    69    27    28    1
    70    27    66    1
    71    27    67    1
    72    28    29    1
    73    28    68    1
    74    28    69    1
    75    29    30    1
    76    29    70    1
    77    29    71    1
    78    30    31    1
    79    30    72    1
    80    30    73    1
    81    31    32    1
    82    31    74    1
    83    31    75    1
    84    32    76    1
    85    32    77    1
    86    32    78    1
    87    33    34    2
    88    36    37    2
    89    79    80    1
    90    79    81    1
    91    82    83    1
    92    82    84    1
@<TRIPOS>SUBSTRUCTURE
     1 RES1       84 GROUP             0 ****  ****    0  
