@<TRIPOS>MOLECULE
am_c3_9H2O_c0_0_nunpairedes_0_charge_3 Charge: 3 Unpaired_Electrons: 6 XTB_Unpaired_Electrons: 0 XTB_Charge: 3
   415   420     1     0     0
SMALL
NoCharges
****
Generated from Architector

@<TRIPOS>ATOM
     1 Eu1      -0.4960   -0.1274    0.1244   Eu        1 RES1   0.0000
     2 C1       -7.2756   -5.9162    2.5887   C.3       1 RES1   0.0000
     3 C2       -8.3306   -5.0432    1.9189   C.3       1 RES1   0.0000
     4 C3       -8.3905   -5.2081    0.3965   C.3       1 RES1   0.0000
     5 C4       -7.1318   -4.8491   -0.4050   C.3       1 RES1   0.0000
     6 C5       -6.9587   -3.3758   -0.8003   C.3       1 RES1   0.0000
     7 C6       -6.7038   -2.3844    0.3394   C.3       1 RES1   0.0000
     8 C7       -5.3998   -2.6463    1.1018   C.3       1 RES1   0.0000
     9 C8       -4.0616   -2.2477    0.4406   C.3       1 RES1   0.0000
    10 N1       -3.5789   -0.8574    0.5221   N.4       1 RES1   0.0000
    11 C9       -3.7370   -0.2759    1.8511   C.3       1 RES1   0.0000
    12 C10      -3.1321    1.1135    1.7790   C.2       1 RES1   0.0000
    13 O1       -1.9632    1.1879    1.3285   O.2       1 RES1   0.0000
    14 N2       -3.8426    2.1788    2.1202   N.am      1 RES1   0.0000
    15 C11      -3.2145    3.4944    2.0760   C.3       1 RES1   0.0000
    16 C12      -1.7944    3.5716    2.6453   C.3       1 RES1   0.0000
    17 C13      -1.5371    2.7560    3.9170   C.3       1 RES1   0.0000
    18 C14      -2.6506    2.8098    4.9647   C.3       1 RES1   0.0000
    19 C15      -2.1252    2.5855    6.3967   C.3       1 RES1   0.0000
    20 C16      -2.2528    3.8215    7.3101   C.3       1 RES1   0.0000
    21 C17      -0.9300    4.3655    7.8509   C.3       1 RES1   0.0000
    22 C18      -1.1755    5.4898    8.8492   C.3       1 RES1   0.0000
    23 C19      -5.2493    2.0848    2.5424   C.3       1 RES1   0.0000
    24 C20      -6.0992    3.3572    2.4371   C.3       1 RES1   0.0000
    25 C21      -7.5909    3.0014    2.3187   C.3       1 RES1   0.0000
    26 C22      -8.1439    2.2616    3.5387   C.3       1 RES1   0.0000
    27 C23      -8.4287    3.1998    4.7155   C.3       1 RES1   0.0000
    28 C24      -8.2173    2.5490    6.0842   C.3       1 RES1   0.0000
    29 C25      -9.0057    1.2499    6.3038   C.3       1 RES1   0.0000
    30 C26      -8.1803   -0.0197    6.1198   C.3       1 RES1   0.0000
    31 C27      -4.0991    0.0053   -0.5429   C.3       1 RES1   0.0000
    32 C28      -3.4090   -0.5100   -1.7996   C.2       1 RES1   0.0000
    33 O2       -2.1913   -0.7853   -1.6676   O.2       1 RES1   0.0000
    34 N3       -4.0792   -0.7297   -2.9302   N.am      1 RES1   0.0000
    35 C29      -5.4818   -0.3800   -3.1534   C.3       1 RES1   0.0000
    36 C30      -5.7814    0.9614   -3.8454   C.3       1 RES1   0.0000
    37 C31      -5.6486    2.2549   -3.0334   C.3       1 RES1   0.0000
    38 C32      -5.9321    3.4743   -3.9345   C.3       1 RES1   0.0000
    39 C33      -5.1976    4.7579   -3.5197   C.3       1 RES1   0.0000
    40 C34      -5.3173    5.8510   -4.6024   C.3       1 RES1   0.0000
    41 C35      -3.9848    6.5078   -4.9980   C.3       1 RES1   0.0000
    42 C36      -4.0364    7.0885   -6.4097   C.3       1 RES1   0.0000
    43 C37      -3.4718   -1.6345   -3.9160   C.3       1 RES1   0.0000
    44 C38      -3.4281   -1.1331   -5.3668   C.3       1 RES1   0.0000
    45 C39      -4.2171   -2.0523   -6.3025   C.3       1 RES1   0.0000
    46 C40      -4.2557   -1.5948   -7.7656   C.3       1 RES1   0.0000
    47 C41      -2.9826   -1.8839   -8.5637   C.3       1 RES1   0.0000
    48 C42      -3.1876   -1.8166  -10.0854   C.3       1 RES1   0.0000
    49 C43      -3.0928   -0.4212  -10.7198   C.3       1 RES1   0.0000
    50 C44      -4.4455    0.2322  -10.9755   C.3       1 RES1   0.0000
    51 H1       -7.3272   -5.8072    3.6695   H         1 RES1   0.0000
    52 H2       -6.2695   -5.6429    2.2767   H         1 RES1   0.0000
    53 H3       -7.4381   -6.9628    2.3454   H         1 RES1   0.0000
    54 H4       -8.1688   -4.0023    2.2022   H         1 RES1   0.0000
    55 H5       -9.3077   -5.3296    2.3128   H         1 RES1   0.0000
    56 H6       -9.2307   -4.6296    0.0109   H         1 RES1   0.0000
    57 H7       -8.6085   -6.2602    0.2004   H         1 RES1   0.0000
    58 H8       -7.1822   -5.4068   -1.3436   H         1 RES1   0.0000
    59 H9       -6.2449   -5.2058    0.1189   H         1 RES1   0.0000
    60 H10      -7.8568   -3.0607   -1.3359   H         1 RES1   0.0000
    61 H11      -6.1256   -3.3131   -1.5084   H         1 RES1   0.0000
    62 H12      -7.5290   -2.4602    1.0465   H         1 RES1   0.0000
    63 H13      -6.7286   -1.3674   -0.0613   H         1 RES1   0.0000
    64 H14      -5.3490   -3.7251    1.2518   H         1 RES1   0.0000
    65 H15      -5.4704   -2.2099    2.1010   H         1 RES1   0.0000
    66 H16      -4.0914   -2.5284   -0.6145   H         1 RES1   0.0000
    67 H17      -3.2760   -2.8400    0.9191   H         1 RES1   0.0000
    68 H18      -3.1385   -0.8784    2.5441   H         1 RES1   0.0000
    69 H19      -4.7719   -0.2799    2.2031   H         1 RES1   0.0000
    70 H20      -3.8526    4.1645    2.6430   H         1 RES1   0.0000
    71 H21      -3.1847    3.8401    1.0338   H         1 RES1   0.0000
    72 H22      -1.6173    4.6270    2.8595   H         1 RES1   0.0000
    73 H23      -1.0710    3.2612    1.8908   H         1 RES1   0.0000
    74 H24      -1.3074    1.7149    3.6569   H         1 RES1   0.0000
    75 H25      -0.6380    3.1711    4.3707   H         1 RES1   0.0000
    76 H26      -3.4003    2.0507    4.7436   H         1 RES1   0.0000
    77 H27      -3.1403    3.7842    4.9076   H         1 RES1   0.0000
    78 H28      -1.0793    2.2741    6.3514   H         1 RES1   0.0000
    79 H29      -2.6738    1.7619    6.8500   H         1 RES1   0.0000
    80 H30      -2.8937    3.5781    8.1562   H         1 RES1   0.0000
    81 H31      -2.7524    4.6256    6.7711   H         1 RES1   0.0000
    82 H32      -0.3116    4.7249    7.0240   H         1 RES1   0.0000
    83 H33      -0.3740    3.5796    8.3628   H         1 RES1   0.0000
    84 H34      -1.7015    6.3231    8.3865   H         1 RES1   0.0000
    85 H35      -0.2360    5.8573    9.2553   H         1 RES1   0.0000
    86 H36      -1.7729    5.1177    9.6787   H         1 RES1   0.0000
    87 H37      -5.2781    1.7357    3.5790   H         1 RES1   0.0000
    88 H38      -5.7364    1.3470    1.9030   H         1 RES1   0.0000
    89 H39      -5.8201    3.9312    1.5539   H         1 RES1   0.0000
    90 H40      -5.9672    3.9875    3.3169   H         1 RES1   0.0000
    91 H41      -7.7379    2.3894    1.4265   H         1 RES1   0.0000
    92 H42      -8.1586    3.9238    2.1878   H         1 RES1   0.0000
    93 H43      -7.4425    1.4891    3.8503   H         1 RES1   0.0000
    94 H44      -9.0678    1.7594    3.2529   H         1 RES1   0.0000
    95 H45      -9.4533    3.5685    4.6397   H         1 RES1   0.0000
    96 H46      -7.7739    4.0721    4.6510   H         1 RES1   0.0000
    97 H47      -8.5079    3.2812    6.8394   H         1 RES1   0.0000
    98 H48      -7.1519    2.3513    6.2254   H         1 RES1   0.0000
    99 H49      -9.8616    1.2251    5.6305   H         1 RES1   0.0000
   100 H50      -9.3972    1.2452    7.3200   H         1 RES1   0.0000
   101 H51      -7.8348   -0.1357    5.0956   H         1 RES1   0.0000
   102 H52      -8.7803   -0.8919    6.3629   H         1 RES1   0.0000
   103 H53      -7.3147   -0.0141    6.7783   H         1 RES1   0.0000
   104 H54      -3.7270    1.0247   -0.3951   H         1 RES1   0.0000
   105 H55      -5.1917    0.0402   -0.5787   H         1 RES1   0.0000
   106 H56      -6.0348   -0.4186   -2.2166   H         1 RES1   0.0000
   107 H57      -5.8876   -1.1612   -3.7980   H         1 RES1   0.0000
   108 H58      -6.8184    0.9024   -4.1818   H         1 RES1   0.0000
   109 H59      -5.1667    1.0449   -4.7418   H         1 RES1   0.0000
   110 H60      -4.6450    2.3404   -2.6157   H         1 RES1   0.0000
   111 H61      -6.3624    2.2403   -2.2081   H         1 RES1   0.0000
   112 H62      -7.0055    3.6673   -3.9745   H         1 RES1   0.0000
   113 H63      -5.6109    3.2359   -4.9503   H         1 RES1   0.0000
   114 H64      -4.1445    4.5078   -3.3893   H         1 RES1   0.0000
   115 H65      -5.5624    5.1131   -2.5522   H         1 RES1   0.0000
   116 H66      -6.0149    6.6275   -4.2839   H         1 RES1   0.0000
   117 H67      -5.7396    5.3974   -5.4996   H         1 RES1   0.0000
   118 H68      -3.1866    5.7592   -4.9572   H         1 RES1   0.0000
   119 H69      -3.7238    7.3018   -4.2961   H         1 RES1   0.0000
   120 H70      -4.2777    6.3049   -7.1265   H         1 RES1   0.0000
   121 H71      -3.0784    7.5183   -6.6983   H         1 RES1   0.0000
   122 H72      -4.7945    7.8663   -6.4886   H         1 RES1   0.0000
   123 H73      -4.0532   -2.5629   -3.8813   H         1 RES1   0.0000
   124 H74      -2.4689   -1.8576   -3.5487   H         1 RES1   0.0000
   125 H75      -2.3922   -1.0703   -5.7067   H         1 RES1   0.0000
   126 H76      -3.8407   -0.1317   -5.4112   H         1 RES1   0.0000
   127 H77      -5.2450   -2.1162   -5.9392   H         1 RES1   0.0000
   128 H78      -3.7960   -3.0581   -6.2543   H         1 RES1   0.0000
   129 H79      -4.4926   -0.5320   -7.7978   H         1 RES1   0.0000
   130 H80      -5.0767   -2.1299   -8.2474   H         1 RES1   0.0000
   131 H81      -2.6497   -2.8955   -8.3145   H         1 RES1   0.0000
   132 H82      -2.1849   -1.1964   -8.2682   H         1 RES1   0.0000
   133 H83      -4.1511   -2.2634  -10.3354   H         1 RES1   0.0000
   134 H84      -2.4264   -2.4497  -10.5422   H         1 RES1   0.0000
   135 H85      -2.5842   -0.5113  -11.6824   H         1 RES1   0.0000
   136 H86      -2.4764    0.2308  -10.0950   H         1 RES1   0.0000
   137 H87      -5.0212   -0.3590  -11.6835   H         1 RES1   0.0000
   138 H88      -4.3081    1.2247  -11.3997   H         1 RES1   0.0000
   139 H89      -5.0247    0.3235  -10.0608   H         1 RES1   0.0000
   140 C45       8.1061    3.0988   -2.7756   C.3       1 RES1   0.0000
   141 C46       8.2384    4.1169   -1.6500   C.3       1 RES1   0.0000
   142 C47       8.3522    3.4914   -0.2590   C.3       1 RES1   0.0000
   143 C48       7.1867    2.6194    0.2221   C.3       1 RES1   0.0000
   144 C49       5.8995    3.3617    0.6094   C.3       1 RES1   0.0000
   145 C50       4.9464    3.6863   -0.5448   C.3       1 RES1   0.0000
   146 C51       4.3620    2.4538   -1.2392   C.3       1 RES1   0.0000
   147 C52       3.3231    1.6061   -0.4835   C.3       1 RES1   0.0000
   148 N4        1.9065    1.9902   -0.4664   N.4       1 RES1   0.0000
   149 C53       1.4846    2.3664   -1.8010   C.3       1 RES1   0.0000
   150 C54      -0.0004    2.6055   -1.8305   C.2       1 RES1   0.0000
   151 O3       -0.7781    1.7794   -1.3023   O.2       1 RES1   0.0000
   152 N5       -0.4477    3.6750   -2.4841   N.am      1 RES1   0.0000
   153 C55      -1.8143    3.5985   -2.9702   C.3       1 RES1   0.0000
   154 C56      -1.9756    2.4728   -3.9993   C.3       1 RES1   0.0000
   155 C57      -1.1529    2.6110   -5.2900   C.3       1 RES1   0.0000
   156 C58      -1.9470    3.2252   -6.4523   C.3       1 RES1   0.0000
   157 C59      -3.1231    2.3365   -6.8575   C.3       1 RES1   0.0000
   158 C60      -4.2087    3.0351   -7.6759   C.3       1 RES1   0.0000
   159 C61      -5.4974    2.2147   -7.6659   C.3       1 RES1   0.0000
   160 C62      -6.7176    2.9687   -8.1707   C.3       1 RES1   0.0000
   161 C63       0.3537    4.8622   -2.7856   C.3       1 RES1   0.0000
   162 C64      -0.4138    6.1956   -2.7427   C.3       1 RES1   0.0000
   163 C65       0.5595    7.3799   -2.6309   C.3       1 RES1   0.0000
   164 C66       1.4684    7.5461   -3.8665   C.3       1 RES1   0.0000
   165 C67       1.1253    8.7587   -4.7503   C.3       1 RES1   0.0000
   166 C68       1.2010    8.4794   -6.2534   C.3       1 RES1   0.0000
   167 C69       2.5946    8.1754   -6.8094   C.3       1 RES1   0.0000
   168 C70       3.0870    6.7503   -6.5592   C.3       1 RES1   0.0000
   169 C71       1.5690    2.9908    0.5477   C.3       1 RES1   0.0000
   170 C72       1.5175    2.2123    1.8671   C.2       1 RES1   0.0000
   171 O4        1.0330    1.0588    1.8271   O.2       1 RES1   0.0000
   172 N6        2.0913    2.7118    2.9691   N.am      1 RES1   0.0000
   173 C73       2.3655    4.1367    3.1432   C.3       1 RES1   0.0000
   174 C74       1.5936    4.8228    4.2953   C.3       1 RES1   0.0000
   175 C75       0.9894    6.1569    3.8374   C.3       1 RES1   0.0000
   176 C76       0.0938    6.8807    4.8665   C.3       1 RES1   0.0000
   177 C77      -1.4083    6.6164    4.6809   C.3       1 RES1   0.0000
   178 C78      -2.2886    7.5929    5.4767   C.3       1 RES1   0.0000
   179 C79      -3.7696    7.5900    5.0603   C.3       1 RES1   0.0000
   180 C80      -4.6387    6.6770    5.9152   C.3       1 RES1   0.0000
   181 C81       2.6969    1.7804    3.9287   C.3       1 RES1   0.0000
   182 C82       1.9121    1.3930    5.1936   C.3       1 RES1   0.0000
   183 C83       2.4669    2.0663    6.4522   C.3       1 RES1   0.0000
   184 C84       1.8184    1.5851    7.7535   C.3       1 RES1   0.0000
   185 C85       2.2800    0.2019    8.2139   C.3       1 RES1   0.0000
   186 C86       2.0014   -0.0720    9.6957   C.3       1 RES1   0.0000
   187 C87       0.5369   -0.3033   10.0854   C.3       1 RES1   0.0000
   188 C88      -0.3702    0.9242   10.0571   C.3       1 RES1   0.0000
   189 H90       8.1810    3.5921   -3.7413   H         1 RES1   0.0000
   190 H91       7.1522    2.5785   -2.7405   H         1 RES1   0.0000
   191 H92       8.9029    2.3622   -2.7161   H         1 RES1   0.0000
   192 H93       7.4097    4.8245   -1.6869   H         1 RES1   0.0000
   193 H94       9.1491    4.6923   -1.8220   H         1 RES1   0.0000
   194 H95       8.5180    4.2909    0.4652   H         1 RES1   0.0000
   195 H96       9.2481    2.8664   -0.2563   H         1 RES1   0.0000
   196 H97       7.5421    2.0972    1.1142   H         1 RES1   0.0000
   197 H98       6.9763    1.8541   -0.5245   H         1 RES1   0.0000
   198 H99       6.1756    4.2995    1.0943   H         1 RES1   0.0000
   199 H100      5.3608    2.7621    1.3514   H         1 RES1   0.0000
   200 H101      5.4885    4.2488   -1.3038   H         1 RES1   0.0000
   201 H102      4.1538    4.3416   -0.1742   H         1 RES1   0.0000
   202 H103      5.1893    1.7721   -1.4446   H         1 RES1   0.0000
   203 H104      3.9697    2.7457   -2.2127   H         1 RES1   0.0000
   204 H105      3.6503    1.4697    0.5461   H         1 RES1   0.0000
   205 H106      3.3216    0.6358   -0.9847   H         1 RES1   0.0000
   206 H107      1.6682    1.4961   -2.4449   H         1 RES1   0.0000
   207 H108      2.0359    3.2199   -2.2122   H         1 RES1   0.0000
   208 H109     -2.0710    4.5607   -3.3954   H         1 RES1   0.0000
   209 H110     -2.4619    3.3815   -2.1164   H         1 RES1   0.0000
   210 H111     -3.0321    2.4487   -4.2543   H         1 RES1   0.0000
   211 H112     -1.7446    1.5224   -3.5083   H         1 RES1   0.0000
   212 H113     -0.8244    1.6153   -5.5904   H         1 RES1   0.0000
   213 H114     -0.2553    3.2086   -5.1169   H         1 RES1   0.0000
   214 H115     -1.2834    3.3693   -7.3039   H         1 RES1   0.0000
   215 H116     -2.3208    4.2028   -6.1513   H         1 RES1   0.0000
   216 H117     -3.6031    1.9898   -5.9417   H         1 RES1   0.0000
   217 H118     -2.7566    1.4561   -7.3866   H         1 RES1   0.0000
   218 H119     -3.8774    3.1940   -8.7005   H         1 RES1   0.0000
   219 H120     -4.4148    4.0139   -7.2407   H         1 RES1   0.0000
   220 H121     -5.7135    1.8821   -6.6466   H         1 RES1   0.0000
   221 H122     -5.3524    1.3248   -8.2735   H         1 RES1   0.0000
   222 H123     -6.9509    3.7955   -7.5056   H         1 RES1   0.0000
   223 H124     -7.5814    2.3068   -8.1916   H         1 RES1   0.0000
   224 H125     -6.5539    3.3600   -9.1703   H         1 RES1   0.0000
   225 H126      0.8339    4.7480   -3.7622   H         1 RES1   0.0000
   226 H127      1.1357    4.9397   -2.0285   H         1 RES1   0.0000
   227 H128     -1.0808    6.2013   -1.8764   H         1 RES1   0.0000
   228 H129     -1.0088    6.3444   -3.6453   H         1 RES1   0.0000
   229 H130      1.1699    7.2583   -1.7314   H         1 RES1   0.0000
   230 H131     -0.0300    8.2877   -2.4975   H         1 RES1   0.0000
   231 H132      1.3931    6.6480   -4.4772   H         1 RES1   0.0000
   232 H133      2.5063    7.6277   -3.5374   H         1 RES1   0.0000
   233 H134      1.7918    9.5891   -4.5090   H         1 RES1   0.0000
   234 H135      0.1101    9.0887   -4.5206   H         1 RES1   0.0000
   235 H136      0.8255    9.3685   -6.7627   H         1 RES1   0.0000
   236 H137      0.5268    7.6562   -6.5030   H         1 RES1   0.0000
   237 H138      3.3122    8.8880   -6.3988   H         1 RES1   0.0000
   238 H139      2.5594    8.3334   -7.8897   H         1 RES1   0.0000
   239 H140      3.4205    6.6203   -5.5331   H         1 RES1   0.0000
   240 H141      3.9292    6.5222   -7.2097   H         1 RES1   0.0000
   241 H142      2.2937    6.0319   -6.7691   H         1 RES1   0.0000
   242 H143      0.5784    3.3960    0.3197   H         1 RES1   0.0000
   243 H144      2.2973    3.8093    0.5603   H         1 RES1   0.0000
   244 H145      2.0747    4.6597    2.2351   H         1 RES1   0.0000
   245 H146      3.4415    4.2652    3.2874   H         1 RES1   0.0000
   246 H147      2.2620    5.0109    5.1347   H         1 RES1   0.0000
   247 H148      0.7949    4.1770    4.6506   H         1 RES1   0.0000
   248 H149      0.3924    5.9798    2.9397   H         1 RES1   0.0000
   249 H150      1.8027    6.8309    3.5681   H         1 RES1   0.0000
   250 H151      0.2477    7.9544    4.7407   H         1 RES1   0.0000
   251 H152      0.3965    6.6283    5.8812   H         1 RES1   0.0000
   252 H153     -1.6449    5.5895    4.9619   H         1 RES1   0.0000
   253 H154     -1.6512    6.7507    3.6214   H         1 RES1   0.0000
   254 H155     -1.8884    8.5969    5.3234   H         1 RES1   0.0000
   255 H156     -2.2193    7.3812    6.5457   H         1 RES1   0.0000
   256 H157     -3.8553    7.3012    4.0105   H         1 RES1   0.0000
   257 H158     -4.1663    8.6012    5.1499   H         1 RES1   0.0000
   258 H159     -4.3022    5.6446    5.8527   H         1 RES1   0.0000
   259 H160     -5.6730    6.7143    5.5798   H         1 RES1   0.0000
   260 H161     -4.6085    6.9891    6.9565   H         1 RES1   0.0000
   261 H162      3.6396    2.2371    4.2341   H         1 RES1   0.0000
   262 H163      2.9300    0.8715    3.3700   H         1 RES1   0.0000
   263 H164      1.9847    0.3118    5.3228   H         1 RES1   0.0000
   264 H165      0.8568    1.6289    5.0615   H         1 RES1   0.0000
   265 H166      2.3289    3.1463    6.3755   H         1 RES1   0.0000
   266 H167      3.5401    1.8736    6.5161   H         1 RES1   0.0000
   267 H168      0.7367    1.5924    7.6352   H         1 RES1   0.0000
   268 H169      2.0768    2.2997    8.5370   H         1 RES1   0.0000
   269 H170      3.3613    0.1346    8.0621   H         1 RES1   0.0000
   270 H171      1.8091   -0.5756    7.6087   H         1 RES1   0.0000
   271 H172      2.4159    0.7451   10.2905   H         1 RES1   0.0000
   272 H173      2.5502   -0.9771    9.9712   H         1 RES1   0.0000
   273 H174      0.5380   -0.6867   11.1079   H         1 RES1   0.0000
   274 H175      0.1118   -1.0833    9.4489   H         1 RES1   0.0000
   275 H176      0.1515    1.7952   10.4446   H         1 RES1   0.0000
   276 H177     -1.2396    0.7485   10.6862   H         1 RES1   0.0000
   277 H178     -0.7316    1.1443    9.0557   H         1 RES1   0.0000
   278 C89       8.0907   -2.0649    3.1694   C.3       1 RES1   0.0000
   279 C90       8.3305   -2.9803    1.9741   C.3       1 RES1   0.0000
   280 C91       8.2620   -2.2646    0.6228   C.3       1 RES1   0.0000
   281 C92       6.9375   -1.5848    0.2576   C.3       1 RES1   0.0000
   282 C93       5.7955   -2.5392   -0.1206   C.3       1 RES1   0.0000
   283 C94       4.9569   -3.0611    1.0512   C.3       1 RES1   0.0000
   284 C95       4.1663   -1.9737    1.7840   C.3       1 RES1   0.0000
   285 C96       3.0774   -1.2302    0.9904   C.3       1 RES1   0.0000
   286 N7        1.8016   -1.9014    0.6587   N.4       1 RES1   0.0000
   287 C97       1.3932   -2.7159    1.8060   C.3       1 RES1   0.0000
   288 C98      -0.0172   -3.2355    1.5929   C.2       1 RES1   0.0000
   289 O5       -0.8388   -2.4378    1.0767   O.2       1 RES1   0.0000
   290 N8       -0.3067   -4.4907    1.9284   N.am      1 RES1   0.0000
   291 C99      -1.5616   -5.0781    1.4617   C.3       1 RES1   0.0000
   292 C100     -2.6068   -5.5056    2.5006   C.3       1 RES1   0.0000
   293 C101     -3.1902   -4.4359    3.4220   C.3       1 RES1   0.0000
   294 C102     -2.2231   -3.8458    4.4441   C.3       1 RES1   0.0000
   295 C103     -2.9515   -3.0322    5.5198   C.3       1 RES1   0.0000
   296 C104     -3.7704   -3.9008    6.4897   C.3       1 RES1   0.0000
   297 C105     -5.2819   -3.8413    6.2643   C.3       1 RES1   0.0000
   298 C106     -6.0186   -4.7259    7.2637   C.3       1 RES1   0.0000
   299 C107      0.7171   -5.4121    2.4423   C.3       1 RES1   0.0000
   300 C108      0.2777   -6.5203    3.3978   C.3       1 RES1   0.0000
   301 C109      1.5052   -7.2336    3.9847   C.3       1 RES1   0.0000
   302 C110      2.3661   -6.4162    4.9538   C.3       1 RES1   0.0000
   303 C111      1.6315   -6.0214    6.2440   C.3       1 RES1   0.0000
   304 C112      1.0678   -4.5931    6.2818   C.3       1 RES1   0.0000
   305 C113      2.0118   -3.5585    6.8995   C.3       1 RES1   0.0000
   306 C114      3.2166   -3.2059    6.0368   C.3       1 RES1   0.0000
   307 C115      1.8720   -2.6959   -0.5815   C.3       1 RES1   0.0000
   308 C116      1.2976   -1.8772   -1.7373   C.2       1 RES1   0.0000
   309 O6        0.9262   -0.7004   -1.5070   O.2       1 RES1   0.0000
   310 N9        1.2662   -2.3563   -2.9727   N.am      1 RES1   0.0000
   311 C117      1.4741   -3.7458   -3.3444   C.3       1 RES1   0.0000
   312 C118      0.1578   -4.5210   -3.4989   C.3       1 RES1   0.0000
   313 C119     -0.4877   -4.8940   -2.1670   C.3       1 RES1   0.0000
   314 C120     -1.6924   -5.8228   -2.3422   C.3       1 RES1   0.0000
   315 C121     -2.9136   -5.1424   -2.9538   C.3       1 RES1   0.0000
   316 C122     -4.1332   -6.0625   -2.9307   C.3       1 RES1   0.0000
   317 C123     -5.3069   -5.5213   -3.7491   C.3       1 RES1   0.0000
   318 C124     -5.1409   -5.7549   -5.2453   C.3       1 RES1   0.0000
   319 C125      0.7723   -1.4043   -3.9785   C.3       1 RES1   0.0000
   320 C126      0.8561   -1.8255   -5.4408   C.3       1 RES1   0.0000
   321 C127      2.2581   -1.7806   -6.0553   C.3       1 RES1   0.0000
   322 C128      2.2926   -2.4429   -7.4362   C.3       1 RES1   0.0000
   323 C129      1.5062   -1.6675   -8.4931   C.3       1 RES1   0.0000
   324 C130      1.6871   -2.2343   -9.9099   C.3       1 RES1   0.0000
   325 C131      0.5183   -3.0972  -10.3895   C.3       1 RES1   0.0000
   326 C132      0.3277   -4.3995   -9.6201   C.3       1 RES1   0.0000
   327 H179      8.2998   -2.5938    4.0964   H         1 RES1   0.0000
   328 H180      7.0611   -1.7154    3.2102   H         1 RES1   0.0000
   329 H181      8.7486   -1.2000    3.1219   H         1 RES1   0.0000
   330 H182      7.6354   -3.8212    2.0008   H         1 RES1   0.0000
   331 H183      9.3330   -3.4009    2.0667   H         1 RES1   0.0000
   332 H184      8.5108   -2.9838   -0.1609   H         1 RES1   0.0000
   333 H185      9.0381   -1.4952    0.6166   H         1 RES1   0.0000
   334 H186      7.1398   -0.9512   -0.6109   H         1 RES1   0.0000
   335 H187      6.6320   -0.9205    1.0660   H         1 RES1   0.0000
   336 H188      6.2258   -3.3927   -0.6473   H         1 RES1   0.0000
   337 H189      5.1386   -2.0296   -0.8344   H         1 RES1   0.0000
   338 H190      5.6229   -3.5205    1.7800   H         1 RES1   0.0000
   339 H191      4.2901   -3.8510    0.6933   H         1 RES1   0.0000
   340 H192      4.8772   -1.2012    2.0837   H         1 RES1   0.0000
   341 H193      3.7650   -2.3828    2.7112   H         1 RES1   0.0000
   342 H194      3.5195   -0.8947    0.0581   H         1 RES1   0.0000
   343 H195      2.7977   -0.3529    1.5784   H         1 RES1   0.0000
   344 H196      1.3847   -2.0625    2.6871   H         1 RES1   0.0000
   345 H197      2.1182   -3.5163    1.9579   H         1 RES1   0.0000
   346 H198     -1.2880   -5.9709    0.8887   H         1 RES1   0.0000
   347 H199     -2.0059   -4.3534    0.7756   H         1 RES1   0.0000
   348 H200     -2.2172   -6.3073    3.1199   H         1 RES1   0.0000
   349 H201     -3.4271   -5.9311    1.9142   H         1 RES1   0.0000
   350 H202     -4.0055   -4.9148    3.9642   H         1 RES1   0.0000
   351 H203     -3.6128   -3.6211    2.8393   H         1 RES1   0.0000
   352 H204     -1.4982   -3.2002    3.9374   H         1 RES1   0.0000
   353 H205     -1.6740   -4.6484    4.9379   H         1 RES1   0.0000
   354 H206     -3.6105   -2.3006    5.0441   H         1 RES1   0.0000
   355 H207     -2.2034   -2.4696    6.0821   H         1 RES1   0.0000
   356 H208     -3.5772   -3.5770    7.5139   H         1 RES1   0.0000
   357 H209     -3.4439   -4.9401    6.4168   H         1 RES1   0.0000
   358 H210     -5.5290   -4.1666    5.2506   H         1 RES1   0.0000
   359 H211     -5.6197   -2.8070    6.3696   H         1 RES1   0.0000
   360 H212     -5.7139   -5.7648    7.1510   H         1 RES1   0.0000
   361 H213     -7.0933   -4.6638    7.1103   H         1 RES1   0.0000
   362 H214     -5.7992   -4.4170    8.2831   H         1 RES1   0.0000
   363 H215      1.4477   -4.8414    3.0051   H         1 RES1   0.0000
   364 H216      1.2157   -5.8826    1.5856   H         1 RES1   0.0000
   365 H217     -0.3139   -7.2704    2.8753   H         1 RES1   0.0000
   366 H218     -0.3112   -6.1081    4.2143   H         1 RES1   0.0000
   367 H219      2.1360   -7.5997    3.1715   H         1 RES1   0.0000
   368 H220      1.1421   -8.1113    4.5209   H         1 RES1   0.0000
   369 H221      2.7705   -5.5294    4.4646   H         1 RES1   0.0000
   370 H222      3.2210   -7.0414    5.2159   H         1 RES1   0.0000
   371 H223      2.3058   -6.1366    7.0925   H         1 RES1   0.0000
   372 H224      0.8178   -6.7312    6.4021   H         1 RES1   0.0000
   373 H225      0.1593   -4.5953    6.8890   H         1 RES1   0.0000
   374 H226      0.7871   -4.2626    5.2784   H         1 RES1   0.0000
   375 H227      2.3619   -3.9252    7.8647   H         1 RES1   0.0000
   376 H228      1.4385   -2.6471    7.0885   H         1 RES1   0.0000
   377 H229      3.8645   -4.0681    5.9081   H         1 RES1   0.0000
   378 H230      3.7961   -2.4179    6.5129   H         1 RES1   0.0000
   379 H231      2.8981   -2.8471    5.0560   H         1 RES1   0.0000
   380 H232      1.2891   -3.6116   -0.4696   H         1 RES1   0.0000
   381 H233      2.9007   -2.9751   -0.8379   H         1 RES1   0.0000
   382 H234      2.1028   -4.2334   -2.5993   H         1 RES1   0.0000
   383 H235      2.0144   -3.7576   -4.2913   H         1 RES1   0.0000
   384 H236      0.3775   -5.4350   -4.0536   H         1 RES1   0.0000
   385 H237     -0.5499   -3.9349   -4.0837   H         1 RES1   0.0000
   386 H238     -0.7995   -3.9842   -1.6410   H         1 RES1   0.0000
   387 H239      0.2560   -5.4145   -1.5560   H         1 RES1   0.0000
   388 H240     -1.9719   -6.2274   -1.3673   H         1 RES1   0.0000
   389 H241     -1.4001   -6.6650   -2.9709   H         1 RES1   0.0000
   390 H242     -2.6938   -4.8612   -3.9838   H         1 RES1   0.0000
   391 H243     -3.1326   -4.2285   -2.3934   H         1 RES1   0.0000
   392 H244     -4.4463   -6.2097   -1.8957   H         1 RES1   0.0000
   393 H245     -3.8499   -7.0368   -3.3288   H         1 RES1   0.0000
   394 H246     -5.4306   -4.4527   -3.5497   H         1 RES1   0.0000
   395 H247     -6.2237   -6.0183   -3.4312   H         1 RES1   0.0000
   396 H248     -4.1892   -5.3728   -5.6070   H         1 RES1   0.0000
   397 H249     -5.9386   -5.2647   -5.7976   H         1 RES1   0.0000
   398 H250     -5.1819   -6.8180   -5.4661   H         1 RES1   0.0000
   399 H251      1.3481   -0.4846   -3.8378   H         1 RES1   0.0000
   400 H252     -0.2675   -1.1708   -3.7183   H         1 RES1   0.0000
   401 H253      0.2338   -1.1189   -5.9916   H         1 RES1   0.0000
   402 H254      0.4235   -2.8137   -5.5843   H         1 RES1   0.0000
   403 H255      2.9854   -2.2799   -5.4115   H         1 RES1   0.0000
   404 H256      2.5719   -0.7393   -6.1518   H         1 RES1   0.0000
   405 H257      1.9102   -3.4626   -7.3635   H         1 RES1   0.0000
   406 H258      3.3335   -2.5059   -7.7587   H         1 RES1   0.0000
   407 H259      1.8472   -0.6295   -8.4740   H         1 RES1   0.0000
   408 H260      0.4425   -1.6686   -8.2482   H         1 RES1   0.0000
   409 H261      2.6117   -2.8118   -9.9618   H         1 RES1   0.0000
   410 H262      1.7832   -1.4044  -10.6130   H         1 RES1   0.0000
   411 H263      0.6832   -3.3428  -11.4406   H         1 RES1   0.0000
   412 H264     -0.3953   -2.5022  -10.3307   H         1 RES1   0.0000
   413 H265      1.2406   -4.9909   -9.6442   H         1 RES1   0.0000
   414 H266     -0.4660   -4.9857  -10.0795   H         1 RES1   0.0000
   415 H267      0.0525   -4.2146   -8.5825   H         1 RES1   0.0000
@<TRIPOS>BOND
     1     1    10    1
     2     1    13    1
     3     1    33    1
     4     1   148    1
     5     1   151    1
     6     1   171    1
     7     1   286    1
     8     1   289    1
     9     1   309    1
    10     2     3    1
    11     2    51    1
    12     2    52    1
    13     2    53    1
    14     3     4    1
    15     3    54    1
    16     3    55    1
    17     4     5    1
    18     4    56    1
    19     4    57    1
    20     5     6    1
    21     5    58    1
    22     5    59    1
    23     6     7    1
    24     6    60    1
    25     6    61    1
    26     7     8    1
    27     7    62    1
    28     7    63    1
    29     8     9    1
    30     8    64    1
    31     8    65    1
    32     9    10    1
    33     9    66    1
    34     9    67    1
    35    10    11    1
    36    10    31    1
    37    11    12    1
    38    11    68    1
    39    11    69    1
    40    12    13    2
    41    12    14    1
    42    14    15    1
    43    14    23    1
    44    15    16    1
    45    15    70    1
    46    15    71    1
    47    16    17    1
    48    16    72    1
    49    16    73    1
    50    17    18    1
    51    17    74    1
    52    17    75    1
    53    18    19    1
    54    18    76    1
    55    18    77    1
    56    19    20    1
    57    19    78    1
    58    19    79    1
    59    20    21    1
    60    20    80    1
    61    20    81    1
    62    21    22    1
    63    21    82    1
    64    21    83    1
    65    22    84    1
    66    22    85    1
    67    22    86    1
    68    23    24    1
    69    23    87    1
    70    23    88    1
    71    24    25    1
    72    24    89    1
    73    24    90    1
    74    25    26    1
    75    25    91    1
    76    25    92    1
    77    26    27    1
    78    26    93    1
    79    26    94    1
    80    27    28    1
    81    27    95    1
    82    27    96    1
    83    28    29    1
    84    28    97    1
    85    28    98    1
    86    29    30    1
    87    29    99    1
    88    29   100    1
    89    30   101    1
    90    30   102    1
    91    30   103    1
    92    31    32    1
    93    31   104    1
    94    31   105    1
    95    32    33    2
    96    32    34    1
    97    34    35    1
    98    34    43    1
    99    35    36    1
   100    35   106    1
   101    35   107    1
   102    36    37    1
   103    36   108    1
   104    36   109    1
   105    37    38    1
   106    37   110    1
   107    37   111    1
   108    38    39    1
   109    38   112    1
   110    38   113    1
   111    39    40    1
   112    39   114    1
   113    39   115    1
   114    40    41    1
   115    40   116    1
   116    40   117    1
   117    41    42    1
   118    41   118    1
   119    41   119    1
   120    42   120    1
   121    42   121    1
   122    42   122    1
   123    43    44    1
   124    43   123    1
   125    43   124    1
   126    44    45    1
   127    44   125    1
   128    44   126    1
   129    45    46    1
   130    45   127    1
   131    45   128    1
   132    46    47    1
   133    46   129    1
   134    46   130    1
   135    47    48    1
   136    47   131    1
   137    47   132    1
   138    48    49    1
   139    48   133    1
   140    48   134    1
   141    49    50    1
   142    49   135    1
   143    49   136    1
   144    50   137    1
   145    50   138    1
   146    50   139    1
   147   140   141    1
   148   140   189    1
   149   140   190    1
   150   140   191    1
   151   141   142    1
   152   141   192    1
   153   141   193    1
   154   142   143    1
   155   142   194    1
   156   142   195    1
   157   143   144    1
   158   143   196    1
   159   143   197    1
   160   144   145    1
   161   144   198    1
   162   144   199    1
   163   145   146    1
   164   145   200    1
   165   145   201    1
   166   146   147    1
   167   146   202    1
   168   146   203    1
   169   147   148    1
   170   147   204    1
   171   147   205    1
   172   148   149    1
   173   148   169    1
   174   149   150    1
   175   149   206    1
   176   149   207    1
   177   150   151    2
   178   150   152    1
   179   152   153    1
   180   152   161    1
   181   153   154    1
   182   153   208    1
   183   153   209    1
   184   154   155    1
   185   154   210    1
   186   154   211    1
   187   155   156    1
   188   155   212    1
   189   155   213    1
   190   156   157    1
   191   156   214    1
   192   156   215    1
   193   157   158    1
   194   157   216    1
   195   157   217    1
   196   158   159    1
   197   158   218    1
   198   158   219    1
   199   159   160    1
   200   159   220    1
   201   159   221    1
   202   160   222    1
   203   160   223    1
   204   160   224    1
   205   161   162    1
   206   161   225    1
   207   161   226    1
   208   162   163    1
   209   162   227    1
   210   162   228    1
   211   163   164    1
   212   163   229    1
   213   163   230    1
   214   164   165    1
   215   164   231    1
   216   164   232    1
   217   165   166    1
   218   165   233    1
   219   165   234    1
   220   166   167    1
   221   166   235    1
   222   166   236    1
   223   167   168    1
   224   167   237    1
   225   167   238    1
   226   168   239    1
   227   168   240    1
   228   168   241    1
   229   169   170    1
   230   169   242    1
   231   169   243    1
   232   170   171    2
   233   170   172    1
   234   172   173    1
   235   172   181    1
   236   173   174    1
   237   173   244    1
   238   173   245    1
   239   174   175    1
   240   174   246    1
   241   174   247    1
   242   175   176    1
   243   175   248    1
   244   175   249    1
   245   176   177    1
   246   176   250    1
   247   176   251    1
   248   177   178    1
   249   177   252    1
   250   177   253    1
   251   178   179    1
   252   178   254    1
   253   178   255    1
   254   179   180    1
   255   179   256    1
   256   179   257    1
   257   180   258    1
   258   180   259    1
   259   180   260    1
   260   181   182    1
   261   181   261    1
   262   181   262    1
   263   182   183    1
   264   182   263    1
   265   182   264    1
   266   183   184    1
   267   183   265    1
   268   183   266    1
   269   184   185    1
   270   184   267    1
   271   184   268    1
   272   185   186    1
   273   185   269    1
   274   185   270    1
   275   186   187    1
   276   186   271    1
   277   186   272    1
   278   187   188    1
   279   187   273    1
   280   187   274    1
   281   188   275    1
   282   188   276    1
   283   188   277    1
   284   278   279    1
   285   278   327    1
   286   278   328    1
   287   278   329    1
   288   279   280    1
   289   279   330    1
   290   279   331    1
   291   280   281    1
   292   280   332    1
   293   280   333    1
   294   281   282    1
   295   281   334    1
   296   281   335    1
   297   282   283    1
   298   282   336    1
   299   282   337    1
   300   283   284    1
   301   283   338    1
   302   283   339    1
   303   284   285    1
   304   284   340    1
   305   284   341    1
   306   285   286    1
   307   285   342    1
   308   285   343    1
   309   286   287    1
   310   286   307    1
   311   287   288    1
   312   287   344    1
   313   287   345    1
   314   288   289    2
   315   288   290    1
   316   290   291    1
   317   290   299    1
   318   291   292    1
   319   291   346    1
   320   291   347    1
   321   292   293    1
   322   292   348    1
   323   292   349    1
   324   293   294    1
   325   293   350    1
   326   293   351    1
   327   294   295    1
   328   294   352    1
   329   294   353    1
   330   295   296    1
   331   295   354    1
   332   295   355    1
   333   296   297    1
   334   296   356    1
   335   296   357    1
   336   297   298    1
   337   297   358    1
   338   297   359    1
   339   298   360    1
   340   298   361    1
   341   298   362    1
   342   299   300    1
   343   299   363    1
   344   299   364    1
   345   300   301    1
   346   300   365    1
   347   300   366    1
   348   301   302    1
   349   301   367    1
   350   301   368    1
   351   302   303    1
   352   302   369    1
   353   302   370    1
   354   303   304    1
   355   303   371    1
   356   303   372    1
   357   304   305    1
   358   304   373    1
   359   304   374    1
   360   305   306    1
   361   305   375    1
   362   305   376    1
   363   306   377    1
   364   306   378    1
   365   306   379    1
   366   307   308    1
   367   307   380    1
   368   307   381    1
   369   308   309    2
   370   308   310    1
   371   310   311    1
   372   310   319    1
   373   311   312    1
   374   311   382    1
   375   311   383    1
   376   312   313    1
   377   312   384    1
   378   312   385    1
   379   313   314    1
   380   313   386    1
   381   313   387    1
   382   314   315    1
   383   314   388    1
   384   314   389    1
   385   315   316    1
   386   315   390    1
   387   315   391    1
   388   316   317    1
   389   316   392    1
   390   316   393    1
   391   317   318    1
   392   317   394    1
   393   317   395    1
   394   318   396    1
   395   318   397    1
   396   318   398    1
   397   319   320    1
   398   319   399    1
   399   319   400    1
   400   320   321    1
   401   320   401    1
   402   320   402    1
   403   321   322    1
   404   321   403    1
   405   321   404    1
   406   322   323    1
   407   322   405    1
   408   322   406    1
   409   323   324    1
   410   323   407    1
   411   323   408    1
   412   324   325    1
   413   324   409    1
   414   324   410    1
   415   325   326    1
   416   325   411    1
   417   325   412    1
   418   326   413    1
   419   326   414    1
   420   326   415    1
@<TRIPOS>SUBSTRUCTURE
     1 RES1      415 GROUP             0 ****  ****    0  
