@<TRIPOS>MOLECULE
cn9_YICLED_0_nunpairedes_0_charge_3 Charge: 3 Unpaired_Electrons: 6 XTB_Unpaired_Electrons: 0 XTB_Charge: 3
   166   174     1     0     0
SMALL
NoCharges
****
Generated from Architector

@<TRIPOS>ATOM
     1 Eu1      -0.1634    0.5197    0.2287   Eu        1 RES1   0.0000
     2 C1       -7.7753   -4.2925   -2.9137   C.3       1 RES1   0.0000
     3 C2       -6.5923   -3.3932   -3.2495   C.3       1 RES1   0.0000
     4 C3       -5.3433   -3.7169   -2.4258   C.3       1 RES1   0.0000
     5 C4       -4.7123   -5.0667   -2.7689   C.3       1 RES1   0.0000
     6 C5       -3.3819   -5.2873   -2.0467   C.3       1 RES1   0.0000
     7 C6       -3.5123   -5.5925   -0.5559   C.3       1 RES1   0.0000
     8 C7       -2.1415   -5.6605    0.1210   C.3       1 RES1   0.0000
     9 C8       -2.1913   -6.3006    1.5098   C.3       1 RES1   0.0000
    10 C9       -2.9762   -5.5094    2.5572   C.3       1 RES1   0.0000
    11 C10      -2.2798   -4.1996    2.9280   C.3       1 RES1   0.0000
    12 C11      -2.9781   -3.4758    4.0757   C.3       1 RES1   0.0000
    13 C12      -2.3051   -2.1371    4.3896   C.3       1 RES1   0.0000
    14 N1       -2.4863   -1.2334    3.2703   N.am      1 RES1   0.0000
    15 C13      -1.6124   -0.8279    2.3934   C.2       1 RES1   0.0000
    16 O1       -1.9488   -0.2166    1.3348   O.2       1 RES1   0.0000
    17 C14      -0.1148   -1.0239    2.4768   C.ar      1 RES1   0.0000
    18 C15       0.7095    0.0446    2.8782   C.ar      1 RES1   0.0000
    19 C16       2.1032   -0.0902    2.6611   C.ar      1 RES1   0.0000
    20 O2        3.0066    0.8419    2.9018   O.3       1 RES1   0.0000
    21 C17       2.6034    2.1052    3.4160   C.3       1 RES1   0.0000
    22 C18       2.5654   -1.3171    2.1270   C.ar      1 RES1   0.0000
    23 C19       1.6540   -2.2874    1.7690   C.ar      1 RES1   0.0000
    24 N2        0.3318   -2.1218    1.8648   N.ar      1 RES1   0.0000
    25 H1       -8.6603   -3.9601   -3.4493   H         1 RES1   0.0000
    26 H2       -7.9875   -4.2632   -1.8464   H         1 RES1   0.0000
    27 H3       -7.5758   -5.3214   -3.1992   H         1 RES1   0.0000
    28 H4       -6.8726   -2.3517   -3.0586   H         1 RES1   0.0000
    29 H5       -6.3584   -3.4800   -4.3128   H         1 RES1   0.0000
    30 H6       -5.6148   -3.7007   -1.3665   H         1 RES1   0.0000
    31 H7       -4.6013   -2.9299   -2.6047   H         1 RES1   0.0000
    32 H8       -4.5388   -5.1055   -3.8470   H         1 RES1   0.0000
    33 H9       -5.3985   -5.8733   -2.5159   H         1 RES1   0.0000
    34 H10      -2.7726   -4.3856   -2.1580   H         1 RES1   0.0000
    35 H11      -2.8486   -6.1084   -2.5284   H         1 RES1   0.0000
    36 H12      -4.0214   -6.5477   -0.4305   H         1 RES1   0.0000
    37 H13      -4.1225   -4.8243   -0.0781   H         1 RES1   0.0000
    38 H14      -1.7023   -4.6574    0.1796   H         1 RES1   0.0000
    39 H15      -1.4793   -6.2658   -0.5025   H         1 RES1   0.0000
    40 H16      -1.1711   -6.4443    1.8734   H         1 RES1   0.0000
    41 H17      -2.6446   -7.2866    1.4088   H         1 RES1   0.0000
    42 H18      -3.0692   -6.1246    3.4532   H         1 RES1   0.0000
    43 H19      -3.9851   -5.3075    2.1949   H         1 RES1   0.0000
    44 H20      -2.2427   -3.5443    2.0524   H         1 RES1   0.0000
    45 H21      -1.2502   -4.4186    3.2179   H         1 RES1   0.0000
    46 H22      -2.9507   -4.0946    4.9718   H         1 RES1   0.0000
    47 H23      -4.0282   -3.3097    3.8303   H         1 RES1   0.0000
    48 H24      -1.2400   -2.2770    4.5664   H         1 RES1   0.0000
    49 H25      -2.7590   -1.6813    5.2708   H         1 RES1   0.0000
    50 H26      -3.4608   -1.0477    3.0384   H         1 RES1   0.0000
    51 H27       0.2858    0.8765    3.4392   H         1 RES1   0.0000
    52 H28       2.2815    2.0140    4.4567   H         1 RES1   0.0000
    53 H29       1.8038    2.5438    2.8043   H         1 RES1   0.0000
    54 H30       3.4882    2.7355    3.3633   H         1 RES1   0.0000
    55 H31       3.6247   -1.4757    1.9926   H         1 RES1   0.0000
    56 H32       1.9730   -3.2427    1.3715   H         1 RES1   0.0000
    57 C20      -7.6932    6.1951    3.4772   C.3       1 RES1   0.0000
    58 C21      -7.8668    4.8127    2.8687   C.3       1 RES1   0.0000
    59 C22      -7.2269    3.7212    3.7249   C.3       1 RES1   0.0000
    60 C23      -7.3638    2.3115    3.1331   C.3       1 RES1   0.0000
    61 C24      -6.1147    1.8130    2.3982   C.3       1 RES1   0.0000
    62 C25      -5.6528    2.6997    1.2396   C.3       1 RES1   0.0000
    63 C26      -6.5866    2.6399    0.0312   C.3       1 RES1   0.0000
    64 C27      -6.4782    3.8201   -0.9379   C.3       1 RES1   0.0000
    65 C28      -5.1720    3.9216   -1.7312   C.3       1 RES1   0.0000
    66 C29      -4.0412    4.6358   -0.9915   C.3       1 RES1   0.0000
    67 C30      -2.8487    4.8700   -1.9216   C.3       1 RES1   0.0000
    68 C31      -1.5902    5.3269   -1.1872   C.3       1 RES1   0.0000
    69 N3       -1.1877    4.4537   -0.0874   N.am      1 RES1   0.0000
    70 C32      -1.1393    3.1476   -0.0278   C.2       1 RES1   0.0000
    71 O3       -0.7336    2.5327    1.0010   O.2       1 RES1   0.0000
    72 C33      -1.5404    2.2229   -1.1671   C.ar      1 RES1   0.0000
    73 C34      -2.6125    1.3374   -0.9536   C.ar      1 RES1   0.0000
    74 C35      -2.8460    0.3218   -1.9067   C.ar      1 RES1   0.0000
    75 O4       -3.7154   -0.6622   -1.8059   O.3       1 RES1   0.0000
    76 C36      -4.3755   -0.9938   -0.5902   C.3       1 RES1   0.0000
    77 C37      -2.0754    0.3822   -3.0932   C.ar      1 RES1   0.0000
    78 C38      -1.0371    1.2813   -3.1843   C.ar      1 RES1   0.0000
    79 N4       -0.7026    2.1337   -2.2027   N.ar      1 RES1   0.0000
    80 H33      -8.1325    6.9512    2.8335   H         1 RES1   0.0000
    81 H34      -6.6404    6.4311    3.6189   H         1 RES1   0.0000
    82 H35      -8.1824    6.2500    4.4463   H         1 RES1   0.0000
    83 H36      -7.4388    4.8017    1.8632   H         1 RES1   0.0000
    84 H37      -8.9325    4.5996    2.7592   H         1 RES1   0.0000
    85 H38      -7.7115    3.7464    4.7029   H         1 RES1   0.0000
    86 H39      -6.1711    3.9514    3.8923   H         1 RES1   0.0000
    87 H40      -8.2244    2.2886    2.4642   H         1 RES1   0.0000
    88 H41      -7.5685    1.6005    3.9372   H         1 RES1   0.0000
    89 H42      -6.3170    0.8067    2.0178   H         1 RES1   0.0000
    90 H43      -5.2967    1.7402    3.1234   H         1 RES1   0.0000
    91 H44      -4.6454    2.3759    0.9527   H         1 RES1   0.0000
    92 H45      -5.5716    3.7272    1.5899   H         1 RES1   0.0000
    93 H46      -7.6135    2.6184    0.3962   H         1 RES1   0.0000
    94 H47      -6.4260    1.7073   -0.5166   H         1 RES1   0.0000
    95 H48      -6.6398    4.7546   -0.3986   H         1 RES1   0.0000
    96 H49      -7.2962    3.7178   -1.6522   H         1 RES1   0.0000
    97 H50      -5.3679    4.4794   -2.6479   H         1 RES1   0.0000
    98 H51      -4.8477    2.9191   -2.0247   H         1 RES1   0.0000
    99 H52      -3.7328    4.0473   -0.1273   H         1 RES1   0.0000
   100 H53      -4.4092    5.5906   -0.6150   H         1 RES1   0.0000
   101 H54      -3.0934    5.6543   -2.6392   H         1 RES1   0.0000
   102 H55      -2.6380    3.9689   -2.5007   H         1 RES1   0.0000
   103 H56      -1.7645    6.3094   -0.7477   H         1 RES1   0.0000
   104 H57      -0.7611    5.4125   -1.8981   H         1 RES1   0.0000
   105 H58      -0.9017    4.9341    0.7630   H         1 RES1   0.0000
   106 H59      -3.2793    1.4969   -0.1087   H         1 RES1   0.0000
   107 H60      -4.0673   -2.0111   -0.3417   H         1 RES1   0.0000
   108 H61      -5.4486   -0.9944   -0.7737   H         1 RES1   0.0000
   109 H62      -4.1337   -0.3235    0.2309   H         1 RES1   0.0000
   110 H63      -2.3355   -0.2707   -3.9119   H         1 RES1   0.0000
   111 H64      -0.4261    1.3462   -4.0745   H         1 RES1   0.0000
   112 C39       4.8249    5.8887   -7.3171   C.3       1 RES1   0.0000
   113 C40       4.5027    4.4053   -7.3449   C.3       1 RES1   0.0000
   114 C41       3.0321    4.1295   -7.0455   C.3       1 RES1   0.0000
   115 C42       2.6371    2.6488   -7.1164   C.3       1 RES1   0.0000
   116 C43       2.5862    1.9375   -5.7606   C.3       1 RES1   0.0000
   117 C44       3.9162    1.8346   -5.0102   C.3       1 RES1   0.0000
   118 C45       4.9756    1.0324   -5.7619   C.3       1 RES1   0.0000
   119 C46       6.3375    0.9854   -5.0693   C.3       1 RES1   0.0000
   120 C47       6.3370    0.2374   -3.7327   C.3       1 RES1   0.0000
   121 C48       6.1054    1.1336   -2.5113   C.3       1 RES1   0.0000
   122 C49       5.9812    0.2662   -1.2577   C.3       1 RES1   0.0000
   123 C50       5.4802    0.9846   -0.0064   C.3       1 RES1   0.0000
   124 N5        4.0990    1.4637   -0.0169   N.am      1 RES1   0.0000
   125 C51       2.9428    0.8641   -0.1833   C.2       1 RES1   0.0000
   126 O5        1.8651    1.4712    0.1440   O.2       1 RES1   0.0000
   127 C52       2.7211   -0.4937   -0.7806   C.ar      1 RES1   0.0000
   128 C53       1.4767   -0.6179   -1.4221   C.ar      1 RES1   0.0000
   129 C54       1.0698   -1.8670   -1.9291   C.ar      1 RES1   0.0000
   130 O6       -0.1973   -1.8946   -2.3695   O.3       1 RES1   0.0000
   131 C55      -0.6696   -2.9229   -3.2542   C.3       1 RES1   0.0000
   132 C56       2.0037   -2.9066   -1.8798   C.ar      1 RES1   0.0000
   133 C57       3.2208   -2.6608   -1.2544   C.ar      1 RES1   0.0000
   134 N6        3.5583   -1.5141   -0.6793   N.ar      1 RES1   0.0000
   135 H65       5.8808    6.0521   -7.5056   H         1 RES1   0.0000
   136 H66       4.5718    6.3256   -6.3538   H         1 RES1   0.0000
   137 H67       4.2608    6.4187   -8.0812   H         1 RES1   0.0000
   138 H68       5.1339    3.8830   -6.6203   H         1 RES1   0.0000
   139 H69       4.7515    4.0001   -8.3291   H         1 RES1   0.0000
   140 H70       2.4423    4.6821   -7.7817   H         1 RES1   0.0000
   141 H71       2.7720    4.5358   -6.0639   H         1 RES1   0.0000
   142 H72       3.3189    2.1238   -7.7856   H         1 RES1   0.0000
   143 H73       1.6394    2.5687   -7.5583   H         1 RES1   0.0000
   144 H74       2.2012    0.9263   -5.9255   H         1 RES1   0.0000
   145 H75       1.8725    2.4674   -5.1182   H         1 RES1   0.0000
   146 H76       3.7054    1.3453   -4.0533   H         1 RES1   0.0000
   147 H77       4.2961    2.8362   -4.8013   H         1 RES1   0.0000
   148 H78       5.1235    1.4713   -6.7472   H         1 RES1   0.0000
   149 H79       4.6168    0.0119   -5.9144   H         1 RES1   0.0000
   150 H80       6.7148    1.9969   -4.9202   H         1 RES1   0.0000
   151 H81       7.0280    0.4840   -5.7480   H         1 RES1   0.0000
   152 H82       7.2948   -0.2666   -3.6041   H         1 RES1   0.0000
   153 H83       5.5721   -0.5428   -3.7681   H         1 RES1   0.0000
   154 H84       5.2095    1.7387   -2.6525   H         1 RES1   0.0000
   155 H85       6.9489    1.8170   -2.4054   H         1 RES1   0.0000
   156 H86       6.9660   -0.1332   -1.0087   H         1 RES1   0.0000
   157 H87       5.3329   -0.5820   -1.4664   H         1 RES1   0.0000
   158 H88       6.0962    1.8652    0.1749   H         1 RES1   0.0000
   159 H89       5.5952    0.3035    0.8436   H         1 RES1   0.0000
   160 H90       3.9919    2.4334    0.2800   H         1 RES1   0.0000
   161 H91       0.9529    0.2890   -1.7759   H         1 RES1   0.0000
   162 H92      -1.7096   -3.1069   -2.9995   H         1 RES1   0.0000
   163 H93      -0.1163   -3.8517   -3.1589   H         1 RES1   0.0000
   164 H94      -0.6102   -2.5666   -4.2838   H         1 RES1   0.0000
   165 H95       1.7972   -3.8717   -2.3124   H         1 RES1   0.0000
   166 H96       3.9626   -3.4426   -1.1831   H         1 RES1   0.0000
@<TRIPOS>BOND
     1     1    16    1
     2     1    20    1
     3     1    24    1
     4     1    71    1
     5     1    75    1
     6     1    79    1
     7     1   126    1
     8     1   130    1
     9     1   134    1
    10     2     3    1
    11     2    25    1
    12     2    26    1
    13     2    27    1
    14     3     4    1
    15     3    28    1
    16     3    29    1
    17     4     5    1
    18     4    30    1
    19     4    31    1
    20     5     6    1
    21     5    32    1
    22     5    33    1
    23     6     7    1
    24     6    34    1
    25     6    35    1
    26     7     8    1
    27     7    36    1
    28     7    37    1
    29     8     9    1
    30     8    38    1
    31     8    39    1
    32     9    10    1
    33     9    40    1
    34     9    41    1
    35    10    11    1
    36    10    42    1
    37    10    43    1
    38    11    12    1
    39    11    44    1
    40    11    45    1
    41    12    13    1
    42    12    46    1
    43    12    47    1
    44    13    14    1
    45    13    48    1
    46    13    49    1
    47    14    15    1
    48    14    50    1
    49    15    16    2
    50    15    17    1
    51    17    18    1
    52    17    24    2
    53    18    19    2
    54    18    51    1
    55    19    20    1
    56    19    22    1
    57    20    21    1
    58    21    52    1
    59    21    53    1
    60    21    54    1
    61    22    23    2
    62    22    55    1
    63    23    24    1
    64    23    56    1
    65    57    58    1
    66    57    80    1
    67    57    81    1
    68    57    82    1
    69    58    59    1
    70    58    83    1
    71    58    84    1
    72    59    60    1
    73    59    85    1
    74    59    86    1
    75    60    61    1
    76    60    87    1
    77    60    88    1
    78    61    62    1
    79    61    89    1
    80    61    90    1
    81    62    63    1
    82    62    91    1
    83    62    92    1
    84    63    64    1
    85    63    93    1
    86    63    94    1
    87    64    65    1
    88    64    95    1
    89    64    96    1
    90    65    66    1
    91    65    97    1
    92    65    98    1
    93    66    67    1
    94    66    99    1
    95    66   100    1
    96    67    68    1
    97    67   101    1
    98    67   102    1
    99    68    69    1
   100    68   103    1
   101    68   104    1
   102    69    70    1
   103    69   105    1
   104    70    71    2
   105    70    72    1
   106    72    73    1
   107    72    79    2
   108    73    74    2
   109    73   106    1
   110    74    75    1
   111    74    77    1
   112    75    76    1
   113    76   107    1
   114    76   108    1
   115    76   109    1
   116    77    78    2
   117    77   110    1
   118    78    79    1
   119    78   111    1
   120   112   113    1
   121   112   135    1
   122   112   136    1
   123   112   137    1
   124   113   114    1
   125   113   138    1
   126   113   139    1
   127   114   115    1
   128   114   140    1
   129   114   141    1
   130   115   116    1
   131   115   142    1
   132   115   143    1
   133   116   117    1
   134   116   144    1
   135   116   145    1
   136   117   118    1
   137   117   146    1
   138   117   147    1
   139   118   119    1
   140   118   148    1
   141   118   149    1
   142   119   120    1
   143   119   150    1
   144   119   151    1
   145   120   121    1
   146   120   152    1
   147   120   153    1
   148   121   122    1
   149   121   154    1
   150   121   155    1
   151   122   123    1
   152   122   156    1
   153   122   157    1
   154   123   124    1
   155   123   158    1
   156   123   159    1
   157   124   125    1
   158   124   160    1
   159   125   126    2
   160   125   127    1
   161   127   128    1
   162   127   134    2
   163   128   129    2
   164   128   161    1
   165   129   130    1
   166   129   132    1
   167   130   131    1
   168   131   162    1
   169   131   163    1
   170   131   164    1
   171   132   133    2
   172   132   165    1
   173   133   134    1
   174   133   166    1
@<TRIPOS>SUBSTRUCTURE
     1 RES1      166 GROUP             0 ****  ****    0  
