@<TRIPOS>MOLECULE
am_c3_9H2O_c0_0_nunpairedes_0_charge_3 Charge: 3 Unpaired_Electrons: 6 XTB_Unpaired_Electrons: 0 XTB_Charge: 3
   268   273     1     0     0
SMALL
NoCharges
****
Generated from Architector

@<TRIPOS>ATOM
     1 Eu1      -0.1378   -0.0668   -0.0336   Eu        1 RES1   0.0000
     2 C1       -5.9857    1.0263   -7.5826   C.3       1 RES1   0.0000
     3 C2       -6.8622    1.5573   -6.4550   C.3       1 RES1   0.0000
     4 C3       -6.2115    1.5082   -5.0713   C.3       1 RES1   0.0000
     5 C4       -5.0727    2.5136   -4.8866   C.3       1 RES1   0.0000
     6 C5       -3.6823    1.9861   -5.2335   C.3       1 RES1   0.0000
     7 C6       -3.1531    0.9127   -4.2659   C.3       1 RES1   0.0000
     8 C7       -3.0616   -0.4573   -4.9373   C.3       1 RES1   0.0000
     9 C8       -2.2294   -1.4850   -4.1625   C.3       1 RES1   0.0000
    10 N1       -2.9001   -1.9212   -2.9420   N.am      1 RES1   0.0000
    11 C9       -4.0619   -2.7870   -3.1100   C.3       1 RES1   0.0000
    12 C10      -3.7560   -4.0701   -3.9091   C.3       1 RES1   0.0000
    13 C11      -3.1786   -5.2306   -3.0823   C.3       1 RES1   0.0000
    14 C12      -1.7621   -5.7050   -3.4304   C.3       1 RES1   0.0000
    15 C13      -0.6104   -4.8474   -2.9005   C.3       1 RES1   0.0000
    16 C14       0.6621   -5.6649   -2.6248   C.3       1 RES1   0.0000
    17 C15       1.1568   -6.5569   -3.7652   C.3       1 RES1   0.0000
    18 C16       1.6417   -5.7811   -4.9801   C.3       1 RES1   0.0000
    19 C17      -2.3822   -1.5541   -1.7725   C.2       1 RES1   0.0000
    20 O1       -1.1713   -1.2928   -1.6399   O.2       1 RES1   0.0000
    21 C18      -3.3011   -1.3871   -0.5399   C.3       1 RES1   0.0000
    22 N2       -2.7345   -0.3741    0.3727   N.4       1 RES1   0.0000
    23 C19      -3.3700    0.9351    0.4534   C.3       1 RES1   0.0000
    24 P1       -2.4426    1.7791    1.8835   P.3       1 RES1   0.0000
    25 O2       -1.0497    1.2340    1.7691   O.2       1 RES1   0.0000
    26 C20      -3.4516    1.2758    3.3445   C.3       1 RES1   0.0000
    27 C21      -3.6529   -0.2046    3.6680   C.3       1 RES1   0.0000
    28 C22      -2.3720   -0.8600    4.1870   C.3       1 RES1   0.0000
    29 C23      -2.6558   -2.2093    4.8380   C.3       1 RES1   0.0000
    30 C24      -2.3234    3.5936    2.3706   C.3       1 RES1   0.0000
    31 C25      -2.0197    4.8373    1.5269   C.3       1 RES1   0.0000
    32 C26      -1.1426    5.8203    2.3105   C.3       1 RES1   0.0000
    33 C27      -0.7715    7.0300    1.4555   C.3       1 RES1   0.0000
    34 H1       -6.5694    0.9463   -8.4948   H         1 RES1   0.0000
    35 H2       -5.6032    0.0356   -7.3421   H         1 RES1   0.0000
    36 H3       -5.1510    1.6919   -7.7840   H         1 RES1   0.0000
    37 H4       -7.7823    0.9714   -6.4275   H         1 RES1   0.0000
    38 H5       -7.1505    2.5870   -6.6735   H         1 RES1   0.0000
    39 H6       -5.8483    0.4995   -4.8707   H         1 RES1   0.0000
    40 H7       -6.9911    1.7214   -4.3373   H         1 RES1   0.0000
    41 H8       -5.0583    2.8502   -3.8507   H         1 RES1   0.0000
    42 H9       -5.2869    3.3920   -5.4949   H         1 RES1   0.0000
    43 H10      -3.0031    2.8392   -5.2460   H         1 RES1   0.0000
    44 H11      -3.6896    1.5797   -6.2400   H         1 RES1   0.0000
    45 H12      -3.7910    0.8572   -3.3813   H         1 RES1   0.0000
    46 H13      -2.1561    1.1910   -3.9226   H         1 RES1   0.0000
    47 H14      -2.5830   -0.3281   -5.9068   H         1 RES1   0.0000
    48 H15      -4.0574   -0.8516   -5.1311   H         1 RES1   0.0000
    49 H16      -1.2878   -1.0308   -3.8502   H         1 RES1   0.0000
    50 H17      -2.0341   -2.3565   -4.7887   H         1 RES1   0.0000
    51 H18      -4.8631   -2.2392   -3.6118   H         1 RES1   0.0000
    52 H19      -4.4216   -3.0928   -2.1285   H         1 RES1   0.0000
    53 H20      -3.0932   -3.8615   -4.7416   H         1 RES1   0.0000
    54 H21      -4.6936   -4.3912   -4.3605   H         1 RES1   0.0000
    55 H22      -3.8310   -6.0914   -3.2237   H         1 RES1   0.0000
    56 H23      -3.2175   -4.9720   -2.0254   H         1 RES1   0.0000
    57 H24      -1.6754   -5.8092   -4.5102   H         1 RES1   0.0000
    58 H25      -1.6481   -6.7048   -3.0105   H         1 RES1   0.0000
    59 H26      -0.9134   -4.3767   -1.9596   H         1 RES1   0.0000
    60 H27      -0.3876   -4.0386   -3.5960   H         1 RES1   0.0000
    61 H28       0.4780   -6.3130   -1.7649   H         1 RES1   0.0000
    62 H29       1.4744   -4.9842   -2.3501   H         1 RES1   0.0000
    63 H30       0.3698   -7.2482   -4.0605   H         1 RES1   0.0000
    64 H31       1.9848   -7.1599   -3.3858   H         1 RES1   0.0000
    65 H32       0.8377   -5.2033   -5.4258   H         1 RES1   0.0000
    66 H33       2.0248   -6.4620   -5.7335   H         1 RES1   0.0000
    67 H34       2.4489   -5.1072   -4.7013   H         1 RES1   0.0000
    68 H35      -3.3288   -2.3390    0.0010   H         1 RES1   0.0000
    69 H36      -4.3178   -1.1482   -0.8725   H         1 RES1   0.0000
    70 H37      -2.7305   -0.7618    1.3143   H         1 RES1   0.0000
    71 H38      -4.4384    0.8705    0.6925   H         1 RES1   0.0000
    72 H39      -3.2193    1.4668   -0.4841   H         1 RES1   0.0000
    73 H40      -4.4275    1.7399    3.1762   H         1 RES1   0.0000
    74 H41      -3.0247    1.7656    4.2230   H         1 RES1   0.0000
    75 H42      -4.0624   -0.7489    2.8102   H         1 RES1   0.0000
    76 H43      -4.4110   -0.2659    4.4555   H         1 RES1   0.0000
    77 H44      -1.9379   -0.1931    4.9355   H         1 RES1   0.0000
    78 H45      -1.6487   -0.9579    3.3694   H         1 RES1   0.0000
    79 H46      -3.3718   -2.0823    5.6457   H         1 RES1   0.0000
    80 H47      -1.7452   -2.6233    5.2580   H         1 RES1   0.0000
    81 H48      -3.0618   -2.9234    4.1254   H         1 RES1   0.0000
    82 H49      -1.5095    3.4795    3.1016   H         1 RES1   0.0000
    83 H50      -3.2405    3.7888    2.9257   H         1 RES1   0.0000
    84 H51      -2.9465    5.3534    1.2823   H         1 RES1   0.0000
    85 H52      -1.5176    4.6077    0.5895   H         1 RES1   0.0000
    86 H53      -0.2305    5.3153    2.6495   H         1 RES1   0.0000
    87 H54      -1.6925    6.1591    3.1913   H         1 RES1   0.0000
    88 H55      -0.1713    6.7250    0.5974   H         1 RES1   0.0000
    89 H56      -0.2007    7.7380    2.0507   H         1 RES1   0.0000
    90 H57      -1.6617    7.5408    1.0924   H         1 RES1   0.0000
    91 C28       0.8931    4.9927    8.3115   C.3       1 RES1   0.0000
    92 C29       0.3047    5.8321    7.1852   C.3       1 RES1   0.0000
    93 C30      -0.0344    5.0506    5.9144   C.3       1 RES1   0.0000
    94 C31      -1.1500    4.0159    6.0857   C.3       1 RES1   0.0000
    95 C32      -0.7149    2.6137    6.5151   C.3       1 RES1   0.0000
    96 C33      -0.0232    1.7533    5.4483   C.3       1 RES1   0.0000
    97 C34       1.5014    1.8452    5.4562   C.3       1 RES1   0.0000
    98 C35       2.1509    0.8616    4.4667   C.3       1 RES1   0.0000
    99 N3        2.6931    1.5066    3.2683   N.am      1 RES1   0.0000
   100 C36       3.8532    2.3621    3.4833   C.3       1 RES1   0.0000
   101 C37       5.0704    1.6358    4.0779   C.3       1 RES1   0.0000
   102 C38       5.8288    0.6851    3.1372   C.3       1 RES1   0.0000
   103 C39       5.7133   -0.8037    3.4766   C.3       1 RES1   0.0000
   104 C40       4.4359   -1.4799    2.9852   C.3       1 RES1   0.0000
   105 C41       4.5215   -3.0059    3.0692   C.3       1 RES1   0.0000
   106 C42       4.7929   -3.5565    4.4721   C.3       1 RES1   0.0000
   107 C43       3.7852   -3.1338    5.5358   C.3       1 RES1   0.0000
   108 C44       2.1469    1.2522    2.0789   C.2       1 RES1   0.0000
   109 O3        1.4075    0.2739    1.8709   O.2       1 RES1   0.0000
   110 C45       2.4281    2.1890    0.8760   C.3       1 RES1   0.0000
   111 N4        1.3149    2.1194   -0.0988   N.4       1 RES1   0.0000
   112 C46       0.4130    3.2736   -0.0238   C.3       1 RES1   0.0000
   113 P2       -0.9378    3.0208   -1.3518   P.3       1 RES1   0.0000
   114 O4       -1.0496    1.5281   -1.4729   O.2       1 RES1   0.0000
   115 C47      -0.2272    3.9704   -2.7634   C.3       1 RES1   0.0000
   116 C48       0.8984    3.3658   -3.5906   C.3       1 RES1   0.0000
   117 C49       0.3971    2.3003   -4.5622   C.3       1 RES1   0.0000
   118 C50       1.4505    2.0080   -5.6201   C.3       1 RES1   0.0000
   119 C51      -2.6066    3.8945   -1.4694   C.3       1 RES1   0.0000
   120 C52      -3.8253    3.8249   -0.5388   C.3       1 RES1   0.0000
   121 C53      -5.0336    3.1302   -1.1693   C.3       1 RES1   0.0000
   122 C54      -6.1570    2.9889   -0.1470   C.3       1 RES1   0.0000
   123 H58       1.2676    5.6440    9.0952   H         1 RES1   0.0000
   124 H59       1.7230    4.3860    7.9541   H         1 RES1   0.0000
   125 H60       0.1428    4.3443    8.7537   H         1 RES1   0.0000
   126 H61       1.0217    6.6118    6.9209   H         1 RES1   0.0000
   127 H62      -0.5950    6.3365    7.5411   H         1 RES1   0.0000
   128 H63       0.8668    4.5702    5.5347   H         1 RES1   0.0000
   129 H64      -0.3472    5.7831    5.1674   H         1 RES1   0.0000
   130 H65      -1.7092    3.9299    5.1510   H         1 RES1   0.0000
   131 H66      -1.8506    4.4017    6.8267   H         1 RES1   0.0000
   132 H67      -1.6147    2.0897    6.8421   H         1 RES1   0.0000
   133 H68      -0.0590    2.6793    7.3777   H         1 RES1   0.0000
   134 H69      -0.4102    1.9718    4.4495   H         1 RES1   0.0000
   135 H70      -0.2622    0.7113    5.6644   H         1 RES1   0.0000
   136 H71       1.8380    1.6110    6.4655   H         1 RES1   0.0000
   137 H72       1.8307    2.8572    5.2427   H         1 RES1   0.0000
   138 H73       1.4009    0.1501    4.1257   H         1 RES1   0.0000
   139 H74       2.9507    0.3245    4.9747   H         1 RES1   0.0000
   140 H75       3.5761    3.1635    4.1727   H         1 RES1   0.0000
   141 H76       4.1601    2.8108    2.5424   H         1 RES1   0.0000
   142 H77       4.7832    1.0988    4.9775   H         1 RES1   0.0000
   143 H78       5.7553    2.4187    4.4027   H         1 RES1   0.0000
   144 H79       6.8877    0.9352    3.1911   H         1 RES1   0.0000
   145 H80       5.5217    0.8482    2.1031   H         1 RES1   0.0000
   146 H81       5.8098   -0.9252    4.5540   H         1 RES1   0.0000
   147 H82       6.5567   -1.3244    3.0204   H         1 RES1   0.0000
   148 H83       4.2733   -1.1957    1.9392   H         1 RES1   0.0000
   149 H84       3.5705   -1.1340    3.5467   H         1 RES1   0.0000
   150 H85       5.3222   -3.3507    2.4122   H         1 RES1   0.0000
   151 H86       3.5905   -3.4379    2.6883   H         1 RES1   0.0000
   152 H87       5.7894   -3.2519    4.7883   H         1 RES1   0.0000
   153 H88       4.7998   -4.6464    4.4103   H         1 RES1   0.0000
   154 H89       3.8192   -2.0629    5.7154   H         1 RES1   0.0000
   155 H90       4.0151   -3.6355    6.4717   H         1 RES1   0.0000
   156 H91       2.7696   -3.3994    5.2550   H         1 RES1   0.0000
   157 H92       3.3496    1.8501    0.3911   H         1 RES1   0.0000
   158 H93       2.5819    3.2161    1.2224   H         1 RES1   0.0000
   159 H94       1.6952    2.0877   -1.0465   H         1 RES1   0.0000
   160 H95       0.9397    4.2127   -0.2446   H         1 RES1   0.0000
   161 H96       0.0304    3.3110    0.9952   H         1 RES1   0.0000
   162 H97       0.0992    4.9177   -2.3261   H         1 RES1   0.0000
   163 H98      -1.0453    4.2183   -3.4420   H         1 RES1   0.0000
   164 H99       1.6768    2.9371   -2.9507   H         1 RES1   0.0000
   165 H100      1.3505    4.1777   -4.1674   H         1 RES1   0.0000
   166 H101     -0.5120    2.6549   -5.0537   H         1 RES1   0.0000
   167 H102      0.1481    1.3981   -3.9954   H         1 RES1   0.0000
   168 H103      1.6161    2.8850   -6.2411   H         1 RES1   0.0000
   169 H104      1.1343    1.1911   -6.2558   H         1 RES1   0.0000
   170 H105      2.3849    1.7344   -5.1462   H         1 RES1   0.0000
   171 H106     -2.9337    3.5185   -2.4475   H         1 RES1   0.0000
   172 H107     -2.3236    4.9391   -1.6002   H         1 RES1   0.0000
   173 H108     -4.1496    4.8388   -0.3049   H         1 RES1   0.0000
   174 H109     -3.6021    3.3462    0.4100   H         1 RES1   0.0000
   175 H110     -4.7590    2.1491   -1.5677   H         1 RES1   0.0000
   176 H111     -5.3925    3.7414   -1.9984   H         1 RES1   0.0000
   177 H112     -5.8099    2.4880    0.7553   H         1 RES1   0.0000
   178 H113     -6.9834    2.4183   -0.5600   H         1 RES1   0.0000
   179 H114     -6.5290    3.9666    0.1453   H         1 RES1   0.0000
   180 C55       4.3071    5.2214   -4.4195   C.3       1 RES1   0.0000
   181 C56       4.6377    3.8655   -3.8048   C.3       1 RES1   0.0000
   182 C57       4.9278    2.8177   -4.8786   C.3       1 RES1   0.0000
   183 C58       5.0586    1.4000   -4.3168   C.3       1 RES1   0.0000
   184 C59       5.3865    0.3999   -5.4255   C.3       1 RES1   0.0000
   185 C60       5.8824   -0.9711   -4.9481   C.3       1 RES1   0.0000
   186 C61       4.8449   -2.0963   -4.8550   C.3       1 RES1   0.0000
   187 C62       4.0636   -2.1954   -3.5355   C.3       1 RES1   0.0000
   188 N5        2.8211   -1.4255   -3.4245   N.am      1 RES1   0.0000
   189 C63       2.1032   -1.0929   -4.6532   C.3       1 RES1   0.0000
   190 C64       1.6302   -2.3045   -5.4677   C.3       1 RES1   0.0000
   191 C65       1.2279   -1.9054   -6.9034   C.3       1 RES1   0.0000
   192 C66      -0.2901   -1.8995   -7.0991   C.3       1 RES1   0.0000
   193 C67      -0.7995   -1.1030   -8.3033   C.3       1 RES1   0.0000
   194 C68      -0.6603    0.4106   -8.1087   C.3       1 RES1   0.0000
   195 C69      -1.7265    1.2448   -8.8225   C.3       1 RES1   0.0000
   196 C70      -1.5884    1.2333  -10.3380   C.3       1 RES1   0.0000
   197 C71       2.3259   -1.0810   -2.2382   C.2       1 RES1   0.0000
   198 O5        1.3952   -0.2636   -2.0767   O.2       1 RES1   0.0000
   199 C72       2.9390   -1.6802   -0.9545   C.3       1 RES1   0.0000
   200 N6        1.8688   -1.8766    0.0427   N.4       1 RES1   0.0000
   201 C73       1.3061   -3.2307    0.0278   C.3       1 RES1   0.0000
   202 P3       -0.0308   -3.2593    1.3398   P.3       1 RES1   0.0000
   203 O6       -0.6979   -1.9180    1.1986   O.2       1 RES1   0.0000
   204 C74      -1.3306   -4.5279    1.0535   C.3       1 RES1   0.0000
   205 C75      -1.0017   -6.0170    1.0218   C.3       1 RES1   0.0000
   206 C76      -2.2503   -6.8677    1.2870   C.3       1 RES1   0.0000
   207 C77      -3.2831   -6.8092    0.1671   C.3       1 RES1   0.0000
   208 C78       0.6219   -3.3070    3.0635   C.3       1 RES1   0.0000
   209 C79       0.5038   -4.6159    3.8400   C.3       1 RES1   0.0000
   210 C80       1.5759   -5.6466    3.4815   C.3       1 RES1   0.0000
   211 C81       1.3531   -6.9671    4.2160   C.3       1 RES1   0.0000
   212 H115      4.1183    5.9630   -3.6467   H         1 RES1   0.0000
   213 H116      3.4270    5.1507   -5.0561   H         1 RES1   0.0000
   214 H117      5.1348    5.5719   -5.0287   H         1 RES1   0.0000
   215 H118      3.7982    3.5347   -3.1842   H         1 RES1   0.0000
   216 H119      5.5077    3.9633   -3.1523   H         1 RES1   0.0000
   217 H120      4.1366    2.8477   -5.6285   H         1 RES1   0.0000
   218 H121      5.8570    3.0849   -5.3819   H         1 RES1   0.0000
   219 H122      4.1388    1.1191   -3.7915   H         1 RES1   0.0000
   220 H123      5.8690    1.3925   -3.5858   H         1 RES1   0.0000
   221 H124      6.1777    0.8468   -6.0261   H         1 RES1   0.0000
   222 H125      4.5314    0.2768   -6.0915   H         1 RES1   0.0000
   223 H126      6.3939   -0.8580   -3.9927   H         1 RES1   0.0000
   224 H127      6.6353   -1.3070   -5.6604   H         1 RES1   0.0000
   225 H128      5.3875   -3.0393   -4.9401   H         1 RES1   0.0000
   226 H129      4.1936   -2.0404   -5.7195   H         1 RES1   0.0000
   227 H130      4.7443   -1.8454   -2.7583   H         1 RES1   0.0000
   228 H131      3.8289   -3.2512   -3.3521   H         1 RES1   0.0000
   229 H132      2.7493   -0.4781   -5.2796   H         1 RES1   0.0000
   230 H133      1.2368   -0.5121   -4.3497   H         1 RES1   0.0000
   231 H134      0.7817   -2.7714   -4.9691   H         1 RES1   0.0000
   232 H135      2.4118   -3.0567   -5.5019   H         1 RES1   0.0000
   233 H136      1.6643   -2.6093   -7.6085   H         1 RES1   0.0000
   234 H137      1.6353   -0.9214   -7.1367   H         1 RES1   0.0000
   235 H138     -0.7370   -1.4709   -6.2054   H         1 RES1   0.0000
   236 H139     -0.6400   -2.9310   -7.1877   H         1 RES1   0.0000
   237 H140     -1.8574   -1.3408   -8.4341   H         1 RES1   0.0000
   238 H141     -0.2748   -1.4184   -9.2024   H         1 RES1   0.0000
   239 H142      0.3174    0.7451   -8.4566   H         1 RES1   0.0000
   240 H143     -0.7358    0.6337   -7.0407   H         1 RES1   0.0000
   241 H144     -1.6440    2.2778   -8.4712   H         1 RES1   0.0000
   242 H145     -2.7177    0.8797   -8.5424   H         1 RES1   0.0000
   243 H146     -0.5888    1.5441  -10.6288   H         1 RES1   0.0000
   244 H147     -2.2971    1.9222  -10.7889   H         1 RES1   0.0000
   245 H148     -1.7748    0.2428  -10.7409   H         1 RES1   0.0000
   246 H149      3.6687   -0.9575   -0.5653   H         1 RES1   0.0000
   247 H150      3.4658   -2.6148   -1.1657   H         1 RES1   0.0000
   248 H151      2.2598   -1.7186    0.9735   H         1 RES1   0.0000
   249 H152      2.0751   -3.9957    0.1803   H         1 RES1   0.0000
   250 H153      0.8260   -3.4005   -0.9429   H         1 RES1   0.0000
   251 H154     -1.8336   -4.2392    0.1260   H         1 RES1   0.0000
   252 H155     -2.0230   -4.3274    1.8816   H         1 RES1   0.0000
   253 H156     -0.2695   -6.2627    1.7826   H         1 RES1   0.0000
   254 H157     -0.5684   -6.2926    0.0602   H         1 RES1   0.0000
   255 H158     -2.7054   -6.5470    2.2287   H         1 RES1   0.0000
   256 H159     -1.9348   -7.9039    1.4173   H         1 RES1   0.0000
   257 H160     -3.7467   -5.8256    0.1043   H         1 RES1   0.0000
   258 H161     -4.0689   -7.5355    0.3509   H         1 RES1   0.0000
   259 H162     -2.8246   -7.0538   -0.7883   H         1 RES1   0.0000
   260 H163      0.0195   -2.5388    3.5576   H         1 RES1   0.0000
   261 H164      1.6570   -2.9618    3.0715   H         1 RES1   0.0000
   262 H165     -0.4937   -5.0420    3.7107   H         1 RES1   0.0000
   263 H166      0.6150   -4.3875    4.9026   H         1 RES1   0.0000
   264 H167      2.5560   -5.2588    3.7627   H         1 RES1   0.0000
   265 H168      1.5908   -5.8159    2.3986   H         1 RES1   0.0000
   266 H169      1.3825   -6.8173    5.2934   H         1 RES1   0.0000
   267 H170      2.1288   -7.6811    3.9518   H         1 RES1   0.0000
   268 H171      0.3907   -7.4028    3.9565   H         1 RES1   0.0000
@<TRIPOS>BOND
     1     1    20    1
     2     1    22    1
     3     1    25    1
     4     1   109    1
     5     1   111    1
     6     1   114    1
     7     1   198    1
     8     1   200    1
     9     1   203    1
    10     2     3    1
    11     2    34    1
    12     2    35    1
    13     2    36    1
    14     3     4    1
    15     3    37    1
    16     3    38    1
    17     4     5    1
    18     4    39    1
    19     4    40    1
    20     5     6    1
    21     5    41    1
    22     5    42    1
    23     6     7    1
    24     6    43    1
    25     6    44    1
    26     7     8    1
    27     7    45    1
    28     7    46    1
    29     8     9    1
    30     8    47    1
    31     8    48    1
    32     9    10    1
    33     9    49    1
    34     9    50    1
    35    10    11    1
    36    10    19    1
    37    11    12    1
    38    11    51    1
    39    11    52    1
    40    12    13    1
    41    12    53    1
    42    12    54    1
    43    13    14    1
    44    13    55    1
    45    13    56    1
    46    14    15    1
    47    14    57    1
    48    14    58    1
    49    15    16    1
    50    15    59    1
    51    15    60    1
    52    16    17    1
    53    16    61    1
    54    16    62    1
    55    17    18    1
    56    17    63    1
    57    17    64    1
    58    18    65    1
    59    18    66    1
    60    18    67    1
    61    19    20    2
    62    19    21    1
    63    21    22    1
    64    21    68    1
    65    21    69    1
    66    22    23    1
    67    22    70    1
    68    23    24    1
    69    23    71    1
    70    23    72    1
    71    24    25    2
    72    24    26    1
    73    24    30    1
    74    26    27    1
    75    26    73    1
    76    26    74    1
    77    27    28    1
    78    27    75    1
    79    27    76    1
    80    28    29    1
    81    28    77    1
    82    28    78    1
    83    29    79    1
    84    29    80    1
    85    29    81    1
    86    30    31    1
    87    30    82    1
    88    30    83    1
    89    31    32    1
    90    31    84    1
    91    31    85    1
    92    32    33    1
    93    32    86    1
    94    32    87    1
    95    33    88    1
    96    33    89    1
    97    33    90    1
    98    91    92    1
    99    91   123    1
   100    91   124    1
   101    91   125    1
   102    92    93    1
   103    92   126    1
   104    92   127    1
   105    93    94    1
   106    93   128    1
   107    93   129    1
   108    94    95    1
   109    94   130    1
   110    94   131    1
   111    95    96    1
   112    95   132    1
   113    95   133    1
   114    96    97    1
   115    96   134    1
   116    96   135    1
   117    97    98    1
   118    97   136    1
   119    97   137    1
   120    98    99    1
   121    98   138    1
   122    98   139    1
   123    99   100    1
   124    99   108    1
   125   100   101    1
   126   100   140    1
   127   100   141    1
   128   101   102    1
   129   101   142    1
   130   101   143    1
   131   102   103    1
   132   102   144    1
   133   102   145    1
   134   103   104    1
   135   103   146    1
   136   103   147    1
   137   104   105    1
   138   104   148    1
   139   104   149    1
   140   105   106    1
   141   105   150    1
   142   105   151    1
   143   106   107    1
   144   106   152    1
   145   106   153    1
   146   107   154    1
   147   107   155    1
   148   107   156    1
   149   108   109    2
   150   108   110    1
   151   110   111    1
   152   110   157    1
   153   110   158    1
   154   111   112    1
   155   111   159    1
   156   112   113    1
   157   112   160    1
   158   112   161    1
   159   113   114    2
   160   113   115    1
   161   113   119    1
   162   115   116    1
   163   115   162    1
   164   115   163    1
   165   116   117    1
   166   116   164    1
   167   116   165    1
   168   117   118    1
   169   117   166    1
   170   117   167    1
   171   118   168    1
   172   118   169    1
   173   118   170    1
   174   119   120    1
   175   119   171    1
   176   119   172    1
   177   120   121    1
   178   120   173    1
   179   120   174    1
   180   121   122    1
   181   121   175    1
   182   121   176    1
   183   122   177    1
   184   122   178    1
   185   122   179    1
   186   180   181    1
   187   180   212    1
   188   180   213    1
   189   180   214    1
   190   181   182    1
   191   181   215    1
   192   181   216    1
   193   182   183    1
   194   182   217    1
   195   182   218    1
   196   183   184    1
   197   183   219    1
   198   183   220    1
   199   184   185    1
   200   184   221    1
   201   184   222    1
   202   185   186    1
   203   185   223    1
   204   185   224    1
   205   186   187    1
   206   186   225    1
   207   186   226    1
   208   187   188    1
   209   187   227    1
   210   187   228    1
   211   188   189    1
   212   188   197    1
   213   189   190    1
   214   189   229    1
   215   189   230    1
   216   190   191    1
   217   190   231    1
   218   190   232    1
   219   191   192    1
   220   191   233    1
   221   191   234    1
   222   192   193    1
   223   192   235    1
   224   192   236    1
   225   193   194    1
   226   193   237    1
   227   193   238    1
   228   194   195    1
   229   194   239    1
   230   194   240    1
   231   195   196    1
   232   195   241    1
   233   195   242    1
   234   196   243    1
   235   196   244    1
   236   196   245    1
   237   197   198    2
   238   197   199    1
   239   199   200    1
   240   199   246    1
   241   199   247    1
   242   200   201    1
   243   200   248    1
   244   201   202    1
   245   201   249    1
   246   201   250    1
   247   202   203    2
   248   202   204    1
   249   202   208    1
   250   204   205    1
   251   204   251    1
   252   204   252    1
   253   205   206    1
   254   205   253    1
   255   205   254    1
   256   206   207    1
   257   206   255    1
   258   206   256    1
   259   207   257    1
   260   207   258    1
   261   207   259    1
   262   208   209    1
   263   208   260    1
   264   208   261    1
   265   209   210    1
   266   209   262    1
   267   209   263    1
   268   210   211    1
   269   210   264    1
   270   210   265    1
   271   211   266    1
   272   211   267    1
   273   211   268    1
@<TRIPOS>SUBSTRUCTURE
     1 RES1      268 GROUP             0 ****  ****    0  
