@<TRIPOS>MOLECULE
tricapped_trigonal_prismatic_0_nunpairedes_0_charge_3 Charge: 3 Unpaired_Electrons: 6 XTB_Unpaired_Electrons: 0 XTB_Charge: 3
   433   441     1     0     0
SMALL
NoCharges
****
Generated from Architector

@<TRIPOS>ATOM
     1 Eu1      -0.1018    0.0402   -0.0379   Eu        1 RES1   0.0000
     2 C1        2.1117  -11.6318    1.5593   C.3       1 RES1   0.0000
     3 C2        1.5647  -10.4177    2.3005   C.3       1 RES1   0.0000
     4 C3        0.3115  -10.7628    3.1021   C.3       1 RES1   0.0000
     5 C4       -0.1633   -9.6449    4.0346   C.3       1 RES1   0.0000
     6 C5       -0.6482   -8.3902    3.2975   C.3       1 RES1   0.0000
     7 C6        0.4256   -7.3066    3.1999   C.3       1 RES1   0.0000
     8 C7       -0.0481   -6.1502    2.3180   C.3       1 RES1   0.0000
     9 C8        1.1186   -5.2148    1.9844   C.3       1 RES1   0.0000
    10 N1        0.8435   -4.3384    0.8577   N.am      1 RES1   0.0000
    11 C9        0.8854   -4.9446   -0.4663   C.3       1 RES1   0.0000
    12 C10       2.1514   -4.5483   -1.2366   C.3       1 RES1   0.0000
    13 C11       3.4108   -5.3193   -0.8181   C.3       1 RES1   0.0000
    14 C12       3.5587   -6.7144   -1.4455   C.3       1 RES1   0.0000
    15 C13       2.5618   -7.7823   -0.9638   C.3       1 RES1   0.0000
    16 C14       1.3901   -7.9903   -1.9252   C.3       1 RES1   0.0000
    17 C15       0.3414   -8.9410   -1.3551   C.3       1 RES1   0.0000
    18 C16      -0.8200   -9.1307   -2.3214   C.3       1 RES1   0.0000
    19 C17       0.5255   -3.0655    0.9559   C.2       1 RES1   0.0000
    20 O1        0.2307   -2.3599   -0.0324   O.2       1 RES1   0.0000
    21 C18       0.4855   -2.4160    2.3340   C.3       1 RES1   0.0000
    22 O2        0.2296   -1.0556    2.0593   O.3       1 RES1   0.0000
    23 C19       0.2873   -0.1500    3.1568   C.3       1 RES1   0.0000
    24 C20      -1.0760    0.5417    3.0372   C.2       1 RES1   0.0000
    25 O3       -1.3345    1.0692    1.9467   O.2       1 RES1   0.0000
    26 N2       -1.8768    0.4175    4.0846   N.am      1 RES1   0.0000
    27 C21      -3.3027    0.7259    4.1516   C.3       1 RES1   0.0000
    28 C22      -4.0920   -0.5567    4.2317   C.ar      1 RES1   0.0000
    29 C23      -4.7073   -0.9650    5.4063   C.ar      1 RES1   0.0000
    30 C24      -5.3712   -2.1781    5.4518   C.ar      1 RES1   0.0000
    31 C25      -5.4233   -2.9938    4.3321   C.ar      1 RES1   0.0000
    32 C26      -6.1035   -4.3393    4.3744   C.3       1 RES1   0.0000
    33 N3       -5.2205   -5.3810    3.8915   N.am      1 RES1   0.0000
    34 C27      -3.9714   -5.7126    4.2954   C.2       1 RES1   0.0000
    35 O4       -3.2795   -6.4088    3.5820   O.2       1 RES1   0.0000
    36 C28      -3.5041   -5.2382    5.6689   C.3       1 RES1   0.0000
    37 O5       -2.4118   -4.3446    5.4885   O.3       1 RES1   0.0000
    38 C29      -1.7055   -4.0348    6.6731   C.3       1 RES1   0.0000
    39 C30      -0.7984   -5.1899    7.1624   C.2       1 RES1   0.0000
    40 O6       -0.8547   -6.2684    6.6121   O.2       1 RES1   0.0000
    41 N4        0.0123   -4.9434    8.2268   N.am      1 RES1   0.0000
    42 C31       0.3732   -3.5642    8.5560   C.3       1 RES1   0.0000
    43 C32       1.0013   -3.1980    9.9084   C.3       1 RES1   0.0000
    44 C33       0.0167   -2.8226   11.0192   C.3       1 RES1   0.0000
    45 C34      -0.8680   -1.6098   10.7162   C.3       1 RES1   0.0000
    46 C35      -0.1482   -0.2687   10.8484   C.3       1 RES1   0.0000
    47 C36      -1.0753    0.9173   10.5684   C.3       1 RES1   0.0000
    48 C37      -1.2764    1.1569    9.0759   C.3       1 RES1   0.0000
    49 C38      -2.2118    2.3256    8.7865   C.3       1 RES1   0.0000
    50 C39       0.9064   -6.0306    8.6153   C.3       1 RES1   0.0000
    51 C40       0.2241   -7.2596    9.2291   C.3       1 RES1   0.0000
    52 C41      -0.6266   -7.0028   10.4817   C.3       1 RES1   0.0000
    53 C42      -2.1186   -6.7505   10.1917   C.3       1 RES1   0.0000
    54 C43      -2.5074   -5.2828   10.3364   C.3       1 RES1   0.0000
    55 C44      -3.9181   -4.9752    9.8515   C.3       1 RES1   0.0000
    56 C45      -4.1620   -3.4695    9.8261   C.3       1 RES1   0.0000
    57 C46      -5.5896   -3.1369    9.4244   C.3       1 RES1   0.0000
    58 C47      -4.8152   -2.5740    3.1524   C.ar      1 RES1   0.0000
    59 C48      -4.1527   -1.3655    3.1015   C.ar      1 RES1   0.0000
    60 H1        3.0006  -11.3642    0.9908   H         1 RES1   0.0000
    61 H2        1.3676  -12.0299    0.8719   H         1 RES1   0.0000
    62 H3        2.3814  -12.4172    2.2616   H         1 RES1   0.0000
    63 H4        1.3333   -9.6370    1.5725   H         1 RES1   0.0000
    64 H5        2.3329  -10.0390    2.9791   H         1 RES1   0.0000
    65 H6        0.5139  -11.6504    3.7053   H         1 RES1   0.0000
    66 H7       -0.4981  -11.0160    2.4134   H         1 RES1   0.0000
    67 H8        0.6404   -9.3717    4.7209   H         1 RES1   0.0000
    68 H9       -0.9805  -10.0395    4.6402   H         1 RES1   0.0000
    69 H10      -1.5148   -7.9622    3.8012   H         1 RES1   0.0000
    70 H11      -0.9626   -8.6779    2.2915   H         1 RES1   0.0000
    71 H12       1.3411   -7.7370    2.7883   H         1 RES1   0.0000
    72 H13       0.6450   -6.9276    4.1995   H         1 RES1   0.0000
    73 H14      -0.8512   -5.6259    2.8368   H         1 RES1   0.0000
    74 H15      -0.4613   -6.5532    1.3917   H         1 RES1   0.0000
    75 H16       1.9879   -5.8186    1.7129   H         1 RES1   0.0000
    76 H17       1.3831   -4.6324    2.8622   H         1 RES1   0.0000
    77 H18      -0.0007   -4.6196   -1.0179   H         1 RES1   0.0000
    78 H19       0.8338   -6.0191   -0.3261   H         1 RES1   0.0000
    79 H20       2.3176   -3.4739   -1.0983   H         1 RES1   0.0000
    80 H21       1.9874   -4.7274   -2.3017   H         1 RES1   0.0000
    81 H22       3.4628   -5.4049    0.2705   H         1 RES1   0.0000
    82 H23       4.2787   -4.7323   -1.1331   H         1 RES1   0.0000
    83 H24       4.5764   -7.0517   -1.2298   H         1 RES1   0.0000
    84 H25       3.4829   -6.6226   -2.5318   H         1 RES1   0.0000
    85 H26       2.1996   -7.5244    0.0348   H         1 RES1   0.0000
    86 H27       3.0887   -8.7316   -0.8608   H         1 RES1   0.0000
    87 H28       1.7733   -8.4085   -2.8577   H         1 RES1   0.0000
    88 H29       0.9206   -7.0338   -2.1710   H         1 RES1   0.0000
    89 H30      -0.0395   -8.5560   -0.4051   H         1 RES1   0.0000
    90 H31       0.8046   -9.9080   -1.1577   H         1 RES1   0.0000
    91 H32      -1.3367   -8.1882   -2.5016   H         1 RES1   0.0000
    92 H33      -1.5379   -9.8422   -1.9239   H         1 RES1   0.0000
    93 H34      -0.4626   -9.5119   -3.2749   H         1 RES1   0.0000
    94 H35       1.4469   -2.5300    2.8425   H         1 RES1   0.0000
    95 H36      -0.3156   -2.8733    2.9314   H         1 RES1   0.0000
    96 H37       1.0962    0.5792    2.9909   H         1 RES1   0.0000
    97 H38       0.4507   -0.6676    4.0977   H         1 RES1   0.0000
    98 H39      -1.5207   -0.0703    4.8986   H         1 RES1   0.0000
    99 H40      -3.5459    1.2873    3.2498   H         1 RES1   0.0000
   100 H41      -3.4723    1.3431    5.0372   H         1 RES1   0.0000
   101 H42      -4.6708   -0.3434    6.2895   H         1 RES1   0.0000
   102 H43      -5.8376   -2.4837    6.3757   H         1 RES1   0.0000
   103 H44      -6.9731   -4.3417    3.7138   H         1 RES1   0.0000
   104 H45      -6.4764   -4.5596    5.3792   H         1 RES1   0.0000
   105 H46      -5.4711   -5.8238    3.0180   H         1 RES1   0.0000
   106 H47      -3.1640   -6.1243    6.2180   H         1 RES1   0.0000
   107 H48      -4.3000   -4.7381    6.2372   H         1 RES1   0.0000
   108 H49      -2.4073   -3.7749    7.4795   H         1 RES1   0.0000
   109 H50      -1.1154   -3.1511    6.4050   H         1 RES1   0.0000
   110 H51      -0.5374   -2.9756    8.4777   H         1 RES1   0.0000
   111 H52       1.0765   -3.2313    7.7875   H         1 RES1   0.0000
   112 H53       1.6349   -2.3301    9.7118   H         1 RES1   0.0000
   113 H54       1.6536   -3.9897   10.2716   H         1 RES1   0.0000
   114 H55       0.5969   -2.6035   11.9180   H         1 RES1   0.0000
   115 H56      -0.6109   -3.6856   11.2325   H         1 RES1   0.0000
   116 H57      -1.7033   -1.6215   11.4154   H         1 RES1   0.0000
   117 H58      -1.2929   -1.6952    9.7140   H         1 RES1   0.0000
   118 H59       0.6945   -0.2357   10.1545   H         1 RES1   0.0000
   119 H60       0.2514   -0.1834   11.8600   H         1 RES1   0.0000
   120 H61      -0.6488    1.8197   11.0081   H         1 RES1   0.0000
   121 H62      -2.0426    0.7399   11.0393   H         1 RES1   0.0000
   122 H63      -1.6733    0.2535    8.6072   H         1 RES1   0.0000
   123 H64      -0.2993    1.3625    8.6343   H         1 RES1   0.0000
   124 H65      -3.2084    2.1333    9.1790   H         1 RES1   0.0000
   125 H66      -2.2935    2.5038    7.7128   H         1 RES1   0.0000
   126 H67      -1.8364    3.2338    9.2524   H         1 RES1   0.0000
   127 H68       1.6128   -5.6299    9.3368   H         1 RES1   0.0000
   128 H69       1.4674   -6.3701    7.7343   H         1 RES1   0.0000
   129 H70       1.0357   -7.9421    9.4932   H         1 RES1   0.0000
   130 H71      -0.3827   -7.7539    8.4714   H         1 RES1   0.0000
   131 H72      -0.2068   -6.1572   11.0296   H         1 RES1   0.0000
   132 H73      -0.5377   -7.8734   11.1360   H         1 RES1   0.0000
   133 H74      -2.7306   -7.3531   10.8659   H         1 RES1   0.0000
   134 H75      -2.3370   -7.0767    9.1726   H         1 RES1   0.0000
   135 H76      -1.8035   -4.6881    9.7554   H         1 RES1   0.0000
   136 H77      -2.4262   -4.9861   11.3847   H         1 RES1   0.0000
   137 H78      -4.6479   -5.4481   10.5092   H         1 RES1   0.0000
   138 H79      -4.0621   -5.3899    8.8499   H         1 RES1   0.0000
   139 H80      -3.4677   -2.9911    9.1275   H         1 RES1   0.0000
   140 H81      -3.9556   -3.0532   10.8121   H         1 RES1   0.0000
   141 H82      -5.8218   -3.5782    8.4561   H         1 RES1   0.0000
   142 H83      -5.7424   -2.0614    9.3657   H         1 RES1   0.0000
   143 H84      -6.2853   -3.5416   10.1535   H         1 RES1   0.0000
   144 H85      -4.8570   -3.2112    2.2820   H         1 RES1   0.0000
   145 H86      -3.6658   -1.0368    2.1917   H         1 RES1   0.0000
   146 C49       6.0176   -0.5695   -9.8155   C.3       1 RES1   0.0000
   147 C50       4.6064   -0.8768   -9.3267   C.3       1 RES1   0.0000
   148 C51       3.5431   -0.3770  -10.3040   C.3       1 RES1   0.0000
   149 C52       2.1196   -0.8537   -9.9960   C.3       1 RES1   0.0000
   150 C53       1.5846   -0.3390   -8.6543   C.3       1 RES1   0.0000
   151 C54       1.8088   -1.3336   -7.5133   C.3       1 RES1   0.0000
   152 C55       1.6088   -0.6621   -6.1570   C.3       1 RES1   0.0000
   153 C56       2.2472   -1.4684   -5.0237   C.3       1 RES1   0.0000
   154 N5        2.2424   -0.7123   -3.7799   N.am      1 RES1   0.0000
   155 C57       3.2991    0.2867   -3.6431   C.3       1 RES1   0.0000
   156 C58       4.4582   -0.1899   -2.7619   C.3       1 RES1   0.0000
   157 C59       5.3588   -1.2902   -3.3426   C.3       1 RES1   0.0000
   158 C60       6.5187   -0.8213   -4.2359   C.3       1 RES1   0.0000
   159 C61       6.1362   -0.1084   -5.5413   C.3       1 RES1   0.0000
   160 C62       6.1285    1.4154   -5.4128   C.3       1 RES1   0.0000
   161 C63       5.5629    2.0904   -6.6582   C.3       1 RES1   0.0000
   162 C64       5.5340    3.6063   -6.5156   C.3       1 RES1   0.0000
   163 C65       1.2728   -0.7196   -2.8843   C.2       1 RES1   0.0000
   164 O7        1.2678    0.0481   -1.8972   O.2       1 RES1   0.0000
   165 C66       0.1081   -1.7031   -3.0431   C.3       1 RES1   0.0000
   166 O8       -0.9266   -1.1981   -2.2067   O.3       1 RES1   0.0000
   167 C67      -1.9547   -2.1111   -1.8303   C.3       1 RES1   0.0000
   168 C68      -2.9229   -1.1816   -1.1007   C.2       1 RES1   0.0000
   169 O9       -2.4969   -0.5425   -0.1275   O.2       1 RES1   0.0000
   170 N6       -4.1330   -1.1005   -1.6319   N.am      1 RES1   0.0000
   171 C69      -5.1035   -0.0309   -1.4283   C.3       1 RES1   0.0000
   172 C70      -4.9979    0.9149   -2.5982   C.ar      1 RES1   0.0000
   173 C71      -5.9219    0.9089   -3.6349   C.ar      1 RES1   0.0000
   174 C72      -5.6978    1.6752   -4.7659   C.ar      1 RES1   0.0000
   175 C73      -4.5514    2.4485   -4.8763   C.ar      1 RES1   0.0000
   176 C74      -4.2392    3.2042   -6.1444   C.3       1 RES1   0.0000
   177 N7       -2.8450    3.0594   -6.5170   N.am      1 RES1   0.0000
   178 C75      -2.0727    1.9496   -6.5659   C.2       1 RES1   0.0000
   179 O10      -0.8643    2.0527   -6.6167   O.2       1 RES1   0.0000
   180 C76      -2.7641    0.5870   -6.5700   C.3       1 RES1   0.0000
   181 O11      -2.3305   -0.0893   -5.3996   O.3       1 RES1   0.0000
   182 C77      -2.7526   -1.4260   -5.2697   C.3       1 RES1   0.0000
   183 C78      -1.9140   -2.4007   -6.1337   C.2       1 RES1   0.0000
   184 O12      -1.2421   -1.9435   -7.0323   O.2       1 RES1   0.0000
   185 N8       -1.9925   -3.7369   -5.8727   N.am      1 RES1   0.0000
   186 C79      -2.3101   -4.1909   -4.5223   C.3       1 RES1   0.0000
   187 C80      -2.6358   -5.6637   -4.2341   C.3       1 RES1   0.0000
   188 C81      -4.0248   -6.1017   -4.7088   C.3       1 RES1   0.0000
   189 C82      -5.1785   -5.4727   -3.9184   C.3       1 RES1   0.0000
   190 C83      -5.3126   -6.0222   -2.4976   C.3       1 RES1   0.0000
   191 C84      -6.4228   -5.3519   -1.6862   C.3       1 RES1   0.0000
   192 C85      -6.0924   -3.9171   -1.2721   C.3       1 RES1   0.0000
   193 C86      -7.1191   -3.3642   -0.2889   C.3       1 RES1   0.0000
   194 C87      -1.2297   -4.6430   -6.7296   C.3       1 RES1   0.0000
   195 C88      -1.4973   -4.5299   -8.2318   C.3       1 RES1   0.0000
   196 C89      -2.9258   -4.8968   -8.6553   C.3       1 RES1   0.0000
   197 C90      -3.9184   -3.7215   -8.6590   C.3       1 RES1   0.0000
   198 C91      -4.8683   -3.7068   -7.4639   C.3       1 RES1   0.0000
   199 C92      -5.7750   -2.4821   -7.4816   C.3       1 RES1   0.0000
   200 C93      -6.6422   -2.4018   -6.2302   C.3       1 RES1   0.0000
   201 C94      -7.6354   -1.2537   -6.3197   C.3       1 RES1   0.0000
   202 C95      -3.6634    2.4957   -3.8064   C.ar      1 RES1   0.0000
   203 C96      -3.8781    1.7360   -2.6760   C.ar      1 RES1   0.0000
   204 H87       6.7541   -0.9226   -9.0951   H         1 RES1   0.0000
   205 H88       6.1529    0.5017   -9.9543   H         1 RES1   0.0000
   206 H89       6.2090   -1.0624  -10.7660   H         1 RES1   0.0000
   207 H90       4.4650   -0.4030   -8.3526   H         1 RES1   0.0000
   208 H91       4.5053   -1.9577   -9.2022   H         1 RES1   0.0000
   209 H92       3.8068   -0.7097  -11.3100   H         1 RES1   0.0000
   210 H93       3.5519    0.7158  -10.3103   H         1 RES1   0.0000
   211 H94       2.0820   -1.9450  -10.0038   H         1 RES1   0.0000
   212 H95       1.4720   -0.5037  -10.8023   H         1 RES1   0.0000
   213 H96       0.5165   -0.1280   -8.7219   H         1 RES1   0.0000
   214 H97       2.0852    0.6047   -8.4262   H         1 RES1   0.0000
   215 H98       2.8176   -1.7407   -7.5798   H         1 RES1   0.0000
   216 H99       1.1008   -2.1567   -7.6101   H         1 RES1   0.0000
   217 H100      0.5436   -0.5107   -5.9899   H         1 RES1   0.0000
   218 H101      2.0776    0.3226   -6.1765   H         1 RES1   0.0000
   219 H102      3.2916   -1.6564   -5.2818   H         1 RES1   0.0000
   220 H103      1.7665   -2.4390   -4.8985   H         1 RES1   0.0000
   221 H104      2.8494    1.1640   -3.1706   H         1 RES1   0.0000
   222 H105      3.6464    0.5506   -4.6391   H         1 RES1   0.0000
   223 H106      4.0218   -0.5404   -1.8231   H         1 RES1   0.0000
   224 H107      5.0770    0.6760   -2.5231   H         1 RES1   0.0000
   225 H108      4.7572   -2.0230   -3.8828   H         1 RES1   0.0000
   226 H109      5.8130   -1.8203   -2.5009   H         1 RES1   0.0000
   227 H110      7.1035   -1.7145   -4.4755   H         1 RES1   0.0000
   228 H111      7.1725   -0.1656   -3.6571   H         1 RES1   0.0000
   229 H112      5.1618   -0.4645   -5.8835   H         1 RES1   0.0000
   230 H113      6.8560   -0.3831   -6.3142   H         1 RES1   0.0000
   231 H114      7.1520    1.7624   -5.2584   H         1 RES1   0.0000
   232 H115      5.5468    1.7140   -4.5374   H         1 RES1   0.0000
   233 H116      4.5498    1.7270   -6.8492   H         1 RES1   0.0000
   234 H117      6.1769    1.8236   -7.5185   H         1 RES1   0.0000
   235 H118      4.8615    3.9140   -5.7161   H         1 RES1   0.0000
   236 H119      5.1959    4.0710   -7.4371   H         1 RES1   0.0000
   237 H120      6.5277    3.9880   -6.2932   H         1 RES1   0.0000
   238 H121      0.4408   -2.6934   -2.7035   H         1 RES1   0.0000
   239 H122     -0.2273   -1.7344   -4.0851   H         1 RES1   0.0000
   240 H123     -1.5684   -2.8873   -1.1589   H         1 RES1   0.0000
   241 H124     -2.4236   -2.5847   -2.6911   H         1 RES1   0.0000
   242 H125     -4.3420   -1.6815   -2.4333   H         1 RES1   0.0000
   243 H126     -4.8555    0.4600   -0.4906   H         1 RES1   0.0000
   244 H127     -6.0969   -0.4739   -1.3648   H         1 RES1   0.0000
   245 H128     -6.8104    0.2964   -3.5768   H         1 RES1   0.0000
   246 H129     -6.4104    1.6453   -5.5771   H         1 RES1   0.0000
   247 H130     -4.4114    4.2733   -5.9931   H         1 RES1   0.0000
   248 H131     -4.9107    2.8873   -6.9497   H         1 RES1   0.0000
   249 H132     -2.3209    3.9124   -6.6577   H         1 RES1   0.0000
   250 H133     -2.4303    0.0425   -7.4610   H         1 RES1   0.0000
   251 H134     -3.8586    0.6554   -6.5700   H         1 RES1   0.0000
   252 H135     -3.8138   -1.5353   -5.5396   H         1 RES1   0.0000
   253 H136     -2.6309   -1.6046   -4.2041   H         1 RES1   0.0000
   254 H137     -3.1991   -3.6424   -4.2052   H         1 RES1   0.0000
   255 H138     -1.4503   -3.9257   -3.8830   H         1 RES1   0.0000
   256 H139     -2.5949   -5.7482   -3.1441   H         1 RES1   0.0000
   257 H140     -1.8692   -6.3316   -4.6277   H         1 RES1   0.0000
   258 H141     -4.0968   -7.1874   -4.6270   H         1 RES1   0.0000
   259 H142     -4.1240   -5.8444   -5.7633   H         1 RES1   0.0000
   260 H143     -6.1050   -5.6645   -4.4601   H         1 RES1   0.0000
   261 H144     -5.0520   -4.3882   -3.8872   H         1 RES1   0.0000
   262 H145     -4.3690   -5.8993   -1.9590   H         1 RES1   0.0000
   263 H146     -5.5186   -7.0921   -2.5609   H         1 RES1   0.0000
   264 H147     -6.5903   -5.9437   -0.7851   H         1 RES1   0.0000
   265 H148     -7.3516   -5.3607   -2.2581   H         1 RES1   0.0000
   266 H149     -6.0717   -3.2774   -2.1579   H         1 RES1   0.0000
   267 H150     -5.0989   -3.8883   -0.8105   H         1 RES1   0.0000
   268 H151     -8.1013   -3.3143   -0.7538   H         1 RES1   0.0000
   269 H152     -6.8411   -2.3657    0.0483   H         1 RES1   0.0000
   270 H153     -7.1929   -4.0086    0.5852   H         1 RES1   0.0000
   271 H154     -1.5025   -5.6524   -6.4350   H         1 RES1   0.0000
   272 H155     -0.1563   -4.5030   -6.5466   H         1 RES1   0.0000
   273 H156     -0.8054   -5.2334   -8.7013   H         1 RES1   0.0000
   274 H157     -1.2475   -3.5342   -8.5938   H         1 RES1   0.0000
   275 H158     -3.2954   -5.6917   -8.0038   H         1 RES1   0.0000
   276 H159     -2.8759   -5.3158   -9.6624   H         1 RES1   0.0000
   277 H160     -4.5159   -3.7581   -9.5718   H         1 RES1   0.0000
   278 H161     -3.3532   -2.7872   -8.6768   H         1 RES1   0.0000
   279 H162     -4.2860   -3.7135   -6.5416   H         1 RES1   0.0000
   280 H163     -5.4893   -4.6052   -7.4754   H         1 RES1   0.0000
   281 H164     -6.4197   -2.5245   -8.3600   H         1 RES1   0.0000
   282 H165     -5.1680   -1.5760   -7.5683   H         1 RES1   0.0000
   283 H166     -6.0091   -2.2720   -5.3446   H         1 RES1   0.0000
   284 H167     -7.1828   -3.3402   -6.1058   H         1 RES1   0.0000
   285 H168     -7.1105   -0.3100   -6.4504   H         1 RES1   0.0000
   286 H169     -8.2512   -1.1907   -5.4254   H         1 RES1   0.0000
   287 H170     -8.2911   -1.3945   -7.1742   H         1 RES1   0.0000
   288 H171     -2.7925    3.1293   -3.8817   H         1 RES1   0.0000
   289 H172     -3.1736    1.7573   -1.8530   H         1 RES1   0.0000
   290 C97      10.6496   -1.9381    3.3770   C.3       1 RES1   0.0000
   291 C98       9.2554   -1.3328    3.4828   C.3       1 RES1   0.0000
   292 C99       8.8584   -1.0884    4.9364   C.3       1 RES1   0.0000
   293 C100      7.4501   -0.5099    5.0898   C.3       1 RES1   0.0000
   294 C101      7.3636    0.9500    4.6398   C.3       1 RES1   0.0000
   295 C102      5.9834    1.5815    4.8328   C.3       1 RES1   0.0000
   296 C103      4.8444    0.9880    3.9981   C.3       1 RES1   0.0000
   297 C104      5.0853    0.9857    2.4862   C.3       1 RES1   0.0000
   298 N9        4.1587    0.0809    1.8181   N.am      1 RES1   0.0000
   299 C105      4.4323   -1.3464    1.9812   C.3       1 RES1   0.0000
   300 C106      4.8178   -2.0952    0.6981   C.3       1 RES1   0.0000
   301 C107      6.3212   -2.1412    0.3984   C.3       1 RES1   0.0000
   302 C108      6.9424   -0.7714    0.1200   C.3       1 RES1   0.0000
   303 C109      8.2351   -0.8381   -0.6932   C.3       1 RES1   0.0000
   304 C110      8.6719    0.5494   -1.1728   C.3       1 RES1   0.0000
   305 C111      9.0969    1.5265   -0.0744   C.3       1 RES1   0.0000
   306 C112     10.4168    1.1305    0.5749   C.3       1 RES1   0.0000
   307 C113      3.0548    0.4588    1.1901   C.2       1 RES1   0.0000
   308 O13       2.2443   -0.3528    0.6982   O.2       1 RES1   0.0000
   309 C114      2.7593    1.9549    1.0370   C.3       1 RES1   0.0000
   310 O14       1.4440    2.0805    0.4855   O.3       1 RES1   0.0000
   311 C115      1.3277    3.1587   -0.4326   C.3       1 RES1   0.0000
   312 C116      0.1591    2.8704   -1.3653   C.2       1 RES1   0.0000
   313 O15      -0.6090    1.9239   -1.1145   O.2       1 RES1   0.0000
   314 N10      -0.0147    3.5840   -2.4688   N.am      1 RES1   0.0000
   315 C117      0.5696    4.8377   -2.9496   C.3       1 RES1   0.0000
   316 C118      2.0177    5.0461   -2.6025   C.ar      1 RES1   0.0000
   317 C119      2.3916    6.0175   -1.6817   C.ar      1 RES1   0.0000
   318 C120      3.7202    6.1791   -1.3323   C.ar      1 RES1   0.0000
   319 C121      4.6996    5.3673   -1.8962   C.ar      1 RES1   0.0000
   320 C122      6.1488    5.5187   -1.5063   C.3       1 RES1   0.0000
   321 N11       6.3472    5.4650   -0.0654   N.am      1 RES1   0.0000
   322 C123      5.9033    4.4708    0.7082   C.2       1 RES1   0.0000
   323 O16       5.2628    3.5131    0.2837   O.2       1 RES1   0.0000
   324 C124      6.1474    4.7081    2.2040   C.3       1 RES1   0.0000
   325 O17       5.4448    5.8686    2.6076   O.3       1 RES1   0.0000
   326 C125      4.0382    5.7762    2.5038   C.3       1 RES1   0.0000
   327 C126      3.4036    5.1504    3.7555   C.2       1 RES1   0.0000
   328 O18       3.9399    4.1909    4.2881   O.2       1 RES1   0.0000
   329 N12       2.2456    5.6742    4.2125   N.am      1 RES1   0.0000
   330 C127      1.8167    5.3437    5.5705   C.3       1 RES1   0.0000
   331 C128      0.8801    4.1321    5.7160   C.3       1 RES1   0.0000
   332 C129      1.6845    2.8526    5.9311   C.3       1 RES1   0.0000
   333 C130      0.8747    1.5586    6.0242   C.3       1 RES1   0.0000
   334 C131      1.8623    0.3994    6.1790   C.3       1 RES1   0.0000
   335 C132      1.3119   -1.0245    6.3429   C.3       1 RES1   0.0000
   336 C133      2.2993   -2.0075    5.6945   C.3       1 RES1   0.0000
   337 C134      1.7726   -3.3978    5.3376   C.3       1 RES1   0.0000
   338 C135      1.5079    6.7239    3.5326   C.3       1 RES1   0.0000
   339 C136      0.9277    6.3263    2.1679   C.3       1 RES1   0.0000
   340 C137     -0.2276    5.3245    2.2197   C.3       1 RES1   0.0000
   341 C138     -1.4236    5.8824    3.0012   C.3       1 RES1   0.0000
   342 C139     -2.7614    5.5884    2.3269   C.3       1 RES1   0.0000
   343 C140     -3.0860    4.1012    2.2316   C.3       1 RES1   0.0000
   344 C141     -4.4005    3.8858    1.4865   C.3       1 RES1   0.0000
   345 C142     -4.7235    2.4134    1.2526   C.3       1 RES1   0.0000
   346 C143      4.3295    4.4238   -2.8474   C.ar      1 RES1   0.0000
   347 C144      3.0032    4.2736   -3.2090   C.ar      1 RES1   0.0000
   348 H173     10.9161   -2.1086    2.3356   H         1 RES1   0.0000
   349 H174     10.6961   -2.8913    3.9001   H         1 RES1   0.0000
   350 H175     11.3885   -1.2704    3.8148   H         1 RES1   0.0000
   351 H176      8.5342   -2.0108    3.0160   H         1 RES1   0.0000
   352 H177      9.2355   -0.3885    2.9364   H         1 RES1   0.0000
   353 H178      9.5779   -0.4110    5.3989   H         1 RES1   0.0000
   354 H179      8.9130   -2.0332    5.4791   H         1 RES1   0.0000
   355 H180      7.1570   -0.5693    6.1403   H         1 RES1   0.0000
   356 H181      6.7476   -1.1235    4.5175   H         1 RES1   0.0000
   357 H182      7.6720    1.0372    3.5972   H         1 RES1   0.0000
   358 H183      8.0739    1.5331    5.2290   H         1 RES1   0.0000
   359 H184      6.0389    2.6526    4.6384   H         1 RES1   0.0000
   360 H185      5.6928    1.4685    5.8782   H         1 RES1   0.0000
   361 H186      3.9460    1.5655    4.2208   H         1 RES1   0.0000
   362 H187      4.6765   -0.0419    4.3157   H         1 RES1   0.0000
   363 H188      6.0881    0.6152    2.2803   H         1 RES1   0.0000
   364 H189      5.0055    1.9810    2.0574   H         1 RES1   0.0000
   365 H190      3.5322   -1.8102    2.3961   H         1 RES1   0.0000
   366 H191      5.2466   -1.4426    2.6965   H         1 RES1   0.0000
   367 H192      4.2758   -1.6564   -0.1396   H         1 RES1   0.0000
   368 H193      4.4706   -3.1258    0.7970   H         1 RES1   0.0000
   369 H194      6.4647   -2.7888   -0.4713   H         1 RES1   0.0000
   370 H195      6.8394   -2.6208    1.2326   H         1 RES1   0.0000
   371 H196      7.1789   -0.2931    1.0689   H         1 RES1   0.0000
   372 H197      6.2179   -0.1486   -0.4115   H         1 RES1   0.0000
   373 H198      8.0882   -1.4748   -1.5702   H         1 RES1   0.0000
   374 H199      9.0205   -1.2964   -0.0918   H         1 RES1   0.0000
   375 H200      7.8440    0.9939   -1.7322   H         1 RES1   0.0000
   376 H201      9.5096    0.4308   -1.8604   H         1 RES1   0.0000
   377 H202      8.3127    1.6116    0.6818   H         1 RES1   0.0000
   378 H203      9.2125    2.5155   -0.5254   H         1 RES1   0.0000
   379 H204     10.3599    0.1302    0.9957   H         1 RES1   0.0000
   380 H205     10.6755    1.8240    1.3722   H         1 RES1   0.0000
   381 H206     11.2148    1.1442   -0.1639   H         1 RES1   0.0000
   382 H207      3.5177    2.3740    0.3606   H         1 RES1   0.0000
   383 H208      2.8167    2.4997    1.9898   H         1 RES1   0.0000
   384 H209      2.2449    3.2397   -1.0240   H         1 RES1   0.0000
   385 H210      1.1834    4.1000    0.1130   H         1 RES1   0.0000
   386 H211     -0.7482    3.2061   -3.0628   H         1 RES1   0.0000
   387 H212     -0.0245    5.6698   -2.5556   H         1 RES1   0.0000
   388 H213      0.4521    4.8293   -4.0360   H         1 RES1   0.0000
   389 H214      1.6463    6.6663   -1.2457   H         1 RES1   0.0000
   390 H215      3.9973    6.9394   -0.6165   H         1 RES1   0.0000
   391 H216      6.5194    6.4842   -1.8552   H         1 RES1   0.0000
   392 H217      6.7465    4.7315   -1.9791   H         1 RES1   0.0000
   393 H218      6.8875    6.1974    0.3712   H         1 RES1   0.0000
   394 H219      7.2060    4.9054    2.3927   H         1 RES1   0.0000
   395 H220      5.8327    3.8372    2.7892   H         1 RES1   0.0000
   396 H221      3.7649    5.1554    1.6367   H         1 RES1   0.0000
   397 H222      3.7029    6.7998    2.3353   H         1 RES1   0.0000
   398 H223      1.3234    6.2291    5.9735   H         1 RES1   0.0000
   399 H224      2.7180    5.1550    6.1573   H         1 RES1   0.0000
   400 H225      0.2547    4.0408    4.8282   H         1 RES1   0.0000
   401 H226      0.2213    4.3117    6.5682   H         1 RES1   0.0000
   402 H227      2.2602    2.9623    6.8510   H         1 RES1   0.0000
   403 H228      2.3974    2.7706    5.1099   H         1 RES1   0.0000
   404 H229      0.2640    1.4444    5.1256   H         1 RES1   0.0000
   405 H230      0.1985    1.6055    6.8749   H         1 RES1   0.0000
   406 H231      2.4886    0.6100    7.0445   H         1 RES1   0.0000
   407 H232      2.5162    0.4122    5.3057   H         1 RES1   0.0000
   408 H233      0.3173   -1.1294    5.8986   H         1 RES1   0.0000
   409 H234      1.1808   -1.2378    7.4017   H         1 RES1   0.0000
   410 H235      3.1572   -2.1179    6.3556   H         1 RES1   0.0000
   411 H236      2.6677   -1.5404    4.7752   H         1 RES1   0.0000
   412 H237      1.8262   -4.0877    6.1719   H         1 RES1   0.0000
   413 H238      2.3941   -3.8251    4.5517   H         1 RES1   0.0000
   414 H239      0.7388   -3.3708    4.9979   H         1 RES1   0.0000
   415 H240      2.1367    7.6144    3.4086   H         1 RES1   0.0000
   416 H241      0.6870    7.0072    4.1901   H         1 RES1   0.0000
   417 H242      1.7218    5.9421    1.5256   H         1 RES1   0.0000
   418 H243      0.5442    7.2401    1.7099   H         1 RES1   0.0000
   419 H244      0.1097    4.3677    2.6269   H         1 RES1   0.0000
   420 H245     -0.5455    5.1388    1.1906   H         1 RES1   0.0000
   421 H246     -1.3187    6.9678    3.0613   H         1 RES1   0.0000
   422 H247     -1.4264    5.4909    4.0190   H         1 RES1   0.0000
   423 H248     -2.7472    6.0255    1.3249   H         1 RES1   0.0000
   424 H249     -3.5488    6.0903    2.8901   H         1 RES1   0.0000
   425 H250     -3.1468    3.6851    3.2399   H         1 RES1   0.0000
   426 H251     -2.2833    3.5804    1.7027   H         1 RES1   0.0000
   427 H252     -4.3421    4.3901    0.5194   H         1 RES1   0.0000
   428 H253     -5.2157    4.3464    2.0455   H         1 RES1   0.0000
   429 H254     -3.8249    1.8704    0.9483   H         1 RES1   0.0000
   430 H255     -5.4747    2.3267    0.4705   H         1 RES1   0.0000
   431 H256     -5.1372    1.9560    2.1499   H         1 RES1   0.0000
   432 H257      5.0885    3.8064   -3.3062   H         1 RES1   0.0000
   433 H258      2.7196    3.5612   -3.9696   H         1 RES1   0.0000
@<TRIPOS>BOND
     1     1    20    1
     2     1    22    1
     3     1    25    1
     4     1   164    1
     5     1   166    1
     6     1   169    1
     7     1   308    1
     8     1   310    1
     9     1   313    1
    10     2     3    1
    11     2    60    1
    12     2    61    1
    13     2    62    1
    14     3     4    1
    15     3    63    1
    16     3    64    1
    17     4     5    1
    18     4    65    1
    19     4    66    1
    20     5     6    1
    21     5    67    1
    22     5    68    1
    23     6     7    1
    24     6    69    1
    25     6    70    1
    26     7     8    1
    27     7    71    1
    28     7    72    1
    29     8     9    1
    30     8    73    1
    31     8    74    1
    32     9    10    1
    33     9    75    1
    34     9    76    1
    35    10    11    1
    36    10    19    1
    37    11    12    1
    38    11    77    1
    39    11    78    1
    40    12    13    1
    41    12    79    1
    42    12    80    1
    43    13    14    1
    44    13    81    1
    45    13    82    1
    46    14    15    1
    47    14    83    1
    48    14    84    1
    49    15    16    1
    50    15    85    1
    51    15    86    1
    52    16    17    1
    53    16    87    1
    54    16    88    1
    55    17    18    1
    56    17    89    1
    57    17    90    1
    58    18    91    1
    59    18    92    1
    60    18    93    1
    61    19    20    2
    62    19    21    1
    63    21    22    1
    64    21    94    1
    65    21    95    1
    66    22    23    1
    67    23    24    1
    68    23    96    1
    69    23    97    1
    70    24    25    2
    71    24    26    1
    72    26    27    1
    73    26    98    1
    74    27    28    1
    75    27    99    1
    76    27   100    1
    77    28    29    1
    78    28    59    2
    79    29    30    2
    80    29   101    1
    81    30    31    1
    82    30   102    1
    83    31    32    1
    84    31    58    2
    85    32    33    1
    86    32   103    1
    87    32   104    1
    88    33    34    1
    89    33   105    1
    90    34    35    2
    91    34    36    1
    92    36    37    1
    93    36   106    1
    94    36   107    1
    95    37    38    1
    96    38    39    1
    97    38   108    1
    98    38   109    1
    99    39    40    2
   100    39    41    1
   101    41    42    1
   102    41    50    1
   103    42    43    1
   104    42   110    1
   105    42   111    1
   106    43    44    1
   107    43   112    1
   108    43   113    1
   109    44    45    1
   110    44   114    1
   111    44   115    1
   112    45    46    1
   113    45   116    1
   114    45   117    1
   115    46    47    1
   116    46   118    1
   117    46   119    1
   118    47    48    1
   119    47   120    1
   120    47   121    1
   121    48    49    1
   122    48   122    1
   123    48   123    1
   124    49   124    1
   125    49   125    1
   126    49   126    1
   127    50    51    1
   128    50   127    1
   129    50   128    1
   130    51    52    1
   131    51   129    1
   132    51   130    1
   133    52    53    1
   134    52   131    1
   135    52   132    1
   136    53    54    1
   137    53   133    1
   138    53   134    1
   139    54    55    1
   140    54   135    1
   141    54   136    1
   142    55    56    1
   143    55   137    1
   144    55   138    1
   145    56    57    1
   146    56   139    1
   147    56   140    1
   148    57   141    1
   149    57   142    1
   150    57   143    1
   151    58    59    1
   152    58   144    1
   153    59   145    1
   154   146   147    1
   155   146   204    1
   156   146   205    1
   157   146   206    1
   158   147   148    1
   159   147   207    1
   160   147   208    1
   161   148   149    1
   162   148   209    1
   163   148   210    1
   164   149   150    1
   165   149   211    1
   166   149   212    1
   167   150   151    1
   168   150   213    1
   169   150   214    1
   170   151   152    1
   171   151   215    1
   172   151   216    1
   173   152   153    1
   174   152   217    1
   175   152   218    1
   176   153   154    1
   177   153   219    1
   178   153   220    1
   179   154   155    1
   180   154   163    1
   181   155   156    1
   182   155   221    1
   183   155   222    1
   184   156   157    1
   185   156   223    1
   186   156   224    1
   187   157   158    1
   188   157   225    1
   189   157   226    1
   190   158   159    1
   191   158   227    1
   192   158   228    1
   193   159   160    1
   194   159   229    1
   195   159   230    1
   196   160   161    1
   197   160   231    1
   198   160   232    1
   199   161   162    1
   200   161   233    1
   201   161   234    1
   202   162   235    1
   203   162   236    1
   204   162   237    1
   205   163   164    2
   206   163   165    1
   207   165   166    1
   208   165   238    1
   209   165   239    1
   210   166   167    1
   211   167   168    1
   212   167   240    1
   213   167   241    1
   214   168   169    2
   215   168   170    1
   216   170   171    1
   217   170   242    1
   218   171   172    1
   219   171   243    1
   220   171   244    1
   221   172   173    1
   222   172   203    2
   223   173   174    2
   224   173   245    1
   225   174   175    1
   226   174   246    1
   227   175   176    1
   228   175   202    2
   229   176   177    1
   230   176   247    1
   231   176   248    1
   232   177   178    1
   233   177   249    1
   234   178   179    2
   235   178   180    1
   236   180   181    1
   237   180   250    1
   238   180   251    1
   239   181   182    1
   240   182   183    1
   241   182   252    1
   242   182   253    1
   243   183   184    2
   244   183   185    1
   245   185   186    1
   246   185   194    1
   247   186   187    1
   248   186   254    1
   249   186   255    1
   250   187   188    1
   251   187   256    1
   252   187   257    1
   253   188   189    1
   254   188   258    1
   255   188   259    1
   256   189   190    1
   257   189   260    1
   258   189   261    1
   259   190   191    1
   260   190   262    1
   261   190   263    1
   262   191   192    1
   263   191   264    1
   264   191   265    1
   265   192   193    1
   266   192   266    1
   267   192   267    1
   268   193   268    1
   269   193   269    1
   270   193   270    1
   271   194   195    1
   272   194   271    1
   273   194   272    1
   274   195   196    1
   275   195   273    1
   276   195   274    1
   277   196   197    1
   278   196   275    1
   279   196   276    1
   280   197   198    1
   281   197   277    1
   282   197   278    1
   283   198   199    1
   284   198   279    1
   285   198   280    1
   286   199   200    1
   287   199   281    1
   288   199   282    1
   289   200   201    1
   290   200   283    1
   291   200   284    1
   292   201   285    1
   293   201   286    1
   294   201   287    1
   295   202   203    1
   296   202   288    1
   297   203   289    1
   298   290   291    1
   299   290   348    1
   300   290   349    1
   301   290   350    1
   302   291   292    1
   303   291   351    1
   304   291   352    1
   305   292   293    1
   306   292   353    1
   307   292   354    1
   308   293   294    1
   309   293   355    1
   310   293   356    1
   311   294   295    1
   312   294   357    1
   313   294   358    1
   314   295   296    1
   315   295   359    1
   316   295   360    1
   317   296   297    1
   318   296   361    1
   319   296   362    1
   320   297   298    1
   321   297   363    1
   322   297   364    1
   323   298   299    1
   324   298   307    1
   325   299   300    1
   326   299   365    1
   327   299   366    1
   328   300   301    1
   329   300   367    1
   330   300   368    1
   331   301   302    1
   332   301   369    1
   333   301   370    1
   334   302   303    1
   335   302   371    1
   336   302   372    1
   337   303   304    1
   338   303   373    1
   339   303   374    1
   340   304   305    1
   341   304   375    1
   342   304   376    1
   343   305   306    1
   344   305   377    1
   345   305   378    1
   346   306   379    1
   347   306   380    1
   348   306   381    1
   349   307   308    2
   350   307   309    1
   351   309   310    1
   352   309   382    1
   353   309   383    1
   354   310   311    1
   355   311   312    1
   356   311   384    1
   357   311   385    1
   358   312   313    2
   359   312   314    1
   360   314   315    1
   361   314   386    1
   362   315   316    1
   363   315   387    1
   364   315   388    1
   365   316   317    1
   366   316   347    2
   367   317   318    2
   368   317   389    1
   369   318   319    1
   370   318   390    1
   371   319   320    1
   372   319   346    2
   373   320   321    1
   374   320   391    1
   375   320   392    1
   376   321   322    1
   377   321   393    1
   378   322   323    2
   379   322   324    1
   380   324   325    1
   381   324   394    1
   382   324   395    1
   383   325   326    1
   384   326   327    1
   385   326   396    1
   386   326   397    1
   387   327   328    2
   388   327   329    1
   389   329   330    1
   390   329   338    1
   391   330   331    1
   392   330   398    1
   393   330   399    1
   394   331   332    1
   395   331   400    1
   396   331   401    1
   397   332   333    1
   398   332   402    1
   399   332   403    1
   400   333   334    1
   401   333   404    1
   402   333   405    1
   403   334   335    1
   404   334   406    1
   405   334   407    1
   406   335   336    1
   407   335   408    1
   408   335   409    1
   409   336   337    1
   410   336   410    1
   411   336   411    1
   412   337   412    1
   413   337   413    1
   414   337   414    1
   415   338   339    1
   416   338   415    1
   417   338   416    1
   418   339   340    1
   419   339   417    1
   420   339   418    1
   421   340   341    1
   422   340   419    1
   423   340   420    1
   424   341   342    1
   425   341   421    1
   426   341   422    1
   427   342   343    1
   428   342   423    1
   429   342   424    1
   430   343   344    1
   431   343   425    1
   432   343   426    1
   433   344   345    1
   434   344   427    1
   435   344   428    1
   436   345   429    1
   437   345   430    1
   438   345   431    1
   439   346   347    1
   440   346   432    1
   441   347   433    1
@<TRIPOS>SUBSTRUCTURE
     1 RES1      433 GROUP             0 ****  ****    0  
