@<TRIPOS>MOLECULE
am_c3_9H2O_c0_0_nunpairedes_0_charge_3 Charge: 3 Unpaired_Electrons: 6 XTB_Unpaired_Electrons: 0 XTB_Charge: 3
   284   291     1     0     0
SMALL
NoCharges
****
Generated from Architector

@<TRIPOS>ATOM
     1 Eu1       0.0357   -0.0274   -0.1059   Eu        1 RES1   0.0000
     2 C1        5.3283    2.2043    2.1041   C.3       1 RES1   0.0000
     3 C2        5.4530    3.6060    2.6857   C.3       1 RES1   0.0000
     4 C3        4.8198    3.6920    4.0713   C.3       1 RES1   0.0000
     5 C4        3.3230    3.3994    4.0752   C.3       1 RES1   0.0000
     6 C5        2.5243    4.4233    3.2728   C.3       1 RES1   0.0000
     7 C6        1.0577    4.0089    3.1981   C.3       1 RES1   0.0000
     8 C7        0.1776    4.9454    2.3689   C.3       1 RES1   0.0000
     9 C8        0.5980    5.0935    0.9064   C.3       1 RES1   0.0000
    10 P1        0.7022    3.5884   -0.1712   P.3       1 RES1   0.0000
    11 O1        0.7650    2.2569    0.5198   O.2       1 RES1   0.0000
    12 C9       -0.8908    3.7151   -1.1132   C.3       1 RES1   0.0000
    13 C10      -1.0586    2.6296   -2.1429   C.2       1 RES1   0.0000
    14 O2       -0.6049    1.4966   -1.8880   O.2       1 RES1   0.0000
    15 N1       -1.7580    2.9058   -3.2502   N.am      1 RES1   0.0000
    16 C11      -2.4059    1.7798   -3.9211   C.3       1 RES1   0.0000
    17 C12      -2.0004    1.3547   -5.3373   C.3       1 RES1   0.0000
    18 C13      -2.3359    2.3831   -6.4124   C.3       1 RES1   0.0000
    19 C14      -2.7684    0.0619   -5.6360   C.3       1 RES1   0.0000
    20 C15      -2.3600    4.2160   -3.5241   C.3       1 RES1   0.0000
    21 C16      -1.4738    5.4362   -3.8548   C.3       1 RES1   0.0000
    22 C17      -0.6704    5.2720   -5.1415   C.3       1 RES1   0.0000
    23 C18      -2.4124    6.6430   -3.9568   C.3       1 RES1   0.0000
    24 C19       2.1813    3.9713   -1.1713   C.ar      1 RES1   0.0000
    25 C20       3.3819    3.6090   -0.5595   C.ar      1 RES1   0.0000
    26 C21       4.5986    3.9787   -1.1018   C.ar      1 RES1   0.0000
    27 C22       4.6353    4.7149   -2.2778   C.ar      1 RES1   0.0000
    28 C23       3.4458    5.0631   -2.9009   C.ar      1 RES1   0.0000
    29 C24       2.2236    4.7151   -2.3474   C.ar      1 RES1   0.0000
    30 H1        5.9298    2.0949    1.2054   H         1 RES1   0.0000
    31 H2        4.2945    1.9727    1.8551   H         1 RES1   0.0000
    32 H3        5.6697    1.4740    2.8326   H         1 RES1   0.0000
    33 H4        4.9971    4.3296    2.0078   H         1 RES1   0.0000
    34 H5        6.5070    3.8636    2.7756   H         1 RES1   0.0000
    35 H6        4.9821    4.6902    4.4740   H         1 RES1   0.0000
    36 H7        5.3227    2.9815    4.7307   H         1 RES1   0.0000
    37 H8        2.9640    3.3976    5.1055   H         1 RES1   0.0000
    38 H9        3.1362    2.4039    3.6670   H         1 RES1   0.0000
    39 H10       2.9296    4.4855    2.2631   H         1 RES1   0.0000
    40 H11       2.6238    5.4071    3.7365   H         1 RES1   0.0000
    41 H12       0.6592    3.9926    4.2143   H         1 RES1   0.0000
    42 H13       1.0076    2.9917    2.7956   H         1 RES1   0.0000
    43 H14       0.2239    5.9480    2.8081   H         1 RES1   0.0000
    44 H15      -0.8590    4.5985    2.4288   H         1 RES1   0.0000
    45 H16       1.5757    5.5733    0.8511   H         1 RES1   0.0000
    46 H17      -0.1005    5.7798    0.4245   H         1 RES1   0.0000
    47 H18      -1.0224    4.7175   -1.4943   H         1 RES1   0.0000
    48 H19      -1.6693    3.5483   -0.3549   H         1 RES1   0.0000
    49 H20      -3.4722    2.0119   -3.9629   H         1 RES1   0.0000
    50 H21      -2.2554    0.9153   -3.2664   H         1 RES1   0.0000
    51 H22      -0.9313    1.1371   -5.3675   H         1 RES1   0.0000
    52 H23      -3.3890    2.6587   -6.3672   H         1 RES1   0.0000
    53 H24      -2.1402    1.9636   -7.3974   H         1 RES1   0.0000
    54 H25      -1.7267    3.2712   -6.3070   H         1 RES1   0.0000
    55 H26      -3.8387    0.2670   -5.6675   H         1 RES1   0.0000
    56 H27      -2.5817   -0.6876   -4.8673   H         1 RES1   0.0000
    57 H28      -2.4686   -0.3421   -6.6019   H         1 RES1   0.0000
    58 H29      -2.9986    4.4774   -2.6735   H         1 RES1   0.0000
    59 H30      -3.0093    4.0703   -4.3862   H         1 RES1   0.0000
    60 H31      -0.7621    5.6408   -3.0478   H         1 RES1   0.0000
    61 H32      -1.3313    5.2190   -6.0030   H         1 RES1   0.0000
    62 H33      -0.0447    4.3812   -5.0995   H         1 RES1   0.0000
    63 H34      -0.0319    6.1405   -5.2832   H         1 RES1   0.0000
    64 H35      -3.1671    6.4867   -4.7239   H         1 RES1   0.0000
    65 H36      -1.8460    7.5284   -4.2258   H         1 RES1   0.0000
    66 H37      -2.9175    6.8370   -3.0114   H         1 RES1   0.0000
    67 H38       3.3324    3.0097    0.3383   H         1 RES1   0.0000
    68 H39       5.5179    3.6898   -0.6143   H         1 RES1   0.0000
    69 H40       5.5770    5.0039   -2.7170   H         1 RES1   0.0000
    70 H41       3.4820    5.6272   -3.8204   H         1 RES1   0.0000
    71 H42       1.3234    5.0304   -2.8539   H         1 RES1   0.0000
    72 C25       6.2896   -3.9779    7.4399   C.3       1 RES1   0.0000
    73 C26       5.4630   -3.4003    8.5874   C.3       1 RES1   0.0000
    74 C27       5.4071   -1.8621    8.5221   C.3       1 RES1   0.0000
    75 C28       4.1051   -1.3824    7.8539   C.3       1 RES1   0.0000
    76 C29       4.2545   -0.3696    6.7143   C.3       1 RES1   0.0000
    77 C30       2.8946    0.0274    6.1005   C.3       1 RES1   0.0000
    78 C31       2.5049   -0.8524    4.8925   C.3       1 RES1   0.0000
    79 C32       0.9983   -0.8747    4.6225   C.3       1 RES1   0.0000
    80 P2        0.2244   -1.7138    3.1330   P.3       1 RES1   0.0000
    81 O3        0.5787   -0.9366    1.8953   O.2       1 RES1   0.0000
    82 C33      -1.5482   -1.5675    3.6773   C.3       1 RES1   0.0000
    83 C34      -2.3525   -2.3503    2.6723   C.2       1 RES1   0.0000
    84 O4       -2.1877   -2.0368    1.4794   O.2       1 RES1   0.0000
    85 N2       -3.1433   -3.3699    3.0607   N.am      1 RES1   0.0000
    86 C35      -3.2983   -3.8900    4.4237   C.3       1 RES1   0.0000
    87 C36      -4.3566   -3.3061    5.3892   C.3       1 RES1   0.0000
    88 C37      -3.8980   -1.9994    6.0256   C.3       1 RES1   0.0000
    89 C38      -5.7552   -3.1914    4.7968   C.3       1 RES1   0.0000
    90 C39      -3.9705   -4.0525    2.0633   C.3       1 RES1   0.0000
    91 C40      -3.4682   -5.3724    1.4402   C.3       1 RES1   0.0000
    92 C41      -2.2500   -5.1376    0.5492   C.3       1 RES1   0.0000
    93 C42      -3.2159   -6.4803    2.4597   C.3       1 RES1   0.0000
    94 C43       0.2562   -3.5134    2.7799   C.ar      1 RES1   0.0000
    95 C44       0.7051   -3.9257    1.5381   C.ar      1 RES1   0.0000
    96 C45       0.8299   -5.2687    1.2366   C.ar      1 RES1   0.0000
    97 C46       0.4842   -6.2237    2.1759   C.ar      1 RES1   0.0000
    98 C47      -0.0519   -5.8163    3.3875   C.ar      1 RES1   0.0000
    99 C48      -0.1729   -4.4742    3.6845   C.ar      1 RES1   0.0000
   100 H43       6.0505   -5.0279    7.2856   H         1 RES1   0.0000
   101 H44       7.3531   -3.8890    7.6484   H         1 RES1   0.0000
   102 H45       6.0867   -3.4355    6.5187   H         1 RES1   0.0000
   103 H46       5.8809   -3.7360    9.5368   H         1 RES1   0.0000
   104 H47       4.4444   -3.7939    8.5333   H         1 RES1   0.0000
   105 H48       6.2679   -1.5058    7.9582   H         1 RES1   0.0000
   106 H49       5.4979   -1.4325    9.5203   H         1 RES1   0.0000
   107 H50       3.4334   -0.9864    8.6206   H         1 RES1   0.0000
   108 H51       3.6355   -2.2647    7.4283   H         1 RES1   0.0000
   109 H52       4.8854   -0.7979    5.9311   H         1 RES1   0.0000
   110 H53       4.7640    0.5218    7.0791   H         1 RES1   0.0000
   111 H54       2.9358    1.0687    5.7867   H         1 RES1   0.0000
   112 H55       2.1251   -0.0615    6.8680   H         1 RES1   0.0000
   113 H56       2.8322   -1.8506    5.1327   H         1 RES1   0.0000
   114 H57       3.0237   -0.5069    3.9965   H         1 RES1   0.0000
   115 H58       0.5025   -1.2390    5.5169   H         1 RES1   0.0000
   116 H59       0.6512    0.1472    4.4253   H         1 RES1   0.0000
   117 H60      -1.8090   -0.5069    3.6458   H         1 RES1   0.0000
   118 H61      -1.6388   -1.9250    4.6945   H         1 RES1   0.0000
   119 H62      -2.3490   -3.8245    4.9479   H         1 RES1   0.0000
   120 H63      -3.5312   -4.9455    4.3079   H         1 RES1   0.0000
   121 H64      -4.4081   -4.0448    6.1988   H         1 RES1   0.0000
   122 H65      -3.7645   -1.2184    5.2848   H         1 RES1   0.0000
   123 H66      -2.9580   -2.1478    6.5540   H         1 RES1   0.0000
   124 H67      -4.6336   -1.6560    6.7459   H         1 RES1   0.0000
   125 H68      -5.7971   -2.4663    3.9889   H         1 RES1   0.0000
   126 H69      -6.4492   -2.8762    5.5701   H         1 RES1   0.0000
   127 H70      -6.0957   -4.1600    4.4406   H         1 RES1   0.0000
   128 H71      -4.1076   -3.3661    1.2288   H         1 RES1   0.0000
   129 H72      -4.9403   -4.2492    2.5183   H         1 RES1   0.0000
   130 H73      -4.2892   -5.7181    0.7966   H         1 RES1   0.0000
   131 H74      -1.5888   -4.4056    0.9964   H         1 RES1   0.0000
   132 H75      -2.5502   -4.7702   -0.4298   H         1 RES1   0.0000
   133 H76      -1.6921   -6.0605    0.4171   H         1 RES1   0.0000
   134 H77      -2.3862   -6.2396    3.1198   H         1 RES1   0.0000
   135 H78      -2.9655   -7.4063    1.9465   H         1 RES1   0.0000
   136 H79      -4.1209   -6.6663    3.0362   H         1 RES1   0.0000
   137 H80       0.9703   -3.1685    0.8275   H         1 RES1   0.0000
   138 H81       1.2101   -5.5695    0.2739   H         1 RES1   0.0000
   139 H82       0.6284   -7.2709    1.9782   H         1 RES1   0.0000
   140 H83      -0.3160   -6.5469    4.1363   H         1 RES1   0.0000
   141 H84      -0.5085   -4.1945    4.6675   H         1 RES1   0.0000
   142 C49      -0.2886   -5.1921    7.6180   C.3       1 RES1   0.0000
   143 C50       1.1647   -4.7216    7.6711   C.3       1 RES1   0.0000
   144 C51       1.5006   -3.6917    6.5770   C.3       1 RES1   0.0000
   145 C52       2.1455   -4.1852    5.2686   C.3       1 RES1   0.0000
   146 C53       3.6583   -4.2175    5.0297   C.3       1 RES1   0.0000
   147 C54       3.9106   -4.2819    3.5074   C.3       1 RES1   0.0000
   148 C55       3.7659   -2.9903    2.6789   C.3       1 RES1   0.0000
   149 C56       3.9233   -3.3770    1.2078   C.3       1 RES1   0.0000
   150 P3        3.3474   -2.3958   -0.2595   P.3       1 RES1   0.0000
   151 O5        1.9113   -1.9686   -0.3478   O.2       1 RES1   0.0000
   152 C57       4.3698   -0.8664   -0.4242   C.3       1 RES1   0.0000
   153 C58       3.6591    0.0583   -1.3974   C.2       1 RES1   0.0000
   154 O6        2.5178    0.4759   -1.1232   O.2       1 RES1   0.0000
   155 N3        4.3219    0.4090   -2.5066   N.am      1 RES1   0.0000
   156 C59       3.9212    1.6146   -3.2132   C.3       1 RES1   0.0000
   157 C60       3.0593    1.4665   -4.4753   C.3       1 RES1   0.0000
   158 C61       1.5889    1.3880   -4.0755   C.3       1 RES1   0.0000
   159 C62       3.4338    0.2917   -5.3781   C.3       1 RES1   0.0000
   160 C63       5.4827   -0.3090   -3.0277   C.3       1 RES1   0.0000
   161 C64       6.8831    0.0709   -2.5045   C.3       1 RES1   0.0000
   162 C65       7.4237    1.3435   -3.1513   C.3       1 RES1   0.0000
   163 C66       7.8180   -1.0830   -2.8636   C.3       1 RES1   0.0000
   164 C67       3.7262   -3.6705   -1.5074   C.ar      1 RES1   0.0000
   165 C68       5.0154   -4.0477   -1.8692   C.ar      1 RES1   0.0000
   166 C69       5.2041   -5.0873   -2.7660   C.ar      1 RES1   0.0000
   167 C70       4.1143   -5.7823   -3.2709   C.ar      1 RES1   0.0000
   168 C71       2.8349   -5.4587   -2.8498   C.ar      1 RES1   0.0000
   169 C72       2.6432   -4.4124   -1.9653   C.ar      1 RES1   0.0000
   170 H85      -0.5066   -5.8381    8.4622   H         1 RES1   0.0000
   171 H86      -0.5171   -5.7245    6.6947   H         1 RES1   0.0000
   172 H87      -0.9605   -4.3374    7.6907   H         1 RES1   0.0000
   173 H88       1.8389   -5.5743    7.6135   H         1 RES1   0.0000
   174 H89       1.3249   -4.2511    8.6429   H         1 RES1   0.0000
   175 H90       2.1046   -2.8965    7.0054   H         1 RES1   0.0000
   176 H91       0.5514   -3.2213    6.2986   H         1 RES1   0.0000
   177 H92       1.7769   -3.5269    4.4855   H         1 RES1   0.0000
   178 H93       1.7706   -5.1874    5.0561   H         1 RES1   0.0000
   179 H94       4.0563   -5.1273    5.4748   H         1 RES1   0.0000
   180 H95       4.1850   -3.3697    5.4642   H         1 RES1   0.0000
   181 H96       3.2106   -5.0148    3.0988   H         1 RES1   0.0000
   182 H97       4.9100   -4.6802    3.3301   H         1 RES1   0.0000
   183 H98       4.5431   -2.2807    2.9678   H         1 RES1   0.0000
   184 H99       2.7892   -2.5274    2.8334   H         1 RES1   0.0000
   185 H100      3.3975   -4.3254    1.0368   H         1 RES1   0.0000
   186 H101      4.9820   -3.5630    1.0041   H         1 RES1   0.0000
   187 H102      5.4064   -1.0678   -0.6764   H         1 RES1   0.0000
   188 H103      4.3115   -0.3815    0.5586   H         1 RES1   0.0000
   189 H104      4.8376    2.1475   -3.4543   H         1 RES1   0.0000
   190 H105      3.3549    2.2196   -2.5079   H         1 RES1   0.0000
   191 H106      3.2134    2.3942   -5.0400   H         1 RES1   0.0000
   192 H107      1.3937    0.5136   -3.4490   H         1 RES1   0.0000
   193 H108      0.9731    1.3358   -4.9683   H         1 RES1   0.0000
   194 H109      1.2983    2.2822   -3.5244   H         1 RES1   0.0000
   195 H110      3.4125   -0.6428   -4.8205   H         1 RES1   0.0000
   196 H111      4.4144    0.4259   -5.8318   H         1 RES1   0.0000
   197 H112      2.7182    0.2238   -6.1958   H         1 RES1   0.0000
   198 H113      5.5074   -0.1345   -4.1010   H         1 RES1   0.0000
   199 H114      5.3105   -1.3818   -2.8856   H         1 RES1   0.0000
   200 H115      6.8589    0.2140   -1.4185   H         1 RES1   0.0000
   201 H116      7.4203    1.2520   -4.2356   H         1 RES1   0.0000
   202 H117      8.4519    1.4928   -2.8385   H         1 RES1   0.0000
   203 H118      6.8630    2.2272   -2.8621   H         1 RES1   0.0000
   204 H119      7.9110   -1.1616   -3.9444   H         1 RES1   0.0000
   205 H120      7.4479   -2.0311   -2.4831   H         1 RES1   0.0000
   206 H121      8.8041   -0.9093   -2.4493   H         1 RES1   0.0000
   207 H122      5.8786   -3.5479   -1.4491   H         1 RES1   0.0000
   208 H123      6.2025   -5.3558   -3.0759   H         1 RES1   0.0000
   209 H124      4.2548   -6.5779   -3.9859   H         1 RES1   0.0000
   210 H125      1.9870   -6.0182   -3.2160   H         1 RES1   0.0000
   211 H126      1.6553   -4.1440   -1.6184   H         1 RES1   0.0000
   212 C73      -3.5960    5.0241    2.4100   C.3       1 RES1   0.0000
   213 C74      -4.9748    4.6408    2.9337   C.3       1 RES1   0.0000
   214 C75      -4.9203    3.6448    4.0918   C.3       1 RES1   0.0000
   215 C76      -4.1967    2.3335    3.7850   C.3       1 RES1   0.0000
   216 C77      -4.8901    1.5474    2.6721   C.3       1 RES1   0.0000
   217 C78      -4.4930    0.0768    2.6389   C.3       1 RES1   0.0000
   218 C79      -5.3995   -0.7956    1.7751   C.3       1 RES1   0.0000
   219 C80      -5.4095   -0.4254    0.2976   C.3       1 RES1   0.0000
   220 P4       -3.8716   -0.2469   -0.7260   P.3       1 RES1   0.0000
   221 O7       -2.6993    0.4762   -0.1343   O.2       1 RES1   0.0000
   222 C81      -3.4553   -1.9703   -1.2973   C.3       1 RES1   0.0000
   223 C82      -2.1427   -2.0800   -2.0248   C.2       1 RES1   0.0000
   224 O8       -1.2000   -1.3367   -1.6681   O.2       1 RES1   0.0000
   225 N4       -1.9561   -3.0261   -2.9567   N.am      1 RES1   0.0000
   226 C83      -0.5576   -3.2826   -3.3049   C.3       1 RES1   0.0000
   227 C84      -0.0242   -2.5991   -4.5697   C.3       1 RES1   0.0000
   228 C85      -0.7050   -3.1040   -5.8350   C.3       1 RES1   0.0000
   229 C86       1.4787   -2.8585   -4.6576   C.3       1 RES1   0.0000
   230 C87      -2.9201   -4.0623   -3.3560   C.3       1 RES1   0.0000
   231 C88      -4.2375   -3.6455   -4.0558   C.3       1 RES1   0.0000
   232 C89      -4.1914   -3.7866   -5.5790   C.3       1 RES1   0.0000
   233 C90      -5.3783   -4.5283   -3.5353   C.3       1 RES1   0.0000
   234 C91      -4.6907    0.7320   -2.0271   C.ar      1 RES1   0.0000
   235 C92      -4.7658    2.0970   -1.7607   C.ar      1 RES1   0.0000
   236 C93      -5.5396    2.9263   -2.5523   C.ar      1 RES1   0.0000
   237 C94      -6.2528    2.3949   -3.6168   C.ar      1 RES1   0.0000
   238 C95      -6.1878    1.0354   -3.8765   C.ar      1 RES1   0.0000
   239 C96      -5.4307    0.1985   -3.0709   C.ar      1 RES1   0.0000
   240 H127     -3.6543    5.9027    1.7731   H         1 RES1   0.0000
   241 H128     -3.1573    4.2160    1.8239   H         1 RES1   0.0000
   242 H129     -2.9393    5.2536    3.2451   H         1 RES1   0.0000
   243 H130     -5.5784    4.2407    2.1190   H         1 RES1   0.0000
   244 H131     -5.4751    5.5409    3.2903   H         1 RES1   0.0000
   245 H132     -5.9418    3.4115    4.3943   H         1 RES1   0.0000
   246 H133     -4.4328    4.1257    4.9403   H         1 RES1   0.0000
   247 H134     -4.1878    1.7359    4.6985   H         1 RES1   0.0000
   248 H135     -3.1541    2.5303    3.5330   H         1 RES1   0.0000
   249 H136     -4.6787    1.9981    1.7015   H         1 RES1   0.0000
   250 H137     -5.9641    1.6086    2.8435   H         1 RES1   0.0000
   251 H138     -4.5349   -0.3119    3.6575   H         1 RES1   0.0000
   252 H139     -3.4741   -0.0374    2.2762   H         1 RES1   0.0000
   253 H140     -6.4323   -0.7072    2.1257   H         1 RES1   0.0000
   254 H141     -5.0948   -1.8315    1.9054   H         1 RES1   0.0000
   255 H142     -5.9072    0.5416    0.1860   H         1 RES1   0.0000
   256 H143     -6.0275   -1.1469   -0.2446   H         1 RES1   0.0000
   257 H144     -4.2991   -2.4357   -1.7931   H         1 RES1   0.0000
   258 H145     -3.2786   -2.4848   -0.3429   H         1 RES1   0.0000
   259 H146     -0.4215   -4.3608   -3.4002   H         1 RES1   0.0000
   260 H147      0.0372   -2.9174   -2.4605   H         1 RES1   0.0000
   261 H148     -0.1844   -1.5211   -4.4739   H         1 RES1   0.0000
   262 H149     -0.5506   -4.1739   -5.9540   H         1 RES1   0.0000
   263 H150     -0.2974   -2.6093   -6.7133   H         1 RES1   0.0000
   264 H151     -1.7681   -2.9074   -5.7999   H         1 RES1   0.0000
   265 H152      1.6805   -3.9229   -4.7636   H         1 RES1   0.0000
   266 H153      1.9854   -2.5020   -3.7610   H         1 RES1   0.0000
   267 H154      1.8902   -2.3556   -5.5291   H         1 RES1   0.0000
   268 H155     -3.1834   -4.6535   -2.4716   H         1 RES1   0.0000
   269 H156     -2.3872   -4.7297   -4.0326   H         1 RES1   0.0000
   270 H157     -4.4366   -2.5936   -3.8341   H         1 RES1   0.0000
   271 H158     -3.6255   -2.9840   -6.0431   H         1 RES1   0.0000
   272 H159     -3.7651   -4.7430   -5.8719   H         1 RES1   0.0000
   273 H160     -5.2028   -3.7397   -5.9748   H         1 RES1   0.0000
   274 H161     -5.1897   -5.5671   -3.7998   H         1 RES1   0.0000
   275 H162     -6.3165   -4.2377   -4.0011   H         1 RES1   0.0000
   276 H163     -5.4948   -4.4658   -2.4539   H         1 RES1   0.0000
   277 H164     -4.2017    2.4876   -0.9237   H         1 RES1   0.0000
   278 H165     -5.6004    3.9795   -2.3308   H         1 RES1   0.0000
   279 H166     -6.8726    3.0287   -4.2325   H         1 RES1   0.0000
   280 H167     -6.7558    0.6175   -4.6912   H         1 RES1   0.0000
   281 H168     -5.4316   -0.8635   -3.2698   H         1 RES1   0.0000
   282 O9       -1.2623    1.1639    2.0177   O.3       1 RES1   0.0000
   283 H169     -2.1483    1.1998    1.6164   H         1 RES1   0.0000
   284 H170     -1.0245    2.0631    2.2827   H         1 RES1   0.0000
@<TRIPOS>BOND
     1     1    11    1
     2     1    14    1
     3     1    81    1
     4     1    84    1
     5     1   151    1
     6     1   154    1
     7     1   221    1
     8     1   224    1
     9     1   282    1
    10     2     3    1
    11     2    30    1
    12     2    31    1
    13     2    32    1
    14     3     4    1
    15     3    33    1
    16     3    34    1
    17     4     5    1
    18     4    35    1
    19     4    36    1
    20     5     6    1
    21     5    37    1
    22     5    38    1
    23     6     7    1
    24     6    39    1
    25     6    40    1
    26     7     8    1
    27     7    41    1
    28     7    42    1
    29     8     9    1
    30     8    43    1
    31     8    44    1
    32     9    10    1
    33     9    45    1
    34     9    46    1
    35    10    11    2
    36    10    12    1
    37    10    24    1
    38    12    13    1
    39    12    47    1
    40    12    48    1
    41    13    14    2
    42    13    15    1
    43    15    16    1
    44    15    20    1
    45    16    17    1
    46    16    49    1
    47    16    50    1
    48    17    18    1
    49    17    19    1
    50    17    51    1
    51    18    52    1
    52    18    53    1
    53    18    54    1
    54    19    55    1
    55    19    56    1
    56    19    57    1
    57    20    21    1
    58    20    58    1
    59    20    59    1
    60    21    22    1
    61    21    23    1
    62    21    60    1
    63    22    61    1
    64    22    62    1
    65    22    63    1
    66    23    64    1
    67    23    65    1
    68    23    66    1
    69    24    25    1
    70    24    29    2
    71    25    26    2
    72    25    67    1
    73    26    27    1
    74    26    68    1
    75    27    28    2
    76    27    69    1
    77    28    29    1
    78    28    70    1
    79    29    71    1
    80    72    73    1
    81    72   100    1
    82    72   101    1
    83    72   102    1
    84    73    74    1
    85    73   103    1
    86    73   104    1
    87    74    75    1
    88    74   105    1
    89    74   106    1
    90    75    76    1
    91    75   107    1
    92    75   108    1
    93    76    77    1
    94    76   109    1
    95    76   110    1
    96    77    78    1
    97    77   111    1
    98    77   112    1
    99    78    79    1
   100    78   113    1
   101    78   114    1
   102    79    80    1
   103    79   115    1
   104    79   116    1
   105    80    81    2
   106    80    82    1
   107    80    94    1
   108    82    83    1
   109    82   117    1
   110    82   118    1
   111    83    84    2
   112    83    85    1
   113    85    86    1
   114    85    90    1
   115    86    87    1
   116    86   119    1
   117    86   120    1
   118    87    88    1
   119    87    89    1
   120    87   121    1
   121    88   122    1
   122    88   123    1
   123    88   124    1
   124    89   125    1
   125    89   126    1
   126    89   127    1
   127    90    91    1
   128    90   128    1
   129    90   129    1
   130    91    92    1
   131    91    93    1
   132    91   130    1
   133    92   131    1
   134    92   132    1
   135    92   133    1
   136    93   134    1
   137    93   135    1
   138    93   136    1
   139    94    95    1
   140    94    99    2
   141    95    96    2
   142    95   137    1
   143    96    97    1
   144    96   138    1
   145    97    98    2
   146    97   139    1
   147    98    99    1
   148    98   140    1
   149    99   141    1
   150   142   143    1
   151   142   170    1
   152   142   171    1
   153   142   172    1
   154   143   144    1
   155   143   173    1
   156   143   174    1
   157   144   145    1
   158   144   175    1
   159   144   176    1
   160   145   146    1
   161   145   177    1
   162   145   178    1
   163   146   147    1
   164   146   179    1
   165   146   180    1
   166   147   148    1
   167   147   181    1
   168   147   182    1
   169   148   149    1
   170   148   183    1
   171   148   184    1
   172   149   150    1
   173   149   185    1
   174   149   186    1
   175   150   151    2
   176   150   152    1
   177   150   164    1
   178   152   153    1
   179   152   187    1
   180   152   188    1
   181   153   154    2
   182   153   155    1
   183   155   156    1
   184   155   160    1
   185   156   157    1
   186   156   189    1
   187   156   190    1
   188   157   158    1
   189   157   159    1
   190   157   191    1
   191   158   192    1
   192   158   193    1
   193   158   194    1
   194   159   195    1
   195   159   196    1
   196   159   197    1
   197   160   161    1
   198   160   198    1
   199   160   199    1
   200   161   162    1
   201   161   163    1
   202   161   200    1
   203   162   201    1
   204   162   202    1
   205   162   203    1
   206   163   204    1
   207   163   205    1
   208   163   206    1
   209   164   165    1
   210   164   169    2
   211   165   166    2
   212   165   207    1
   213   166   167    1
   214   166   208    1
   215   167   168    2
   216   167   209    1
   217   168   169    1
   218   168   210    1
   219   169   211    1
   220   212   213    1
   221   212   240    1
   222   212   241    1
   223   212   242    1
   224   213   214    1
   225   213   243    1
   226   213   244    1
   227   214   215    1
   228   214   245    1
   229   214   246    1
   230   215   216    1
   231   215   247    1
   232   215   248    1
   233   216   217    1
   234   216   249    1
   235   216   250    1
   236   217   218    1
   237   217   251    1
   238   217   252    1
   239   218   219    1
   240   218   253    1
   241   218   254    1
   242   219   220    1
   243   219   255    1
   244   219   256    1
   245   220   221    2
   246   220   222    1
   247   220   234    1
   248   222   223    1
   249   222   257    1
   250   222   258    1
   251   223   224    2
   252   223   225    1
   253   225   226    1
   254   225   230    1
   255   226   227    1
   256   226   259    1
   257   226   260    1
   258   227   228    1
   259   227   229    1
   260   227   261    1
   261   228   262    1
   262   228   263    1
   263   228   264    1
   264   229   265    1
   265   229   266    1
   266   229   267    1
   267   230   231    1
   268   230   268    1
   269   230   269    1
   270   231   232    1
   271   231   233    1
   272   231   270    1
   273   232   271    1
   274   232   272    1
   275   232   273    1
   276   233   274    1
   277   233   275    1
   278   233   276    1
   279   234   235    1
   280   234   239    2
   281   235   236    2
   282   235   277    1
   283   236   237    1
   284   236   278    1
   285   237   238    2
   286   237   279    1
   287   238   239    1
   288   238   280    1
   289   239   281    1
   290   282   283    1
   291   282   284    1
@<TRIPOS>SUBSTRUCTURE
     1 RES1      284 GROUP             0 ****  ****    0  
