@<TRIPOS>MOLECULE
am_c3_9H2O_c0_0_nunpairedes_0_charge_3 Charge: 3 Unpaired_Electrons: 6 XTB_Unpaired_Electrons: 0 XTB_Charge: 3
   216   223     1     0     0
SMALL
NoCharges
****
Generated from Architector

@<TRIPOS>ATOM
     1 Eu1       0.5659    0.1644   -0.1127   Eu        1 RES1   0.0000
     2 C1       -4.6673   -4.4588   -1.7921   C.3       1 RES1   0.0000
     3 C2       -3.7724   -4.6718   -3.0086   C.3       1 RES1   0.0000
     4 C3       -2.2824   -4.6199   -2.6782   C.3       1 RES1   0.0000
     5 C4       -1.7811   -5.8290   -1.8928   C.3       1 RES1   0.0000
     6 C5       -0.4225   -5.5257   -1.2559   C.3       1 RES1   0.0000
     7 C6       -0.5592   -4.7235    0.0520   C.3       1 RES1   0.0000
     8 C7        0.6123   -3.7703    0.3551   C.3       1 RES1   0.0000
     9 C8        1.2592   -3.9403    1.7349   C.3       1 RES1   0.0000
    10 C9        0.2570   -4.0999    2.8777   C.3       1 RES1   0.0000
    11 C10       0.6893   -3.3894    4.1632   C.3       1 RES1   0.0000
    12 C11      -0.4587   -3.2705    5.1696   C.3       1 RES1   0.0000
    13 C12      -1.4020   -2.0775    4.9290   C.3       1 RES1   0.0000
    14 N1       -1.6459   -1.8489    3.5093   N.am      1 RES1   0.0000
    15 C13      -2.7662   -2.5928    2.9599   C.3       1 RES1   0.0000
    16 C14      -0.8738   -1.0996    2.7390   C.2       1 RES1   0.0000
    17 O1       -0.9235   -1.0825    1.4857   O.2       1 RES1   0.0000
    18 C15      -0.0655   -0.0107    3.4434   C.3       1 RES1   0.0000
    19 C16      -1.1634    1.0265    3.8129   C.3       1 RES1   0.0000
    20 C17      -0.8266    2.3494    3.1425   C.3       1 RES1   0.0000
    21 O2       -0.8960    2.1949    1.7223   O.3       1 RES1   0.0000
    22 C18      -1.3742    3.3720    1.0908   C.3       1 RES1   0.0000
    23 C19       0.5900    2.7093    3.6045   C.3       1 RES1   0.0000
    24 C20       1.5670    1.6524    3.0150   C.3       1 RES1   0.0000
    25 C21       2.2071    2.3190    1.7856   C.2       1 RES1   0.0000
    26 O3        1.8842    1.8846    0.6621   O.2       1 RES1   0.0000
    27 N2        2.9539    3.3997    1.9833   N.am      1 RES1   0.0000
    28 C22       3.5415    3.7216    3.2743   C.3       1 RES1   0.0000
    29 C23       2.9929    4.5029    1.0139   C.3       1 RES1   0.0000
    30 C24       3.3818    4.1535   -0.4224   C.3       1 RES1   0.0000
    31 C25       2.2176    3.8876   -1.3839   C.3       1 RES1   0.0000
    32 C26       1.3230    5.1135   -1.6302   C.3       1 RES1   0.0000
    33 C27      -0.1903    4.8192   -1.7533   C.3       1 RES1   0.0000
    34 C28      -0.7923    5.5320   -2.9692   C.3       1 RES1   0.0000
    35 C29      -2.2273    5.1694   -3.3766   C.3       1 RES1   0.0000
    36 C30      -2.4830    5.7259   -4.7861   C.3       1 RES1   0.0000
    37 C31      -3.7193    5.1921   -5.5194   C.3       1 RES1   0.0000
    38 C32      -3.4805    3.8694   -6.2570   C.3       1 RES1   0.0000
    39 C33      -2.5118    3.9943   -7.4341   C.3       1 RES1   0.0000
    40 C34      -2.1698    2.6371   -8.0438   C.3       1 RES1   0.0000
    41 O4        0.8763    0.5059    2.5139   O.3       1 RES1   0.0000
    42 H1       -5.7095   -4.5653   -2.0764   H         1 RES1   0.0000
    43 H2       -4.4537   -5.1746   -1.0045   H         1 RES1   0.0000
    44 H3       -4.5305   -3.4677   -1.3630   H         1 RES1   0.0000
    45 H4       -4.0091   -5.6404   -3.4476   H         1 RES1   0.0000
    46 H5       -3.9941   -3.8991   -3.7503   H         1 RES1   0.0000
    47 H6       -1.7011   -4.5562   -3.6024   H         1 RES1   0.0000
    48 H7       -2.0801   -3.7180   -2.0940   H         1 RES1   0.0000
    49 H8       -2.4804   -6.1025   -1.1053   H         1 RES1   0.0000
    50 H9       -1.6954   -6.6861   -2.5605   H         1 RES1   0.0000
    51 H10       0.0869   -6.4648   -1.0372   H         1 RES1   0.0000
    52 H11       0.1805   -4.9787   -1.9882   H         1 RES1   0.0000
    53 H12      -1.4864   -4.1478    0.0212   H         1 RES1   0.0000
    54 H13      -0.6536   -5.4457    0.8607   H         1 RES1   0.0000
    55 H14       1.4123   -3.9407   -0.3632   H         1 RES1   0.0000
    56 H15       0.2819   -2.7167    0.2229   H         1 RES1   0.0000
    57 H16       1.9124   -4.8070    1.6953   H         1 RES1   0.0000
    58 H17       1.8867   -3.0654    1.9171   H         1 RES1   0.0000
    59 H18      -0.6910   -3.7080    2.5315   H         1 RES1   0.0000
    60 H19       0.1090   -5.1565    3.1030   H         1 RES1   0.0000
    61 H20       1.4995   -3.9544    4.6257   H         1 RES1   0.0000
    62 H21       1.0909   -2.4015    3.9217   H         1 RES1   0.0000
    63 H22      -1.0256   -4.1983    5.1574   H         1 RES1   0.0000
    64 H23      -0.0606   -3.1494    6.1743   H         1 RES1   0.0000
    65 H24      -2.3679   -2.2761    5.3932   H         1 RES1   0.0000
    66 H25      -0.9908   -1.1838    5.3937   H         1 RES1   0.0000
    67 H26      -2.7298   -3.6292    3.2940   H         1 RES1   0.0000
    68 H27      -3.6984   -2.1444    3.3144   H         1 RES1   0.0000
    69 H28      -2.7476   -2.5510    1.8724   H         1 RES1   0.0000
    70 H29       0.4858   -0.3542    4.3217   H         1 RES1   0.0000
    71 H30      -2.1378    0.6844    3.4639   H         1 RES1   0.0000
    72 H31      -1.2266    1.1770    4.8894   H         1 RES1   0.0000
    73 H32      -1.5505    3.1110    3.4600   H         1 RES1   0.0000
    74 H33      -0.7757    4.2466    1.3611   H         1 RES1   0.0000
    75 H34      -1.2740    3.1978    0.0244   H         1 RES1   0.0000
    76 H35      -2.4210    3.5536    1.3584   H         1 RES1   0.0000
    77 H36       0.8384    3.7123    3.2624   H         1 RES1   0.0000
    78 H37       0.6320    2.7067    4.6938   H         1 RES1   0.0000
    79 H38       2.3065    1.3126    3.7538   H         1 RES1   0.0000
    80 H39       3.7408    2.8182    3.8431   H         1 RES1   0.0000
    81 H40       4.4917    4.2306    3.1140   H         1 RES1   0.0000
    82 H41       2.9052    4.3874    3.8612   H         1 RES1   0.0000
    83 H42       2.0171    4.9995    1.0451   H         1 RES1   0.0000
    84 H43       3.7258    5.2114    1.3930   H         1 RES1   0.0000
    85 H44       3.9560    4.9993   -0.8006   H         1 RES1   0.0000
    86 H45       4.0453    3.2892   -0.3943   H         1 RES1   0.0000
    87 H46       2.6686    3.5583   -2.3234   H         1 RES1   0.0000
    88 H47       1.6013    3.0636   -1.0125   H         1 RES1   0.0000
    89 H48       1.4837    5.8391   -0.8321   H         1 RES1   0.0000
    90 H49       1.6496    5.5938   -2.5523   H         1 RES1   0.0000
    91 H50      -0.3525    3.7385   -1.8413   H         1 RES1   0.0000
    92 H51      -0.7117    5.1647   -0.8601   H         1 RES1   0.0000
    93 H52      -0.7535    6.6075   -2.7905   H         1 RES1   0.0000
    94 H53      -0.1476    5.3220   -3.8266   H         1 RES1   0.0000
    95 H54      -2.3756    4.0877   -3.3447   H         1 RES1   0.0000
    96 H55      -2.9565    5.6138   -2.6966   H         1 RES1   0.0000
    97 H56      -2.5696    6.8082   -4.7021   H         1 RES1   0.0000
    98 H57      -1.6142    5.5325   -5.4170   H         1 RES1   0.0000
    99 H58      -4.5372    5.0622   -4.8074   H         1 RES1   0.0000
   100 H59      -4.0331    5.9408   -6.2504   H         1 RES1   0.0000
   101 H60      -3.1125    3.1183   -5.5505   H         1 RES1   0.0000
   102 H61      -4.4371    3.5086   -6.6371   H         1 RES1   0.0000
   103 H62      -2.9567    4.6175   -8.2092   H         1 RES1   0.0000
   104 H63      -1.5858    4.4814   -7.1219   H         1 RES1   0.0000
   105 H64      -3.0545    2.1796   -8.4835   H         1 RES1   0.0000
   106 H65      -1.4201    2.7428   -8.8282   H         1 RES1   0.0000
   107 H66      -1.7797    1.9504   -7.2868   H         1 RES1   0.0000
   108 C35      -4.7756   -6.1340    2.2480   C.3       1 RES1   0.0000
   109 C36      -3.5157   -6.9637    2.0121   C.3       1 RES1   0.0000
   110 C37      -2.8599   -7.3429    3.3395   C.3       1 RES1   0.0000
   111 C38      -1.7515   -8.3943    3.2355   C.3       1 RES1   0.0000
   112 C39      -0.6267   -7.9814    2.2847   C.3       1 RES1   0.0000
   113 C40       0.6533   -8.8103    2.4431   C.3       1 RES1   0.0000
   114 C41       1.6625   -8.6092    1.2983   C.3       1 RES1   0.0000
   115 C42       2.6558   -7.4454    1.4767   C.3       1 RES1   0.0000
   116 C43       3.0167   -6.8673    0.1014   C.3       1 RES1   0.0000
   117 C44       4.1103   -5.7956    0.0792   C.3       1 RES1   0.0000
   118 C45       4.0618   -4.9730   -1.2126   C.3       1 RES1   0.0000
   119 C46       4.8305   -3.6410   -1.1168   C.3       1 RES1   0.0000
   120 N3        4.2239   -2.6495   -0.2263   N.am      1 RES1   0.0000
   121 C47       4.7646   -2.5894    1.1241   C.3       1 RES1   0.0000
   122 C48       3.2876   -1.7773   -0.5670   C.2       1 RES1   0.0000
   123 O5        2.6313   -1.1112    0.2735   O.2       1 RES1   0.0000
   124 C49       3.0038   -1.4753   -2.0459   C.3       1 RES1   0.0000
   125 C50       2.1305   -2.5529   -2.7163   C.3       1 RES1   0.0000
   126 C51       1.0009   -1.8815   -3.4917   C.3       1 RES1   0.0000
   127 O6        0.0193   -1.3947   -2.5663   O.3       1 RES1   0.0000
   128 C52      -1.2478   -1.1160   -3.1789   C.3       1 RES1   0.0000
   129 C53       1.6330   -0.7565   -4.3210   C.3       1 RES1   0.0000
   130 C54       2.1393    0.3194   -3.3252   C.3       1 RES1   0.0000
   131 C55       0.9907    1.3275   -3.2532   C.2       1 RES1   0.0000
   132 O7        0.2770    1.3871   -2.2236   O.2       1 RES1   0.0000
   133 N4        0.6915    1.9487   -4.3836   N.am      1 RES1   0.0000
   134 C56      -0.6462    2.4562   -4.6102   C.3       1 RES1   0.0000
   135 C57       1.6164    2.3068   -5.4575   C.3       1 RES1   0.0000
   136 C58       2.1570    3.7170   -5.1484   C.3       1 RES1   0.0000
   137 C59       2.3753    4.6471   -6.3538   C.3       1 RES1   0.0000
   138 C60       1.6255    5.9818   -6.2214   C.3       1 RES1   0.0000
   139 C61       2.1997    6.9294   -5.1668   C.3       1 RES1   0.0000
   140 C62       1.2891    8.1321   -4.9102   C.3       1 RES1   0.0000
   141 C63       1.9116    9.1514   -3.9486   C.3       1 RES1   0.0000
   142 C64       1.7511    8.7907   -2.4669   C.3       1 RES1   0.0000
   143 C65       0.3984    9.1993   -1.8787   C.3       1 RES1   0.0000
   144 C66       0.1143    8.5690   -0.5114   C.3       1 RES1   0.0000
   145 C67       0.7271    9.3493    0.6502   C.3       1 RES1   0.0000
   146 C68       0.6997    8.5470    1.9468   C.3       1 RES1   0.0000
   147 O8        2.3196   -0.2181   -2.0189   O.3       1 RES1   0.0000
   148 H67      -5.1928   -5.7844    1.3045   H         1 RES1   0.0000
   149 H68      -4.5524   -5.2693    2.8764   H         1 RES1   0.0000
   150 H69      -5.5374   -6.7279    2.7506   H         1 RES1   0.0000
   151 H70      -2.8153   -6.3897    1.3989   H         1 RES1   0.0000
   152 H71      -3.7827   -7.8667    1.4633   H         1 RES1   0.0000
   153 H72      -3.6320   -7.7302    4.0057   H         1 RES1   0.0000
   154 H73      -2.4493   -6.4399    3.8080   H         1 RES1   0.0000
   155 H74      -2.1679   -9.3460    2.8997   H         1 RES1   0.0000
   156 H75      -1.3393   -8.5534    4.2330   H         1 RES1   0.0000
   157 H76      -0.3971   -6.9281    2.4566   H         1 RES1   0.0000
   158 H77      -0.9916   -8.0847    1.2596   H         1 RES1   0.0000
   159 H78       0.3656   -9.8628    2.4619   H         1 RES1   0.0000
   160 H79       1.1378   -8.5928    3.3987   H         1 RES1   0.0000
   161 H80       1.0981   -8.4545    0.3750   H         1 RES1   0.0000
   162 H81       2.2374   -9.5275    1.1686   H         1 RES1   0.0000
   163 H82       3.5481   -7.7986    1.9967   H         1 RES1   0.0000
   164 H83       2.2039   -6.6706    2.1054   H         1 RES1   0.0000
   165 H84       2.1051   -6.4220   -0.3022   H         1 RES1   0.0000
   166 H85       3.2890   -7.6856   -0.5645   H         1 RES1   0.0000
   167 H86       5.0976   -6.2435    0.1917   H         1 RES1   0.0000
   168 H87       3.9389   -5.1267    0.9197   H         1 RES1   0.0000
   169 H88       3.0205   -4.7965   -1.4806   H         1 RES1   0.0000
   170 H89       4.4989   -5.5418   -2.0351   H         1 RES1   0.0000
   171 H90       4.9493   -3.2219   -2.1174   H         1 RES1   0.0000
   172 H91       5.8290   -3.8553   -0.7293   H         1 RES1   0.0000
   173 H92       5.8321   -2.3874    1.0521   H         1 RES1   0.0000
   174 H93       4.6269   -3.5197    1.6668   H         1 RES1   0.0000
   175 H94       4.2723   -1.7849    1.6599   H         1 RES1   0.0000
   176 H95       3.9507   -1.3348   -2.5831   H         1 RES1   0.0000
   177 H96       2.7197   -3.1631   -3.4010   H         1 RES1   0.0000
   178 H97       1.6816   -3.1915   -1.9602   H         1 RES1   0.0000
   179 H98       0.5355   -2.6181   -4.1615   H         1 RES1   0.0000
   180 H99      -1.3353   -1.5830   -4.1643   H         1 RES1   0.0000
   181 H100     -1.3867   -0.0339   -3.2822   H         1 RES1   0.0000
   182 H101     -2.0157   -1.5432   -2.5319   H         1 RES1   0.0000
   183 H102      0.8903   -0.3374   -4.9996   H         1 RES1   0.0000
   184 H103      2.4407   -1.1653   -4.9270   H         1 RES1   0.0000
   185 H104      3.0776    0.7811   -3.6513   H         1 RES1   0.0000
   186 H105     -1.1860    1.7449   -5.2448   H         1 RES1   0.0000
   187 H106     -0.6015    3.4040   -5.1396   H         1 RES1   0.0000
   188 H107     -1.1652    2.5549   -3.6620   H         1 RES1   0.0000
   189 H108      1.0465    2.3082   -6.3878   H         1 RES1   0.0000
   190 H109      2.4236    1.5871   -5.5677   H         1 RES1   0.0000
   191 H110      3.0804    3.6147   -4.5793   H         1 RES1   0.0000
   192 H111      1.4317    4.2015   -4.4980   H         1 RES1   0.0000
   193 H112      2.0292    4.1448   -7.2554   H         1 RES1   0.0000
   194 H113      3.4358    4.8540   -6.4815   H         1 RES1   0.0000
   195 H114      0.5722    5.7837   -6.0037   H         1 RES1   0.0000
   196 H115      1.6572    6.4858   -7.1869   H         1 RES1   0.0000
   197 H116      3.1749    7.2740   -5.5101   H         1 RES1   0.0000
   198 H117      2.3677    6.3896   -4.2350   H         1 RES1   0.0000
   199 H118      0.3300    7.7896   -4.5179   H         1 RES1   0.0000
   200 H119      1.0978    8.6237   -5.8623   H         1 RES1   0.0000
   201 H120      1.4654   10.1333   -4.1175   H         1 RES1   0.0000
   202 H121      2.9768    9.2290   -4.1820   H         1 RES1   0.0000
   203 H122      2.5398    9.2825   -1.9000   H         1 RES1   0.0000
   204 H123      1.8911    7.7169   -2.3528   H         1 RES1   0.0000
   205 H124     -0.3965    8.9372   -2.5800   H         1 RES1   0.0000
   206 H125      0.3732   10.2823   -1.7703   H         1 RES1   0.0000
   207 H126      0.5062    7.5510   -0.4987   H         1 RES1   0.0000
   208 H127     -0.9639    8.5029   -0.3558   H         1 RES1   0.0000
   209 H128      0.1648   10.2732    0.7830   H         1 RES1   0.0000
   210 H129      1.7571    9.6203    0.4165   H         1 RES1   0.0000
   211 H130     -0.3032    8.1717    2.1418   H         1 RES1   0.0000
   212 H131      0.9985    9.1669    2.7857   H         1 RES1   0.0000
   213 H132      1.3876    7.7027    1.8923   H         1 RES1   0.0000
   214 O9       -1.8565    0.5637   -0.4949   O.3       1 RES1   0.0000
   215 H133     -2.4508    0.1552    0.1548   H         1 RES1   0.0000
   216 H134     -2.4029    1.1877   -0.9951   H         1 RES1   0.0000
@<TRIPOS>BOND
     1     1    17    1
     2     1    21    1
     3     1    26    1
     4     1    41    1
     5     1   123    1
     6     1   127    1
     7     1   132    1
     8     1   147    1
     9     1   214    1
    10     2     3    1
    11     2    42    1
    12     2    43    1
    13     2    44    1
    14     3     4    1
    15     3    45    1
    16     3    46    1
    17     4     5    1
    18     4    47    1
    19     4    48    1
    20     5     6    1
    21     5    49    1
    22     5    50    1
    23     6     7    1
    24     6    51    1
    25     6    52    1
    26     7     8    1
    27     7    53    1
    28     7    54    1
    29     8     9    1
    30     8    55    1
    31     8    56    1
    32     9    10    1
    33     9    57    1
    34     9    58    1
    35    10    11    1
    36    10    59    1
    37    10    60    1
    38    11    12    1
    39    11    61    1
    40    11    62    1
    41    12    13    1
    42    12    63    1
    43    12    64    1
    44    13    14    1
    45    13    65    1
    46    13    66    1
    47    14    15    1
    48    14    16    1
    49    15    67    1
    50    15    68    1
    51    15    69    1
    52    16    17    2
    53    16    18    1
    54    18    19    1
    55    18    41    1
    56    18    70    1
    57    19    20    1
    58    19    71    1
    59    19    72    1
    60    20    21    1
    61    20    23    1
    62    20    73    1
    63    21    22    1
    64    22    74    1
    65    22    75    1
    66    22    76    1
    67    23    24    1
    68    23    77    1
    69    23    78    1
    70    24    25    1
    71    24    41    1
    72    24    79    1
    73    25    26    2
    74    25    27    1
    75    27    28    1
    76    27    29    1
    77    28    80    1
    78    28    81    1
    79    28    82    1
    80    29    30    1
    81    29    83    1
    82    29    84    1
    83    30    31    1
    84    30    85    1
    85    30    86    1
    86    31    32    1
    87    31    87    1
    88    31    88    1
    89    32    33    1
    90    32    89    1
    91    32    90    1
    92    33    34    1
    93    33    91    1
    94    33    92    1
    95    34    35    1
    96    34    93    1
    97    34    94    1
    98    35    36    1
    99    35    95    1
   100    35    96    1
   101    36    37    1
   102    36    97    1
   103    36    98    1
   104    37    38    1
   105    37    99    1
   106    37   100    1
   107    38    39    1
   108    38   101    1
   109    38   102    1
   110    39    40    1
   111    39   103    1
   112    39   104    1
   113    40   105    1
   114    40   106    1
   115    40   107    1
   116   108   109    1
   117   108   148    1
   118   108   149    1
   119   108   150    1
   120   109   110    1
   121   109   151    1
   122   109   152    1
   123   110   111    1
   124   110   153    1
   125   110   154    1
   126   111   112    1
   127   111   155    1
   128   111   156    1
   129   112   113    1
   130   112   157    1
   131   112   158    1
   132   113   114    1
   133   113   159    1
   134   113   160    1
   135   114   115    1
   136   114   161    1
   137   114   162    1
   138   115   116    1
   139   115   163    1
   140   115   164    1
   141   116   117    1
   142   116   165    1
   143   116   166    1
   144   117   118    1
   145   117   167    1
   146   117   168    1
   147   118   119    1
   148   118   169    1
   149   118   170    1
   150   119   120    1
   151   119   171    1
   152   119   172    1
   153   120   121    1
   154   120   122    1
   155   121   173    1
   156   121   174    1
   157   121   175    1
   158   122   123    2
   159   122   124    1
   160   124   125    1
   161   124   147    1
   162   124   176    1
   163   125   126    1
   164   125   177    1
   165   125   178    1
   166   126   127    1
   167   126   129    1
   168   126   179    1
   169   127   128    1
   170   128   180    1
   171   128   181    1
   172   128   182    1
   173   129   130    1
   174   129   183    1
   175   129   184    1
   176   130   131    1
   177   130   147    1
   178   130   185    1
   179   131   132    2
   180   131   133    1
   181   133   134    1
   182   133   135    1
   183   134   186    1
   184   134   187    1
   185   134   188    1
   186   135   136    1
   187   135   189    1
   188   135   190    1
   189   136   137    1
   190   136   191    1
   191   136   192    1
   192   137   138    1
   193   137   193    1
   194   137   194    1
   195   138   139    1
   196   138   195    1
   197   138   196    1
   198   139   140    1
   199   139   197    1
   200   139   198    1
   201   140   141    1
   202   140   199    1
   203   140   200    1
   204   141   142    1
   205   141   201    1
   206   141   202    1
   207   142   143    1
   208   142   203    1
   209   142   204    1
   210   143   144    1
   211   143   205    1
   212   143   206    1
   213   144   145    1
   214   144   207    1
   215   144   208    1
   216   145   146    1
   217   145   209    1
   218   145   210    1
   219   146   211    1
   220   146   212    1
   221   146   213    1
   222   214   215    1
   223   214   216    1
@<TRIPOS>SUBSTRUCTURE
     1 RES1      216 GROUP             0 ****  ****    0  
