@<TRIPOS>MOLECULE
capped_square_antiprismatic_0_nunpairedes_0_charge_2 Charge: 2 Unpaired_Electrons: 6 XTB_Unpaired_Electrons: 0 XTB_Charge: 2
    44    52     1     0     0
SMALL
NoCharges
****
Generated from Architector

@<TRIPOS>ATOM
     1 Eu1       1.6350   -1.2007    0.2704   Eu        1 RES1   0.0000
     2 C1       -0.9686   -4.1652    3.1715   C.3       1 RES1   0.0000
     3 C2       -0.3833   -3.9573    1.8327   C.ar      1 RES1   0.0000
     4 C3        0.9704   -4.2268    1.4383   C.ar      1 RES1   0.0000
     5 C4        1.0625   -3.8689    0.1044   C.ar      1 RES1   0.0000
     6 C5        2.1412   -4.2264   -0.8996   C.3       1 RES1   0.0000
     7 N1       -0.2262   -3.4296   -0.2445   N.ar      1 RES1   0.0000
     8 C6       -0.5076   -2.6277   -1.3494   C.ar      1 RES1   0.0000
     9 C7       -1.7407   -2.4270   -1.9882   C.ar      1 RES1   0.0000
    10 N2       -1.8433   -1.4765   -2.8911   N.ar      1 RES1   0.0000
    11 C8       -0.8137   -0.7312   -3.2411   C.ar      1 RES1   0.0000
    12 C9        0.4493   -0.9759   -2.6797   C.ar      1 RES1   0.0000
    13 N3        1.6614   -0.3056   -2.8471   N.ar      1 RES1   0.0000
    14 N4        2.5836   -0.4102   -1.8285   N.ar      1 RES1   0.0000
    15 C10       3.7004    0.1732   -2.2727   C.ar      1 RES1   0.0000
    16 C11       4.8906    0.1820   -1.3890   C.3       1 RES1   0.0000
    17 C12       3.5049    0.6545   -3.5762   C.ar      1 RES1   0.0000
    18 C13       2.2099    0.3332   -3.9219   C.ar      1 RES1   0.0000
    19 C14       1.4682    0.5795   -5.1688   C.3       1 RES1   0.0000
    20 N5        0.5658   -1.9284   -1.7410   N.ar      1 RES1   0.0000
    21 N6       -1.0528   -3.4615    0.8156   N.ar      1 RES1   0.0000
    22 H1       -1.7277   -4.9457    3.1392   H         1 RES1   0.0000
    23 H2       -1.4603   -3.2570    3.5095   H         1 RES1   0.0000
    24 H3       -0.2103   -4.4415    3.8987   H         1 RES1   0.0000
    25 H4        1.7194   -4.7520    2.0088   H         1 RES1   0.0000
    26 H5        2.5081   -5.2255   -0.6537   H         1 RES1   0.0000
    27 H6        3.0047   -3.5356   -0.8871   H         1 RES1   0.0000
    28 H7        1.7264   -4.2755   -1.9062   H         1 RES1   0.0000
    29 H8       -2.6160   -3.0226   -1.7739   H         1 RES1   0.0000
    30 H9       -1.0254    0.0612   -3.9432   H         1 RES1   0.0000
    31 H10       4.5850    0.1610   -0.3302   H         1 RES1   0.0000
    32 H11       5.5096    1.0561   -1.5609   H         1 RES1   0.0000
    33 H12       5.5172   -0.6925   -1.5769   H         1 RES1   0.0000
    34 H13       4.1961    1.1992   -4.1852   H         1 RES1   0.0000
    35 H14       1.1663   -0.3653   -5.6210   H         1 RES1   0.0000
    36 H15       2.0997    1.1127   -5.8743   H         1 RES1   0.0000
    37 H16       0.5814    1.1761   -4.9589   H         1 RES1   0.0000
    38 N7       -0.3493   -0.3071    1.3889   N.3       1 RES1   0.0000
    39 O1       -1.1927    0.2554    1.9769   O.2       1 RES1   0.0000
    40 O2        0.4391   -1.1128    1.9361   O.co2     1 RES1   0.0000
    41 O3       -0.1523   -0.1325    0.1552   O.co2     1 RES1   0.0000
    42 O4        2.0236    1.2270    1.0342   O.3       1 RES1   0.0000
    43 H17       2.4354    1.6663    1.7997   H         1 RES1   0.0000
    44 H18       1.6262    1.9714    0.5474   H         1 RES1   0.0000
@<TRIPOS>BOND
     1     1     7    1
     2     1    10    1
     3     1    13    1
     4     1    14    1
     5     1    20    1
     6     1    21    1
     7     1    40    1
     8     1    41    1
     9     1    42    1
    10     2     3    1
    11     2    22    1
    12     2    23    1
    13     2    24    1
    14     3     4    1
    15     3    21    2
    16     4     5    2
    17     4    25    1
    18     5     6    1
    19     5     7    1
    20     6    26    1
    21     6    27    1
    22     6    28    1
    23     7     8    1
    24     7    21    1
    25     8     9    1
    26     8    20    2
    27     9    10    2
    28     9    29    1
    29    10    11    1
    30    11    12    2
    31    11    30    1
    32    12    13    1
    33    12    20    1
    34    13    14    1
    35    13    18    1
    36    14    15    2
    37    15    16    1
    38    15    17    1
    39    16    31    1
    40    16    32    1
    41    16    33    1
    42    17    18    2
    43    17    34    1
    44    18    19    1
    45    19    35    1
    46    19    36    1
    47    19    37    1
    48    38    39    2
    49    38    40    1
    50    38    41    1
    51    42    43    1
    52    42    44    1
@<TRIPOS>SUBSTRUCTURE
     1 RES1       44 GROUP             0 ****  ****    0  
