@<TRIPOS>MOLECULE
cn9_YICLED_0_nunpairedes_0_charge_3 Charge: 3 Unpaired_Electrons: 6 XTB_Unpaired_Electrons: 0 XTB_Charge: 3
   190   195     1     0     0
SMALL
NoCharges
****
Generated from Architector

@<TRIPOS>ATOM
     1 Eu1       0.2453    0.1557    0.1546   Eu        1 RES1   0.0000
     2 C1       -2.7646   -1.8834   -7.2623   C.3       1 RES1   0.0000
     3 C2       -1.3823   -1.4663   -6.7708   C.3       1 RES1   0.0000
     4 C3       -1.3297   -1.1813   -5.2642   C.3       1 RES1   0.0000
     5 C4       -2.2603   -0.0352   -4.8868   C.3       1 RES1   0.0000
     6 P1       -2.2107    0.5157   -3.1340   P.3       1 RES1   0.0000
     7 S1       -0.4076    0.9992   -2.4875   S.3       1 RES1   0.0000
     8 C5       -3.2387    2.0569   -3.0737   C.3       1 RES1   0.0000
     9 C6       -4.4766    2.2166   -3.9557   C.3       1 RES1   0.0000
    10 C7       -5.7564    1.6375   -3.3680   C.3       1 RES1   0.0000
    11 C8       -6.9625    2.0465   -4.2021   C.3       1 RES1   0.0000
    12 C9       -2.9477   -0.8532   -2.0566   C.3       1 RES1   0.0000
    13 O1       -1.9610   -1.4573   -1.2124   O.3       1 RES1   0.0000
    14 C10      -2.4084   -2.7621   -0.8341   C.3       1 RES1   0.0000
    15 P2       -1.4948   -3.5177    0.6682   P.3       1 RES1   0.0000
    16 S2       -0.9176   -1.9606    1.7523   S.3       1 RES1   0.0000
    17 C11      -2.7632   -4.5387    1.5468   C.3       1 RES1   0.0000
    18 C12      -4.2426   -4.4100    1.2152   C.3       1 RES1   0.0000
    19 C13      -4.6488   -5.1341   -0.0664   C.3       1 RES1   0.0000
    20 C14      -6.1583   -5.0947   -0.2722   C.3       1 RES1   0.0000
    21 C15      -0.0166   -4.6808    0.7855   C.3       1 RES1   0.0000
    22 C16       0.3584   -5.9157   -0.0425   C.3       1 RES1   0.0000
    23 C17      -0.2643   -7.2510    0.3733   C.3       1 RES1   0.0000
    24 C18       0.4693   -8.3905   -0.3365   C.3       1 RES1   0.0000
    25 H1       -2.6888   -2.2701   -8.2738   H         1 RES1   0.0000
    26 H2       -3.4556   -1.0446   -7.2854   H         1 RES1   0.0000
    27 H3       -3.1838   -2.6670   -6.6340   H         1 RES1   0.0000
    28 H4       -1.0579   -0.5805   -7.3189   H         1 RES1   0.0000
    29 H5       -0.6710   -2.2652   -6.9901   H         1 RES1   0.0000
    30 H6       -0.3028   -0.9295   -4.9811   H         1 RES1   0.0000
    31 H7       -1.6230   -2.0866   -4.7256   H         1 RES1   0.0000
    32 H8       -3.2948   -0.2854   -5.1296   H         1 RES1   0.0000
    33 H9       -1.9811    0.8572   -5.4545   H         1 RES1   0.0000
    34 H10      -2.4956    2.8059   -3.3775   H         1 RES1   0.0000
    35 H11      -3.4799    2.2468   -2.0243   H         1 RES1   0.0000
    36 H12      -4.3043    1.8044   -4.9496   H         1 RES1   0.0000
    37 H13      -4.6316    3.2893   -4.0871   H         1 RES1   0.0000
    38 H14      -5.8871    2.0360   -2.3631   H         1 RES1   0.0000
    39 H15      -5.6909    0.5486   -3.3013   H         1 RES1   0.0000
    40 H16      -7.0471    3.1304   -4.2175   H         1 RES1   0.0000
    41 H17      -7.8771    1.6395   -3.7802   H         1 RES1   0.0000
    42 H18      -6.8609    1.6938   -5.2240   H         1 RES1   0.0000
    43 H19      -3.3593   -1.6131   -2.7325   H         1 RES1   0.0000
    44 H20      -3.7652   -0.4355   -1.4551   H         1 RES1   0.0000
    45 H21      -2.3953   -3.4111   -1.7090   H         1 RES1   0.0000
    46 H22      -3.4386   -2.6858   -0.4484   H         1 RES1   0.0000
    47 H23      -2.6039   -4.2679    2.5952   H         1 RES1   0.0000
    48 H24      -2.4493   -5.5803    1.4240   H         1 RES1   0.0000
    49 H25      -4.5606   -3.3644    1.1812   H         1 RES1   0.0000
    50 H26      -4.7995   -4.8639    2.0397   H         1 RES1   0.0000
    51 H27      -4.3243   -6.1731   -0.0075   H         1 RES1   0.0000
    52 H28      -4.1613   -4.7021   -0.9436   H         1 RES1   0.0000
    53 H29      -6.6617   -5.6806    0.4912   H         1 RES1   0.0000
    54 H30      -6.4142   -5.5015   -1.2484   H         1 RES1   0.0000
    55 H31      -6.5267   -4.0717   -0.2096   H         1 RES1   0.0000
    56 H32      -0.1740   -4.9915    1.8318   H         1 RES1   0.0000
    57 H33       0.8190   -3.9787    0.8007   H         1 RES1   0.0000
    58 H34       1.4407   -6.0298    0.0731   H         1 RES1   0.0000
    59 H35       0.1790   -5.7734   -1.1025   H         1 RES1   0.0000
    60 H36      -1.3266   -7.2853    0.1254   H         1 RES1   0.0000
    61 H37      -0.1656   -7.3838    1.4519   H         1 RES1   0.0000
    62 H38       0.4340   -8.2724   -1.4193   H         1 RES1   0.0000
    63 H39       0.0237   -9.3481   -0.0854   H         1 RES1   0.0000
    64 H40       1.5119   -8.4170   -0.0219   H         1 RES1   0.0000
    65 C19      -4.6568    4.6860    5.7126   C.3       1 RES1   0.0000
    66 C20      -3.4503    3.7542    5.7449   C.3       1 RES1   0.0000
    67 C21      -2.8973    3.4301    4.3548   C.3       1 RES1   0.0000
    68 C22      -3.9335    2.7484    3.4615   C.3       1 RES1   0.0000
    69 P3       -3.1865    1.9291    1.9966   P.3       1 RES1   0.0000
    70 S3       -1.4307    1.1203    2.3990   S.3       1 RES1   0.0000
    71 C23      -4.4288    0.6843    1.3974   C.3       1 RES1   0.0000
    72 C24      -5.9170    1.0482    1.4693   C.3       1 RES1   0.0000
    73 C25      -6.4198    1.8987    0.3043   C.3       1 RES1   0.0000
    74 C26      -7.9063    2.2284    0.4130   C.3       1 RES1   0.0000
    75 C27      -2.8639    3.1853    0.6354   C.3       1 RES1   0.0000
    76 O2       -1.5973    2.8866    0.0670   O.3       1 RES1   0.0000
    77 C28      -0.9417    4.0089   -0.5102   C.3       1 RES1   0.0000
    78 P4        0.8625    4.0394    0.0059   P.3       1 RES1   0.0000
    79 S4        1.8385    2.3775   -0.4714   S.3       1 RES1   0.0000
    80 C29       1.5991    5.3126   -1.0998   C.3       1 RES1   0.0000
    81 C30       0.8749    6.6352   -1.3030   C.3       1 RES1   0.0000
    82 C31       0.7544    7.4644   -0.0305   C.3       1 RES1   0.0000
    83 C32       0.1143    8.8191   -0.3026   C.3       1 RES1   0.0000
    84 C33       0.7513    4.2432    1.8437   C.3       1 RES1   0.0000
    85 C34       2.0913    4.1413    2.5650   C.3       1 RES1   0.0000
    86 C35       2.9669    5.3853    2.4250   C.3       1 RES1   0.0000
    87 C36       2.4671    6.5720    3.2412   C.3       1 RES1   0.0000
    88 H41      -4.8763    5.0397    6.7148   H         1 RES1   0.0000
    89 H42      -5.5444    4.1795    5.3386   H         1 RES1   0.0000
    90 H43      -4.4572    5.5565    5.0903   H         1 RES1   0.0000
    91 H44      -3.7131    2.8253    6.2533   H         1 RES1   0.0000
    92 H45      -2.6470    4.2227    6.3151   H         1 RES1   0.0000
    93 H46      -2.0389    2.7622    4.4622   H         1 RES1   0.0000
    94 H47      -2.5523    4.3528    3.8842   H         1 RES1   0.0000
    95 H48      -4.7136    3.4470    3.1477   H         1 RES1   0.0000
    96 H49      -4.4048    1.9285    4.0143   H         1 RES1   0.0000
    97 H50      -4.2229   -0.1787    2.0433   H         1 RES1   0.0000
    98 H51      -4.1374    0.4141    0.3757   H         1 RES1   0.0000
    99 H52      -6.1349    1.5505    2.4107   H         1 RES1   0.0000
   100 H53      -6.4779    0.1115    1.4687   H         1 RES1   0.0000
   101 H54      -6.2624    1.3370   -0.6181   H         1 RES1   0.0000
   102 H55      -5.8488    2.8310    0.2462   H         1 RES1   0.0000
   103 H56      -8.5043    1.3207    0.4557   H         1 RES1   0.0000
   104 H57      -8.2258    2.8066   -0.4509   H         1 RES1   0.0000
   105 H58      -8.1090    2.8194    1.3012   H         1 RES1   0.0000
   106 H59      -2.8563    4.1795    1.1037   H         1 RES1   0.0000
   107 H60      -3.6543    3.1528   -0.1272   H         1 RES1   0.0000
   108 H61      -1.3981    4.9435   -0.1652   H         1 RES1   0.0000
   109 H62      -1.0054    3.9543   -1.6055   H         1 RES1   0.0000
   110 H63       1.6828    4.7765   -2.0535   H         1 RES1   0.0000
   111 H64       2.6159    5.4720   -0.7351   H         1 RES1   0.0000
   112 H65      -0.1160    6.4671   -1.7292   H         1 RES1   0.0000
   113 H66       1.4480    7.2006   -2.0394   H         1 RES1   0.0000
   114 H67       1.7472    7.6129    0.3955   H         1 RES1   0.0000
   115 H68       0.1516    6.9127    0.6980   H         1 RES1   0.0000
   116 H69       0.7085    9.3805   -1.0178   H         1 RES1   0.0000
   117 H70       0.0481    9.3978    0.6138   H         1 RES1   0.0000
   118 H71      -0.8881    8.7028   -0.7074   H         1 RES1   0.0000
   119 H72       0.1190    3.3973    2.1524   H         1 RES1   0.0000
   120 H73       0.2502    5.1794    2.0857   H         1 RES1   0.0000
   121 H74       2.6262    3.2699    2.1803   H         1 RES1   0.0000
   122 H75       1.8992    3.9542    3.6237   H         1 RES1   0.0000
   123 H76       3.0292    5.6593    1.3689   H         1 RES1   0.0000
   124 H77       3.9746    5.1295    2.7598   H         1 RES1   0.0000
   125 H78       1.4727    6.8903    2.9373   H         1 RES1   0.0000
   126 H79       3.1391    7.4165    3.1168   H         1 RES1   0.0000
   127 H80       2.4370    6.3201    4.2982   H         1 RES1   0.0000
   128 C37       6.0645   -4.6240   -4.4601   C.3       1 RES1   0.0000
   129 C38       5.7206   -3.1391   -4.4922   C.3       1 RES1   0.0000
   130 C39       4.9066   -2.6939   -3.2735   C.3       1 RES1   0.0000
   131 C40       3.5427   -3.3816   -3.2417   C.3       1 RES1   0.0000
   132 P5        2.3647   -2.6184   -2.0583   P.3       1 RES1   0.0000
   133 S5        2.3240   -0.6472   -1.9824   S.3       1 RES1   0.0000
   134 C41       0.6590   -3.2983   -2.4133   C.3       1 RES1   0.0000
   135 C42       0.5890   -4.4795   -3.3904   C.3       1 RES1   0.0000
   136 C43      -0.8371   -4.8740   -3.8031   C.3       1 RES1   0.0000
   137 C44      -1.6602   -5.6492   -2.7803   C.3       1 RES1   0.0000
   138 C45       3.0196   -3.1237   -0.3744   C.3       1 RES1   0.0000
   139 O3        2.4457   -2.2458    0.5830   O.3       1 RES1   0.0000
   140 C46       3.1272   -2.2417    1.8380   C.3       1 RES1   0.0000
   141 P6        3.4792   -0.4648    2.3354   P.3       1 RES1   0.0000
   142 S6        1.7764    0.5497    2.4413   S.3       1 RES1   0.0000
   143 C47       4.0893   -0.4998    4.0752   C.3       1 RES1   0.0000
   144 C48       5.1650   -1.5018    4.4742   C.3       1 RES1   0.0000
   145 C49       6.5129   -1.2530    3.8087   C.3       1 RES1   0.0000
   146 C50       7.5643   -2.2372    4.3009   C.3       1 RES1   0.0000
   147 C51       4.5418    0.1115    0.9350   C.3       1 RES1   0.0000
   148 C52       4.8904    1.5985    0.9519   C.3       1 RES1   0.0000
   149 C53       6.0447    1.9585    1.8843   C.3       1 RES1   0.0000
   150 C54       7.3955    1.4684    1.3794   C.3       1 RES1   0.0000
   151 H81       6.7541   -4.8654   -5.2616   H         1 RES1   0.0000
   152 H82       5.1816   -5.2464   -4.5861   H         1 RES1   0.0000
   153 H83       6.5498   -4.8864   -3.5237   H         1 RES1   0.0000
   154 H84       5.1656   -2.9039   -5.4019   H         1 RES1   0.0000
   155 H85       6.6424   -2.5572   -4.5115   H         1 RES1   0.0000
   156 H86       4.7576   -1.6112   -3.3042   H         1 RES1   0.0000
   157 H87       5.4704   -2.9331   -2.3703   H         1 RES1   0.0000
   158 H88       3.6353   -4.4411   -2.9873   H         1 RES1   0.0000
   159 H89       3.0872   -3.3009   -4.2307   H         1 RES1   0.0000
   160 H90       0.1381   -2.4351   -2.8507   H         1 RES1   0.0000
   161 H91       0.1907   -3.5236   -1.4498   H         1 RES1   0.0000
   162 H92       1.1042   -5.3455   -2.9724   H         1 RES1   0.0000
   163 H93       1.1094   -4.1930   -4.3059   H         1 RES1   0.0000
   164 H94      -0.7557   -5.4971   -4.6932   H         1 RES1   0.0000
   165 H95      -1.3733   -3.9718   -4.0990   H         1 RES1   0.0000
   166 H96      -1.2736   -6.6545   -2.6554   H         1 RES1   0.0000
   167 H97      -2.6847   -5.7420   -3.1326   H         1 RES1   0.0000
   168 H98      -1.6828   -5.1774   -1.8001   H         1 RES1   0.0000
   169 H99       4.1079   -2.9674   -0.4500   H         1 RES1   0.0000
   170 H100      2.8324   -4.1757   -0.1250   H         1 RES1   0.0000
   171 H101      4.0809   -2.7763    1.7770   H         1 RES1   0.0000
   172 H102      2.4924   -2.7189    2.5971   H         1 RES1   0.0000
   173 H103      3.1753   -0.6734    4.6581   H         1 RES1   0.0000
   174 H104      4.4135    0.5224    4.2928   H         1 RES1   0.0000
   175 H105      4.8351   -2.5203    4.2617   H         1 RES1   0.0000
   176 H106      5.2896   -1.4244    5.5562   H         1 RES1   0.0000
   177 H107      6.8421   -0.2368    4.0273   H         1 RES1   0.0000
   178 H108      6.3982   -1.3454    2.7250   H         1 RES1   0.0000
   179 H109      7.6943   -2.1440    5.3749   H         1 RES1   0.0000
   180 H110      8.5196   -2.0436    3.8239   H         1 RES1   0.0000
   181 H111      7.2724   -3.2602    4.0787   H         1 RES1   0.0000
   182 H112      3.9131   -0.0853    0.0535   H         1 RES1   0.0000
   183 H113      5.4435   -0.4979    0.8762   H         1 RES1   0.0000
   184 H114      3.9997    2.1655    1.2322   H         1 RES1   0.0000
   185 H115      5.1457    1.8970   -0.0683   H         1 RES1   0.0000
   186 H116      5.8433    1.5488    2.8759   H         1 RES1   0.0000
   187 H117      6.0762    3.0459    1.9725   H         1 RES1   0.0000
   188 H118      7.4375    0.3853    1.3051   H         1 RES1   0.0000
   189 H119      8.1850    1.7830    2.0539   H         1 RES1   0.0000
   190 H120      7.6079    1.8848    0.3995   H         1 RES1   0.0000
@<TRIPOS>BOND
     1     1     7    1
     2     1    13    1
     3     1    16    1
     4     1    70    1
     5     1    76    1
     6     1    79    1
     7     1   133    1
     8     1   139    1
     9     1   142    1
    10     2     3    1
    11     2    25    1
    12     2    26    1
    13     2    27    1
    14     3     4    1
    15     3    28    1
    16     3    29    1
    17     4     5    1
    18     4    30    1
    19     4    31    1
    20     5     6    1
    21     5    32    1
    22     5    33    1
    23     6     7    2
    24     6     8    1
    25     6    12    1
    26     8     9    1
    27     8    34    1
    28     8    35    1
    29     9    10    1
    30     9    36    1
    31     9    37    1
    32    10    11    1
    33    10    38    1
    34    10    39    1
    35    11    40    1
    36    11    41    1
    37    11    42    1
    38    12    13    1
    39    12    43    1
    40    12    44    1
    41    13    14    1
    42    14    15    1
    43    14    45    1
    44    14    46    1
    45    15    16    2
    46    15    17    1
    47    15    21    1
    48    17    18    1
    49    17    47    1
    50    17    48    1
    51    18    19    1
    52    18    49    1
    53    18    50    1
    54    19    20    1
    55    19    51    1
    56    19    52    1
    57    20    53    1
    58    20    54    1
    59    20    55    1
    60    21    22    1
    61    21    56    1
    62    21    57    1
    63    22    23    1
    64    22    58    1
    65    22    59    1
    66    23    24    1
    67    23    60    1
    68    23    61    1
    69    24    62    1
    70    24    63    1
    71    24    64    1
    72    65    66    1
    73    65    88    1
    74    65    89    1
    75    65    90    1
    76    66    67    1
    77    66    91    1
    78    66    92    1
    79    67    68    1
    80    67    93    1
    81    67    94    1
    82    68    69    1
    83    68    95    1
    84    68    96    1
    85    69    70    2
    86    69    71    1
    87    69    75    1
    88    71    72    1
    89    71    97    1
    90    71    98    1
    91    72    73    1
    92    72    99    1
    93    72   100    1
    94    73    74    1
    95    73   101    1
    96    73   102    1
    97    74   103    1
    98    74   104    1
    99    74   105    1
   100    75    76    1
   101    75   106    1
   102    75   107    1
   103    76    77    1
   104    77    78    1
   105    77   108    1
   106    77   109    1
   107    78    79    2
   108    78    80    1
   109    78    84    1
   110    80    81    1
   111    80   110    1
   112    80   111    1
   113    81    82    1
   114    81   112    1
   115    81   113    1
   116    82    83    1
   117    82   114    1
   118    82   115    1
   119    83   116    1
   120    83   117    1
   121    83   118    1
   122    84    85    1
   123    84   119    1
   124    84   120    1
   125    85    86    1
   126    85   121    1
   127    85   122    1
   128    86    87    1
   129    86   123    1
   130    86   124    1
   131    87   125    1
   132    87   126    1
   133    87   127    1
   134   128   129    1
   135   128   151    1
   136   128   152    1
   137   128   153    1
   138   129   130    1
   139   129   154    1
   140   129   155    1
   141   130   131    1
   142   130   156    1
   143   130   157    1
   144   131   132    1
   145   131   158    1
   146   131   159    1
   147   132   133    2
   148   132   134    1
   149   132   138    1
   150   134   135    1
   151   134   160    1
   152   134   161    1
   153   135   136    1
   154   135   162    1
   155   135   163    1
   156   136   137    1
   157   136   164    1
   158   136   165    1
   159   137   166    1
   160   137   167    1
   161   137   168    1
   162   138   139    1
   163   138   169    1
   164   138   170    1
   165   139   140    1
   166   140   141    1
   167   140   171    1
   168   140   172    1
   169   141   142    2
   170   141   143    1
   171   141   147    1
   172   143   144    1
   173   143   173    1
   174   143   174    1
   175   144   145    1
   176   144   175    1
   177   144   176    1
   178   145   146    1
   179   145   177    1
   180   145   178    1
   181   146   179    1
   182   146   180    1
   183   146   181    1
   184   147   148    1
   185   147   182    1
   186   147   183    1
   187   148   149    1
   188   148   184    1
   189   148   185    1
   190   149   150    1
   191   149   186    1
   192   149   187    1
   193   150   188    1
   194   150   189    1
   195   150   190    1
@<TRIPOS>SUBSTRUCTURE
     1 RES1      190 GROUP             0 ****  ****    0  
