@<TRIPOS>MOLECULE
am_c3_9H2O_c0_0_nunpairedes_0_charge_3 Charge: 3 Unpaired_Electrons: 6 XTB_Unpaired_Electrons: 0 XTB_Charge: 3
   148   161     1     0     0
SMALL
NoCharges
****
Generated from Architector

@<TRIPOS>ATOM
     1 Eu1      -0.0520    0.0502   -0.0779   Eu        1 RES1   0.0000
     2 C1       -5.5858    2.2443    1.6545   C.3       1 RES1   0.0000
     3 C2       -4.8386    2.7472    0.4218   C.3       1 RES1   0.0000
     4 N1       -3.9454    1.7497   -0.1478   N.am      1 RES1   0.0000
     5 C3       -2.7740    1.3676    0.3553   C.2       1 RES1   0.0000
     6 O1       -2.1553    0.4396   -0.2165   O.2       1 RES1   0.0000
     7 C4       -2.0882    1.9234    1.6021   C.ar      1 RES1   0.0000
     8 C5       -2.4557    2.9615    2.4606   C.ar      1 RES1   0.0000
     9 C6       -1.6487    3.2487    3.5586   C.ar      1 RES1   0.0000
    10 C7       -0.5247    2.4826    3.8136   C.ar      1 RES1   0.0000
    11 C8       -0.2114    1.4595    2.9166   C.ar      1 RES1   0.0000
    12 C9        0.9759    0.5852    3.0838   C.ar      1 RES1   0.0000
    13 C10       1.6332    0.4058    4.3050   C.ar      1 RES1   0.0000
    14 C11       2.6830   -0.4980    4.3448   C.ar      1 RES1   0.0000
    15 C12       3.0850   -1.1480    3.1836   C.ar      1 RES1   0.0000
    16 C13       2.4277   -0.8663    1.9859   C.ar      1 RES1   0.0000
    17 C14       2.6680   -1.4487    0.6037   C.2       1 RES1   0.0000
    18 O2        1.7557   -1.2352   -0.2242   O.2       1 RES1   0.0000
    19 N2        3.7543   -2.1570    0.2615   N.am      1 RES1   0.0000
    20 C15       5.0166   -2.0156    0.9875   C.3       1 RES1   0.0000
    21 C16       5.4162   -3.2777    1.7505   C.3       1 RES1   0.0000
    22 C17       3.7780   -2.9523   -0.9347   C.ar      1 RES1   0.0000
    23 C18       2.6166   -3.3694   -1.5978   C.ar      1 RES1   0.0000
    24 C19       2.6917   -4.1536   -2.7412   C.ar      1 RES1   0.0000
    25 C20       1.4665   -4.5853   -3.4937   C.3       1 RES1   0.0000
    26 C21       3.9294   -4.5767   -3.2104   C.ar      1 RES1   0.0000
    27 C22       5.0894   -4.2146   -2.5486   C.ar      1 RES1   0.0000
    28 C23       6.4252   -4.7204   -2.9805   C.3       1 RES1   0.0000
    29 C24       5.0014   -3.3864   -1.4360   C.ar      1 RES1   0.0000
    30 N3        1.3769   -0.0366    1.9744   N.ar      1 RES1   0.0000
    31 N4       -0.9650    1.2247    1.8427   N.ar      1 RES1   0.0000
    32 C25      -4.4284    1.1210   -1.3491   C.ar      1 RES1   0.0000
    33 C26      -3.5974    0.8866   -2.4429   C.ar      1 RES1   0.0000
    34 C27      -4.1275    0.4168   -3.6360   C.ar      1 RES1   0.0000
    35 C28      -3.2676    0.2232   -4.8476   C.3       1 RES1   0.0000
    36 C29      -5.4924    0.1749   -3.7317   C.ar      1 RES1   0.0000
    37 C30      -6.3308    0.3745   -2.6456   C.ar      1 RES1   0.0000
    38 C31      -7.8078    0.1789   -2.7452   C.3       1 RES1   0.0000
    39 C32      -5.7798    0.8284   -1.4509   C.ar      1 RES1   0.0000
    40 H1       -6.1649    3.0572    2.0817   H         1 RES1   0.0000
    41 H2       -4.9184    1.8601    2.4196   H         1 RES1   0.0000
    42 H3       -6.2606    1.4357    1.3918   H         1 RES1   0.0000
    43 H4       -4.2638    3.6500    0.6328   H         1 RES1   0.0000
    44 H5       -5.5548    2.9924   -0.3642   H         1 RES1   0.0000
    45 H6       -3.3357    3.5612    2.3087   H         1 RES1   0.0000
    46 H7       -1.9101    4.0626    4.2211   H         1 RES1   0.0000
    47 H8        0.0847    2.6883    4.6767   H         1 RES1   0.0000
    48 H9        1.3280    0.9160    5.2062   H         1 RES1   0.0000
    49 H10       3.2083   -0.7014    5.2671   H         1 RES1   0.0000
    50 H11       3.8710   -1.8777    3.2456   H         1 RES1   0.0000
    51 H12       4.9356   -1.1447    1.6371   H         1 RES1   0.0000
    52 H13       5.7968   -1.7632    0.2628   H         1 RES1   0.0000
    53 H14       4.6552   -3.5908    2.4626   H         1 RES1   0.0000
    54 H15       6.3451   -3.0952    2.2849   H         1 RES1   0.0000
    55 H16       5.5761   -4.1103    1.0704   H         1 RES1   0.0000
    56 H17       1.6353   -3.1106   -1.2317   H         1 RES1   0.0000
    57 H18       0.5516   -4.2352   -3.0214   H         1 RES1   0.0000
    58 H19       1.4367   -5.6727   -3.5536   H         1 RES1   0.0000
    59 H20       1.4987   -4.2170   -4.5200   H         1 RES1   0.0000
    60 H21       3.9748   -5.1976   -4.0927   H         1 RES1   0.0000
    61 H22       6.3549   -5.2581   -3.9203   H         1 RES1   0.0000
    62 H23       6.8148   -5.4000   -2.2243   H         1 RES1   0.0000
    63 H24       7.1381   -3.9063   -3.0869   H         1 RES1   0.0000
    64 H25       5.9379   -3.1376   -0.9706   H         1 RES1   0.0000
    65 H26      -2.5376    1.0851   -2.3822   H         1 RES1   0.0000
    66 H27      -2.2149    0.3652   -4.6160   H         1 RES1   0.0000
    67 H28      -3.5555    0.9315   -5.6241   H         1 RES1   0.0000
    68 H29      -3.4096   -0.7729   -5.2602   H         1 RES1   0.0000
    69 H30      -5.8931   -0.1521   -4.6804   H         1 RES1   0.0000
    70 H31      -8.0902   -0.2702   -3.6924   H         1 RES1   0.0000
    71 H32      -8.3153    1.1402   -2.6670   H         1 RES1   0.0000
    72 H33      -8.1698   -0.4451   -1.9317   H         1 RES1   0.0000
    73 H34      -6.4478    0.9612   -0.6162   H         1 RES1   0.0000
    74 C33       4.7947    3.7795   -2.4246   C.3       1 RES1   0.0000
    75 C34       3.2734    3.7212   -2.5265   C.3       1 RES1   0.0000
    76 N5        2.6742    3.2195   -1.2914   N.am      1 RES1   0.0000
    77 C35       2.0120    2.0624   -1.2157   C.2       1 RES1   0.0000
    78 O3        1.3606    1.7463   -0.1946   O.2       1 RES1   0.0000
    79 C36       1.9728    1.0432   -2.3382   C.ar      1 RES1   0.0000
    80 C37       3.0231    0.7217   -3.1984   C.ar      1 RES1   0.0000
    81 C38       2.8393   -0.2853   -4.1390   C.ar      1 RES1   0.0000
    82 C39       1.6486   -0.9879   -4.1697   C.ar      1 RES1   0.0000
    83 C40       0.6921   -0.6917   -3.1994   C.ar      1 RES1   0.0000
    84 C41      -0.4932   -1.5513   -2.9471   C.ar      1 RES1   0.0000
    85 C42      -1.2794   -2.1595   -3.9250   C.ar      1 RES1   0.0000
    86 C43      -2.4079   -2.8442   -3.4946   C.ar      1 RES1   0.0000
    87 C44      -2.6601   -3.0015   -2.1356   C.ar      1 RES1   0.0000
    88 C45      -1.7515   -2.4740   -1.2135   C.ar      1 RES1   0.0000
    89 C46      -1.7684   -2.5350    0.3079   C.2       1 RES1   0.0000
    90 O4       -1.0007   -1.7431    0.8931   O.2       1 RES1   0.0000
    91 N6       -2.5769   -3.3543    0.9981   N.am      1 RES1   0.0000
    92 C47      -3.0861   -4.6175    0.4728   C.3       1 RES1   0.0000
    93 C48      -4.6092   -4.6290    0.3831   C.3       1 RES1   0.0000
    94 C49      -2.9042   -3.0523    2.3611   C.ar      1 RES1   0.0000
    95 C50      -3.1837   -4.0625    3.2786   C.ar      1 RES1   0.0000
    96 C51      -3.6545   -3.7652    4.5511   C.ar      1 RES1   0.0000
    97 C52      -4.0461   -4.8405    5.5123   C.3       1 RES1   0.0000
    98 C53      -3.7811   -2.4341    4.9308   C.ar      1 RES1   0.0000
    99 C54      -3.4607   -1.4114    4.0511   C.ar      1 RES1   0.0000
   100 C55      -3.5701    0.0257    4.4690   C.3       1 RES1   0.0000
   101 C56      -3.0553   -1.7274    2.7599   C.ar      1 RES1   0.0000
   102 N7       -0.7393   -1.7128   -1.6461   N.ar      1 RES1   0.0000
   103 N8        0.8428    0.3207   -2.3404   N.ar      1 RES1   0.0000
   104 C57       2.8036    4.0543   -0.1296   C.ar      1 RES1   0.0000
   105 C58       2.9762    5.4261   -0.2759   C.ar      1 RES1   0.0000
   106 C59       3.2044    6.2423    0.8224   C.ar      1 RES1   0.0000
   107 C60       3.5076    7.6926    0.6534   C.3       1 RES1   0.0000
   108 C61       3.1778    5.6845    2.0928   C.ar      1 RES1   0.0000
   109 C62       2.9633    4.3260    2.2676   C.ar      1 RES1   0.0000
   110 C63       2.9180    3.7582    3.6515   C.3       1 RES1   0.0000
   111 C64       2.8112    3.5105    1.1556   C.ar      1 RES1   0.0000
   112 H35       5.2204    4.1707   -3.3441   H         1 RES1   0.0000
   113 H36       5.2283    2.8011   -2.2313   H         1 RES1   0.0000
   114 H37       5.0951    4.4289   -1.6072   H         1 RES1   0.0000
   115 H38       2.9389    3.0996   -3.3547   H         1 RES1   0.0000
   116 H39       2.8789    4.7212   -2.7161   H         1 RES1   0.0000
   117 H40       3.9808    1.2087   -3.1083   H         1 RES1   0.0000
   118 H41       3.6315   -0.5252   -4.8336   H         1 RES1   0.0000
   119 H42       1.4942   -1.7865   -4.8742   H         1 RES1   0.0000
   120 H43      -1.0510   -2.0644   -4.9762   H         1 RES1   0.0000
   121 H44      -3.1047   -3.2710   -4.2025   H         1 RES1   0.0000
   122 H45      -3.5698   -3.4903   -1.8296   H         1 RES1   0.0000
   123 H46      -2.7572   -5.4211    1.1384   H         1 RES1   0.0000
   124 H47      -2.6126   -4.8140   -0.4877   H         1 RES1   0.0000
   125 H48      -5.0475   -4.4910    1.3690   H         1 RES1   0.0000
   126 H49      -4.9468   -5.5864   -0.0056   H         1 RES1   0.0000
   127 H50      -4.9832   -3.8319   -0.2585   H         1 RES1   0.0000
   128 H51      -3.0530   -5.1015    3.0314   H         1 RES1   0.0000
   129 H52      -3.9920   -5.8242    5.0570   H         1 RES1   0.0000
   130 H53      -5.0669   -4.6742    5.8550   H         1 RES1   0.0000
   131 H54      -3.4029   -4.8255    6.3917   H         1 RES1   0.0000
   132 H55      -4.1348   -2.2046    5.9254   H         1 RES1   0.0000
   133 H56      -3.7369    0.1051    5.5395   H         1 RES1   0.0000
   134 H57      -4.4079    0.5018    3.9594   H         1 RES1   0.0000
   135 H58      -2.6587    0.5675    4.2169   H         1 RES1   0.0000
   136 H59      -2.8639   -0.9239    2.0624   H         1 RES1   0.0000
   137 H60       2.9695    5.9061   -1.2388   H         1 RES1   0.0000
   138 H61       3.6381    7.9502   -0.3919   H         1 RES1   0.0000
   139 H62       4.4250    7.9386    1.1846   H         1 RES1   0.0000
   140 H63       2.7115    8.3113    1.0627   H         1 RES1   0.0000
   141 H64       3.3239    6.3229    2.9498   H         1 RES1   0.0000
   142 H65       3.8073    4.0559    4.2015   H         1 RES1   0.0000
   143 H66       2.8544    2.6732    3.6325   H         1 RES1   0.0000
   144 H67       2.0583    4.1563    4.1891   H         1 RES1   0.0000
   145 H68       2.7128    2.4468    1.3031   H         1 RES1   0.0000
   146 O5       -0.7565    2.6739   -1.4312   O.3       1 RES1   0.0000
   147 H69      -0.4001    3.4779   -1.0382   H         1 RES1   0.0000
   148 H70      -1.0802    2.9261   -2.3036   H         1 RES1   0.0000
@<TRIPOS>BOND
     1     1     6    1
     2     1    18    1
     3     1    30    1
     4     1    31    1
     5     1    78    1
     6     1    90    1
     7     1   102    1
     8     1   103    1
     9     1   146    1
    10     2     3    1
    11     2    40    1
    12     2    41    1
    13     2    42    1
    14     3     4    1
    15     3    43    1
    16     3    44    1
    17     4     5    1
    18     4    32    1
    19     5     6    2
    20     5     7    1
    21     7     8    1
    22     7    31    2
    23     8     9    2
    24     8    45    1
    25     9    10    1
    26     9    46    1
    27    10    11    2
    28    10    47    1
    29    11    12    1
    30    11    31    1
    31    12    13    1
    32    12    30    2
    33    13    14    2
    34    13    48    1
    35    14    15    1
    36    14    49    1
    37    15    16    2
    38    15    50    1
    39    16    17    1
    40    16    30    1
    41    17    18    2
    42    17    19    1
    43    19    20    1
    44    19    22    1
    45    20    21    1
    46    20    51    1
    47    20    52    1
    48    21    53    1
    49    21    54    1
    50    21    55    1
    51    22    23    1
    52    22    29    2
    53    23    24    2
    54    23    56    1
    55    24    25    1
    56    24    26    1
    57    25    57    1
    58    25    58    1
    59    25    59    1
    60    26    27    2
    61    26    60    1
    62    27    28    1
    63    27    29    1
    64    28    61    1
    65    28    62    1
    66    28    63    1
    67    29    64    1
    68    32    33    1
    69    32    39    2
    70    33    34    2
    71    33    65    1
    72    34    35    1
    73    34    36    1
    74    35    66    1
    75    35    67    1
    76    35    68    1
    77    36    37    2
    78    36    69    1
    79    37    38    1
    80    37    39    1
    81    38    70    1
    82    38    71    1
    83    38    72    1
    84    39    73    1
    85    74    75    1
    86    74   112    1
    87    74   113    1
    88    74   114    1
    89    75    76    1
    90    75   115    1
    91    75   116    1
    92    76    77    1
    93    76   104    1
    94    77    78    2
    95    77    79    1
    96    79    80    1
    97    79   103    2
    98    80    81    2
    99    80   117    1
   100    81    82    1
   101    81   118    1
   102    82    83    2
   103    82   119    1
   104    83    84    1
   105    83   103    1
   106    84    85    1
   107    84   102    2
   108    85    86    2
   109    85   120    1
   110    86    87    1
   111    86   121    1
   112    87    88    2
   113    87   122    1
   114    88    89    1
   115    88   102    1
   116    89    90    2
   117    89    91    1
   118    91    92    1
   119    91    94    1
   120    92    93    1
   121    92   123    1
   122    92   124    1
   123    93   125    1
   124    93   126    1
   125    93   127    1
   126    94    95    1
   127    94   101    2
   128    95    96    2
   129    95   128    1
   130    96    97    1
   131    96    98    1
   132    97   129    1
   133    97   130    1
   134    97   131    1
   135    98    99    2
   136    98   132    1
   137    99   100    1
   138    99   101    1
   139   100   133    1
   140   100   134    1
   141   100   135    1
   142   101   136    1
   143   104   105    1
   144   104   111    2
   145   105   106    2
   146   105   137    1
   147   106   107    1
   148   106   108    1
   149   107   138    1
   150   107   139    1
   151   107   140    1
   152   108   109    2
   153   108   141    1
   154   109   110    1
   155   109   111    1
   156   110   142    1
   157   110   143    1
   158   110   144    1
   159   111   145    1
   160   146   147    1
   161   146   148    1
@<TRIPOS>SUBSTRUCTURE
     1 RES1      148 GROUP             0 ****  ****    0  
