@<TRIPOS>MOLECULE
am_c3_9H2O_c0_0_nunpairedes_0_charge_3 Charge: 3 Unpaired_Electrons: 6 XTB_Unpaired_Electrons: 0 XTB_Charge: 3
   214   219     1     0     0
SMALL
NoCharges
****
Generated from Architector

@<TRIPOS>ATOM
     1 Eu1      -0.4291   -0.1447    0.0617   Eu        1 RES1   0.0000
     2 C1        6.8175    1.3466    3.2339   C.3       1 RES1   0.0000
     3 C2        7.0410    2.3271    2.0844   C.3       1 RES1   0.0000
     4 C3        5.7583    3.0027    1.5846   C.3       1 RES1   0.0000
     5 C4        5.1157    3.9246    2.6217   C.3       1 RES1   0.0000
     6 C5        3.7393    4.4791    2.2116   C.3       1 RES1   0.0000
     7 C6        2.8257    4.6081    3.4366   C.3       1 RES1   0.0000
     8 C7        1.4671    5.2839    3.1938   C.3       1 RES1   0.0000
     9 C8        0.2389    4.4284    2.8219   C.3       1 RES1   0.0000
    10 N1       -0.0780    4.3471    1.3911   N.am      1 RES1   0.0000
    11 C9       -0.1454    5.6111    0.6775   C.3       1 RES1   0.0000
    12 C10      -0.4583    3.2091    0.8113   C.2       1 RES1   0.0000
    13 O1       -0.5520    2.1009    1.3752   O.2       1 RES1   0.0000
    14 C11      -0.7361    3.2655   -0.7021   C.3       1 RES1   0.0000
    15 O2       -1.3230    2.0532   -1.1427   O.3       1 RES1   0.0000
    16 C12      -2.7261    2.1555   -1.3998   C.3       1 RES1   0.0000
    17 C13      -3.3901    0.8467   -0.9406   C.2       1 RES1   0.0000
    18 O3       -2.7155    0.1225   -0.1822   O.2       1 RES1   0.0000
    19 N2       -4.6213    0.6013   -1.3554   N.am      1 RES1   0.0000
    20 C14      -5.3455    1.5160   -2.2218   C.3       1 RES1   0.0000
    21 C15      -5.3339   -0.6648   -1.1422   C.3       1 RES1   0.0000
    22 C16      -4.9866   -1.4433    0.1172   C.3       1 RES1   0.0000
    23 C17      -5.2404   -0.6902    1.4263   C.3       1 RES1   0.0000
    24 C18      -6.6521   -0.1126    1.6127   C.3       1 RES1   0.0000
    25 C19      -6.8426    1.3694    1.2546   C.3       1 RES1   0.0000
    26 C20      -5.7236    2.3082    1.7094   C.3       1 RES1   0.0000
    27 C21      -5.4223    2.2185    3.2044   C.3       1 RES1   0.0000
    28 C22      -4.1798    3.0209    3.5713   C.3       1 RES1   0.0000
    29 H1        7.7538    0.8513    3.4807   H         1 RES1   0.0000
    30 H2        6.0939    0.5764    2.9569   H         1 RES1   0.0000
    31 H3        6.4708    1.8545    4.1300   H         1 RES1   0.0000
    32 H4        7.4872    1.7809    1.2483   H         1 RES1   0.0000
    33 H5        7.7484    3.0953    2.3969   H         1 RES1   0.0000
    34 H6        5.0559    2.2116    1.3003   H         1 RES1   0.0000
    35 H7        5.9930    3.5735    0.6853   H         1 RES1   0.0000
    36 H8        5.7973    4.7512    2.8120   H         1 RES1   0.0000
    37 H9        5.0108    3.3843    3.5632   H         1 RES1   0.0000
    38 H10       3.2823    3.8392    1.4560   H         1 RES1   0.0000
    39 H11       3.8651    5.4607    1.7576   H         1 RES1   0.0000
    40 H12       3.3601    5.2260    4.1559   H         1 RES1   0.0000
    41 H13       2.6829    3.6349    3.9067   H         1 RES1   0.0000
    42 H14       1.6270    6.0749    2.4642   H         1 RES1   0.0000
    43 H15       1.1994    5.7696    4.1291   H         1 RES1   0.0000
    44 H16      -0.6341    4.8806    3.3038   H         1 RES1   0.0000
    45 H17       0.3180    3.4052    3.1910   H         1 RES1   0.0000
    46 H18      -0.0144    6.4239    1.3841   H         1 RES1   0.0000
    47 H19      -1.1126    5.7647    0.2036   H         1 RES1   0.0000
    48 H20       0.6318    5.6820   -0.0860   H         1 RES1   0.0000
    49 H21       0.2261    3.3765   -1.2162   H         1 RES1   0.0000
    50 H22      -1.3739    4.1131   -0.9715   H         1 RES1   0.0000
    51 H23      -2.8660    2.3227   -2.4709   H         1 RES1   0.0000
    52 H24      -3.1685    2.9843   -0.8323   H         1 RES1   0.0000
    53 H25      -5.0583    2.5465   -2.0451   H         1 RES1   0.0000
    54 H26      -6.4123    1.4390   -2.0142   H         1 RES1   0.0000
    55 H27      -5.1944    1.2626   -3.2743   H         1 RES1   0.0000
    56 H28      -5.1565   -1.2977   -2.0202   H         1 RES1   0.0000
    57 H29      -6.3979   -0.4286   -1.1195   H         1 RES1   0.0000
    58 H30      -3.9379   -1.7418    0.0923   H         1 RES1   0.0000
    59 H31      -5.6021   -2.3417    0.0960   H         1 RES1   0.0000
    60 H32      -4.4878    0.0882    1.5347   H         1 RES1   0.0000
    61 H33      -5.0715   -1.4042    2.2321   H         1 RES1   0.0000
    62 H34      -6.9325   -0.2321    2.6599   H         1 RES1   0.0000
    63 H35      -7.3703   -0.7003    1.0374   H         1 RES1   0.0000
    64 H36      -7.7745    1.6950    1.7197   H         1 RES1   0.0000
    65 H37      -6.9694    1.4992    0.1792   H         1 RES1   0.0000
    66 H38      -6.0197    3.3329    1.4715   H         1 RES1   0.0000
    67 H39      -4.8055    2.1044    1.1467   H         1 RES1   0.0000
    68 H40      -5.2632    1.1808    3.4971   H         1 RES1   0.0000
    69 H41      -6.2792    2.5911    3.7652   H         1 RES1   0.0000
    70 H42      -3.3053    2.6274    3.0492   H         1 RES1   0.0000
    71 H43      -3.9928    2.9626    4.6406   H         1 RES1   0.0000
    72 H44      -4.3063    4.0667    3.2998   H         1 RES1   0.0000
    73 C23      -3.6490    0.6672    7.0870   C.3       1 RES1   0.0000
    74 C24      -4.2326   -0.6779    6.6768   C.3       1 RES1   0.0000
    75 C25      -3.4381   -1.8816    7.1835   C.3       1 RES1   0.0000
    76 C26      -2.0505   -2.0311    6.5476   C.3       1 RES1   0.0000
    77 C27      -0.8970   -1.4973    7.3968   C.3       1 RES1   0.0000
    78 C28       0.4479   -1.6960    6.6930   C.3       1 RES1   0.0000
    79 C29       0.6489   -0.7159    5.5359   C.3       1 RES1   0.0000
    80 C30       1.7534   -1.1861    4.5894   C.3       1 RES1   0.0000
    81 N3        2.2495   -0.0817    3.7815   N.am      1 RES1   0.0000
    82 C31       3.1045    0.8613    4.4733   C.3       1 RES1   0.0000
    83 C32       1.7823    0.1276    2.5619   C.2       1 RES1   0.0000
    84 O4        0.9682   -0.6142    1.9771   O.2       1 RES1   0.0000
    85 C33       2.3329    1.3321    1.8066   C.3       1 RES1   0.0000
    86 O5        1.8032    1.2789    0.4906   O.3       1 RES1   0.0000
    87 C34       2.5937    1.9238   -0.4852   C.3       1 RES1   0.0000
    88 C35       2.2639    1.2133   -1.7974   C.2       1 RES1   0.0000
    89 O6        1.3489    0.3704   -1.7853   O.2       1 RES1   0.0000
    90 N4        3.0346    1.4835   -2.8459   N.am      1 RES1   0.0000
    91 C36       3.9240    2.6282   -2.8766   C.3       1 RES1   0.0000
    92 C37       3.2242    0.4736   -3.8817   C.3       1 RES1   0.0000
    93 C38       4.6003   -0.1948   -3.7159   C.3       1 RES1   0.0000
    94 C39       4.9294   -0.5318   -2.2605   C.3       1 RES1   0.0000
    95 C40       6.3099   -1.1825   -2.0945   C.3       1 RES1   0.0000
    96 C41       6.3452   -2.7098   -2.1964   C.3       1 RES1   0.0000
    97 C42       6.0410   -3.4456   -0.8872   C.3       1 RES1   0.0000
    98 C43       4.5664   -3.6946   -0.5645   C.3       1 RES1   0.0000
    99 C44       3.8878   -4.5978   -1.5883   C.3       1 RES1   0.0000
   100 H45      -4.3408    1.4679    6.8359   H         1 RES1   0.0000
   101 H46      -3.4797    0.6929    8.1598   H         1 RES1   0.0000
   102 H47      -2.7066    0.8612    6.5788   H         1 RES1   0.0000
   103 H48      -5.2452   -0.7529    7.0737   H         1 RES1   0.0000
   104 H49      -4.3045   -0.7266    5.5865   H         1 RES1   0.0000
   105 H50      -3.3424   -1.8265    8.2682   H         1 RES1   0.0000
   106 H51      -4.0173   -2.7787    6.9582   H         1 RES1   0.0000
   107 H52      -1.8507   -3.0938    6.3817   H         1 RES1   0.0000
   108 H53      -2.0530   -1.5332    5.5745   H         1 RES1   0.0000
   109 H54      -1.0330   -0.4411    7.6312   H         1 RES1   0.0000
   110 H55      -0.8783   -2.0440    8.3403   H         1 RES1   0.0000
   111 H56       1.2564   -1.5574    7.4116   H         1 RES1   0.0000
   112 H57       0.5143   -2.7251    6.3294   H         1 RES1   0.0000
   113 H58      -0.2670   -0.5926    4.9564   H         1 RES1   0.0000
   114 H59       0.9077    0.2572    5.9555   H         1 RES1   0.0000
   115 H60       2.5922   -1.5945    5.1554   H         1 RES1   0.0000
   116 H61       1.3755   -1.9547    3.9146   H         1 RES1   0.0000
   117 H62       3.6964    0.3285    5.2120   H         1 RES1   0.0000
   118 H63       3.7795    1.3704    3.7923   H         1 RES1   0.0000
   119 H64       2.5090    1.6104    4.9972   H         1 RES1   0.0000
   120 H65       2.0337    2.2596    2.3003   H         1 RES1   0.0000
   121 H66       3.4239    1.2527    1.7700   H         1 RES1   0.0000
   122 H67       2.4157    3.0087   -0.5140   H         1 RES1   0.0000
   123 H68       3.6596    1.7585   -0.2782   H         1 RES1   0.0000
   124 H69       3.3725    3.5484   -2.6827   H         1 RES1   0.0000
   125 H70       4.7346    2.5548   -2.1489   H         1 RES1   0.0000
   126 H71       4.3661    2.7012   -3.8641   H         1 RES1   0.0000
   127 H72       2.4135   -0.2454   -3.7627   H         1 RES1   0.0000
   128 H73       3.1463    0.9349   -4.8670   H         1 RES1   0.0000
   129 H74       4.6189   -1.0991   -4.3220   H         1 RES1   0.0000
   130 H75       5.3751    0.4674   -4.1004   H         1 RES1   0.0000
   131 H76       4.9387    0.3947   -1.6832   H         1 RES1   0.0000
   132 H77       4.1493   -1.1684   -1.8400   H         1 RES1   0.0000
   133 H78       6.9734   -0.7648   -2.8545   H         1 RES1   0.0000
   134 H79       6.7177   -0.8902   -1.1236   H         1 RES1   0.0000
   135 H80       5.6809   -3.0528   -2.9894   H         1 RES1   0.0000
   136 H81       7.3587   -2.9838   -2.4884   H         1 RES1   0.0000
   137 H82       6.5290   -4.4195   -0.9291   H         1 RES1   0.0000
   138 H83       6.4947   -2.8958   -0.0598   H         1 RES1   0.0000
   139 H84       4.5285   -4.1817    0.4132   H         1 RES1   0.0000
   140 H85       4.0224   -2.7503   -0.4731   H         1 RES1   0.0000
   141 H86       4.4889   -5.4862   -1.7538   H         1 RES1   0.0000
   142 H87       2.9086   -4.9195   -1.2419   H         1 RES1   0.0000
   143 H88       3.7633   -4.0956   -2.5435   H         1 RES1   0.0000
   144 C45      -1.7439    5.1066   -4.6487   C.3       1 RES1   0.0000
   145 C46      -0.3480    4.6520   -4.2336   C.3       1 RES1   0.0000
   146 C47      -0.2006    3.1285   -4.2019   C.3       1 RES1   0.0000
   147 C48      -0.0395    2.5139   -5.5905   C.3       1 RES1   0.0000
   148 C49      -0.1792    0.9885   -5.5757   C.3       1 RES1   0.0000
   149 C50      -1.6438    0.5457   -5.5785   C.3       1 RES1   0.0000
   150 C51      -1.8478   -0.9576   -5.7912   C.3       1 RES1   0.0000
   151 C52      -1.8828   -1.8082   -4.5223   C.3       1 RES1   0.0000
   152 N5       -0.5800   -2.1539   -3.9599   N.am      1 RES1   0.0000
   153 C53       0.3118   -2.9467   -4.7800   C.3       1 RES1   0.0000
   154 C54      -0.3198   -1.8842   -2.6860   C.2       1 RES1   0.0000
   155 O7       -1.0434   -1.1686   -1.9683   O.2       1 RES1   0.0000
   156 C55       0.9180   -2.5372   -2.0593   C.3       1 RES1   0.0000
   157 O8        0.9133   -2.3225   -0.6536   O.3       1 RES1   0.0000
   158 C56       0.7035   -3.4884    0.1406   C.3       1 RES1   0.0000
   159 C57      -0.3626   -3.1999    1.2181   C.2       1 RES1   0.0000
   160 O9       -1.0377   -2.1593    1.1088   O.2       1 RES1   0.0000
   161 N6       -0.4866   -4.1053    2.1812   N.am      1 RES1   0.0000
   162 C58       0.3381   -5.3042    2.1778   C.3       1 RES1   0.0000
   163 C59      -1.3166   -3.9311    3.3810   C.3       1 RES1   0.0000
   164 C60      -2.6464   -3.2005    3.2467   C.3       1 RES1   0.0000
   165 C61      -3.7017   -3.8563    2.3544   C.3       1 RES1   0.0000
   166 C62      -3.9064   -5.3690    2.4954   C.3       1 RES1   0.0000
   167 C63      -3.0946   -6.2624    1.5456   C.3       1 RES1   0.0000
   168 C64      -2.9422   -5.7418    0.1150   C.3       1 RES1   0.0000
   169 C65      -4.2757   -5.5126   -0.5957   C.3       1 RES1   0.0000
   170 C66      -4.0804   -4.8511   -1.9553   C.3       1 RES1   0.0000
   171 H89      -1.8181    6.1904   -4.6033   H         1 RES1   0.0000
   172 H90      -2.5013    4.6842   -3.9882   H         1 RES1   0.0000
   173 H91      -1.9717    4.8040   -5.6664   H         1 RES1   0.0000
   174 H92      -0.1314    5.0612   -3.2410   H         1 RES1   0.0000
   175 H93       0.3864    5.0673   -4.9255   H         1 RES1   0.0000
   176 H94      -1.0725    2.6937   -3.7122   H         1 RES1   0.0000
   177 H95       0.6755    2.8574   -3.6037   H         1 RES1   0.0000
   178 H96      -0.7816    2.9307   -6.2702   H         1 RES1   0.0000
   179 H97       0.9424    2.7871   -5.9800   H         1 RES1   0.0000
   180 H98       0.3422    0.5883   -4.7021   H         1 RES1   0.0000
   181 H99       0.2993    0.5889   -6.4713   H         1 RES1   0.0000
   182 H100     -2.1358    1.0682   -6.4009   H         1 RES1   0.0000
   183 H101     -2.1324    0.8511   -4.6513   H         1 RES1   0.0000
   184 H102     -1.0854   -1.3236   -6.4786   H         1 RES1   0.0000
   185 H103     -2.8084   -1.1054   -6.2840   H         1 RES1   0.0000
   186 H104     -2.3853   -2.7554   -4.7428   H         1 RES1   0.0000
   187 H105     -2.4336   -1.2968   -3.7301   H         1 RES1   0.0000
   188 H106     -0.1035   -3.0246   -5.7797   H         1 RES1   0.0000
   189 H107      0.4299   -3.9593   -4.3942   H         1 RES1   0.0000
   190 H108      1.2949   -2.4808   -4.8551   H         1 RES1   0.0000
   191 H109      1.8324   -2.0940   -2.4697   H         1 RES1   0.0000
   192 H110      0.9216   -3.6067   -2.2900   H         1 RES1   0.0000
   193 H111      1.6619   -3.7548    0.6061   H         1 RES1   0.0000
   194 H112      0.3614   -4.3297   -0.4729   H         1 RES1   0.0000
   195 H113      0.2461   -5.8354    1.2326   H         1 RES1   0.0000
   196 H114      0.0122   -5.9786    2.9653   H         1 RES1   0.0000
   197 H115      1.3900   -5.0799    2.3607   H         1 RES1   0.0000
   198 H116     -0.7113   -3.4062    4.1258   H         1 RES1   0.0000
   199 H117     -1.5297   -4.9309    3.7623   H         1 RES1   0.0000
   200 H118     -2.4779   -2.1819    2.8930   H         1 RES1   0.0000
   201 H119     -3.0424   -3.1435    4.2604   H         1 RES1   0.0000
   202 H120     -3.4941   -3.6046    1.3186   H         1 RES1   0.0000
   203 H121     -4.6506   -3.3848    2.6145   H         1 RES1   0.0000
   204 H122     -4.9627   -5.5755    2.3174   H         1 RES1   0.0000
   205 H123     -3.7064   -5.6775    3.5239   H         1 RES1   0.0000
   206 H124     -3.5954   -7.2309    1.5042   H         1 RES1   0.0000
   207 H125     -2.0980   -6.4423    1.9462   H         1 RES1   0.0000
   208 H126     -2.3666   -6.4775   -0.4525   H         1 RES1   0.0000
   209 H127     -2.3648   -4.8108    0.1082   H         1 RES1   0.0000
   210 H128     -4.9232   -4.8812    0.0127   H         1 RES1   0.0000
   211 H129     -4.7809   -6.4698   -0.7256   H         1 RES1   0.0000
   212 H130     -3.5884   -3.8832   -1.8430   H         1 RES1   0.0000
   213 H131     -5.0403   -4.6968   -2.4417   H         1 RES1   0.0000
   214 H132     -3.4694   -5.4789   -2.6002   H         1 RES1   0.0000
@<TRIPOS>BOND
     1     1    13    1
     2     1    15    1
     3     1    18    1
     4     1    84    1
     5     1    86    1
     6     1    89    1
     7     1   155    1
     8     1   157    1
     9     1   160    1
    10     2     3    1
    11     2    29    1
    12     2    30    1
    13     2    31    1
    14     3     4    1
    15     3    32    1
    16     3    33    1
    17     4     5    1
    18     4    34    1
    19     4    35    1
    20     5     6    1
    21     5    36    1
    22     5    37    1
    23     6     7    1
    24     6    38    1
    25     6    39    1
    26     7     8    1
    27     7    40    1
    28     7    41    1
    29     8     9    1
    30     8    42    1
    31     8    43    1
    32     9    10    1
    33     9    44    1
    34     9    45    1
    35    10    11    1
    36    10    12    1
    37    11    46    1
    38    11    47    1
    39    11    48    1
    40    12    13    2
    41    12    14    1
    42    14    15    1
    43    14    49    1
    44    14    50    1
    45    15    16    1
    46    16    17    1
    47    16    51    1
    48    16    52    1
    49    17    18    2
    50    17    19    1
    51    19    20    1
    52    19    21    1
    53    20    53    1
    54    20    54    1
    55    20    55    1
    56    21    22    1
    57    21    56    1
    58    21    57    1
    59    22    23    1
    60    22    58    1
    61    22    59    1
    62    23    24    1
    63    23    60    1
    64    23    61    1
    65    24    25    1
    66    24    62    1
    67    24    63    1
    68    25    26    1
    69    25    64    1
    70    25    65    1
    71    26    27    1
    72    26    66    1
    73    26    67    1
    74    27    28    1
    75    27    68    1
    76    27    69    1
    77    28    70    1
    78    28    71    1
    79    28    72    1
    80    73    74    1
    81    73   100    1
    82    73   101    1
    83    73   102    1
    84    74    75    1
    85    74   103    1
    86    74   104    1
    87    75    76    1
    88    75   105    1
    89    75   106    1
    90    76    77    1
    91    76   107    1
    92    76   108    1
    93    77    78    1
    94    77   109    1
    95    77   110    1
    96    78    79    1
    97    78   111    1
    98    78   112    1
    99    79    80    1
   100    79   113    1
   101    79   114    1
   102    80    81    1
   103    80   115    1
   104    80   116    1
   105    81    82    1
   106    81    83    1
   107    82   117    1
   108    82   118    1
   109    82   119    1
   110    83    84    2
   111    83    85    1
   112    85    86    1
   113    85   120    1
   114    85   121    1
   115    86    87    1
   116    87    88    1
   117    87   122    1
   118    87   123    1
   119    88    89    2
   120    88    90    1
   121    90    91    1
   122    90    92    1
   123    91   124    1
   124    91   125    1
   125    91   126    1
   126    92    93    1
   127    92   127    1
   128    92   128    1
   129    93    94    1
   130    93   129    1
   131    93   130    1
   132    94    95    1
   133    94   131    1
   134    94   132    1
   135    95    96    1
   136    95   133    1
   137    95   134    1
   138    96    97    1
   139    96   135    1
   140    96   136    1
   141    97    98    1
   142    97   137    1
   143    97   138    1
   144    98    99    1
   145    98   139    1
   146    98   140    1
   147    99   141    1
   148    99   142    1
   149    99   143    1
   150   144   145    1
   151   144   171    1
   152   144   172    1
   153   144   173    1
   154   145   146    1
   155   145   174    1
   156   145   175    1
   157   146   147    1
   158   146   176    1
   159   146   177    1
   160   147   148    1
   161   147   178    1
   162   147   179    1
   163   148   149    1
   164   148   180    1
   165   148   181    1
   166   149   150    1
   167   149   182    1
   168   149   183    1
   169   150   151    1
   170   150   184    1
   171   150   185    1
   172   151   152    1
   173   151   186    1
   174   151   187    1
   175   152   153    1
   176   152   154    1
   177   153   188    1
   178   153   189    1
   179   153   190    1
   180   154   155    2
   181   154   156    1
   182   156   157    1
   183   156   191    1
   184   156   192    1
   185   157   158    1
   186   158   159    1
   187   158   193    1
   188   158   194    1
   189   159   160    2
   190   159   161    1
   191   161   162    1
   192   161   163    1
   193   162   195    1
   194   162   196    1
   195   162   197    1
   196   163   164    1
   197   163   198    1
   198   163   199    1
   199   164   165    1
   200   164   200    1
   201   164   201    1
   202   165   166    1
   203   165   202    1
   204   165   203    1
   205   166   167    1
   206   166   204    1
   207   166   205    1
   208   167   168    1
   209   167   206    1
   210   167   207    1
   211   168   169    1
   212   168   208    1
   213   168   209    1
   214   169   170    1
   215   169   210    1
   216   169   211    1
   217   170   212    1
   218   170   213    1
   219   170   214    1
@<TRIPOS>SUBSTRUCTURE
     1 RES1      214 GROUP             0 ****  ****    0  
