@<TRIPOS>MOLECULE
cn9_YICLED_0_nunpairedes_0_charge_3 Charge: 3 Unpaired_Electrons: 6 XTB_Unpaired_Electrons: 0 XTB_Charge: 3
   382   390     1     0     0
SMALL
NoCharges
****
Generated from Architector

@<TRIPOS>ATOM
     1 Eu1       0.3309   -0.1431   -0.1422   Eu        1 RES1   0.0000
     2 C1        9.1257    2.1469   -6.7892   C.3       1 RES1   0.0000
     3 C2        8.0021    1.2337   -7.2580   C.3       1 RES1   0.0000
     4 C3        6.7525    1.3013   -6.3806   C.3       1 RES1   0.0000
     5 C4        6.0097    2.6349   -6.4387   C.3       1 RES1   0.0000
     6 C5        4.7164    2.6299   -5.6152   C.3       1 RES1   0.0000
     7 C6        4.9818    2.6649   -4.1068   C.3       1 RES1   0.0000
     8 C7        3.6866    2.6605   -3.2944   C.3       1 RES1   0.0000
     9 C8        3.8642    2.9216   -1.7934   C.3       1 RES1   0.0000
    10 N1        4.3201    1.7732   -1.0143   N.am      1 RES1   0.0000
    11 C9        5.7522    1.5624   -0.9240   C.3       1 RES1   0.0000
    12 C10       6.3807    2.1767    0.3249   C.3       1 RES1   0.0000
    13 C11       7.8525    1.7869    0.4610   C.3       1 RES1   0.0000
    14 C12       8.0644    0.2998    0.7392   C.3       1 RES1   0.0000
    15 C13       9.5290   -0.1296    0.6270   C.3       1 RES1   0.0000
    16 C14      10.1506    0.0620   -0.7600   C.3       1 RES1   0.0000
    17 C15       9.4039   -0.6754   -1.8721   C.3       1 RES1   0.0000
    18 C16      10.1880   -0.6837   -3.1777   C.3       1 RES1   0.0000
    19 C17       3.4039    0.9864   -0.4612   C.2       1 RES1   0.0000
    20 O1        2.1881    1.1666   -0.6909   O.2       1 RES1   0.0000
    21 C18       3.7622   -0.0685    0.5802   C.3       1 RES1   0.0000
    22 N2        2.9612   -1.2910    0.4010   N.4       1 RES1   0.0000
    23 C19       2.5993   -1.9068    1.6944   C.3       1 RES1   0.0000
    24 C20       1.5621   -3.0037    1.4233   C.2       1 RES1   0.0000
    25 O2        0.6549   -2.6805    0.6291   O.2       1 RES1   0.0000
    26 N3        1.6177   -4.2145    1.9853   N.am      1 RES1   0.0000
    27 C21       2.4627   -4.5791    3.1224   C.3       1 RES1   0.0000
    28 C22       3.5471   -5.6283    2.7999   C.3       1 RES1   0.0000
    29 C23       3.1235   -7.0538    3.1793   C.3       1 RES1   0.0000
    30 C24       4.0705   -8.1339    2.6582   C.3       1 RES1   0.0000
    31 C25       3.5870   -9.5468    3.0020   C.3       1 RES1   0.0000
    32 C26       2.2993  -10.0034    2.3100   C.3       1 RES1   0.0000
    33 C27       2.4096  -10.2373    0.8009   C.3       1 RES1   0.0000
    34 C28       3.3170  -11.3926    0.4050   C.3       1 RES1   0.0000
    35 C29       0.5541   -5.1715    1.6325   C.3       1 RES1   0.0000
    36 C30       0.6364   -5.7642    0.2147   C.3       1 RES1   0.0000
    37 C31       1.4740   -7.0201   -0.0695   C.3       1 RES1   0.0000
    38 C32       1.7755   -7.2246   -1.5791   C.3       1 RES1   0.0000
    39 C33       1.0888   -8.3506   -2.3732   C.3       1 RES1   0.0000
    40 C34       1.3790   -8.2905   -3.8968   C.3       1 RES1   0.0000
    41 C35       0.2805   -7.6717   -4.7757   C.3       1 RES1   0.0000
    42 C36       0.6331   -7.6215   -6.2677   C.3       1 RES1   0.0000
    43 C37       3.8251   -2.2483   -0.3149   C.3       1 RES1   0.0000
    44 C38       4.3543   -1.7116   -1.6177   C.ar      1 RES1   0.0000
    45 C39       5.6731   -1.9616   -1.9920   C.ar      1 RES1   0.0000
    46 C40       6.1143   -1.6448   -3.2664   C.ar      1 RES1   0.0000
    47 C41       5.2420   -1.0553   -4.1653   C.ar      1 RES1   0.0000
    48 C42       3.9532   -0.7337   -3.7739   C.ar      1 RES1   0.0000
    49 C43       3.5050   -1.0529   -2.5036   C.ar      1 RES1   0.0000
    50 H1       10.0228    1.9646   -7.3729   H         1 RES1   0.0000
    51 H2        9.3589    1.9581   -5.7438   H         1 RES1   0.0000
    52 H3        8.8586    3.1926   -6.9036   H         1 RES1   0.0000
    53 H4        8.3620    0.2034   -7.2455   H         1 RES1   0.0000
    54 H5        7.7371    1.4705   -8.2885   H         1 RES1   0.0000
    55 H6        7.0419    1.0835   -5.3495   H         1 RES1   0.0000
    56 H7        6.0609    0.5236   -6.7177   H         1 RES1   0.0000
    57 H8        5.7581    2.8446   -7.4797   H         1 RES1   0.0000
    58 H9        6.6484    3.4431   -6.0805   H         1 RES1   0.0000
    59 H10       4.1292    1.7422   -5.8649   H         1 RES1   0.0000
    60 H11       4.1214    3.5051   -5.8898   H         1 RES1   0.0000
    61 H12       5.5557    3.5676   -3.8847   H         1 RES1   0.0000
    62 H13       5.5794    1.7962   -3.8298   H         1 RES1   0.0000
    63 H14       3.1800    1.7047   -3.4268   H         1 RES1   0.0000
    64 H15       3.0278    3.4380   -3.6876   H         1 RES1   0.0000
    65 H16       2.8975    3.2100   -1.3749   H         1 RES1   0.0000
    66 H17       4.5707    3.7416   -1.6510   H         1 RES1   0.0000
    67 H18       6.2248    2.0115   -1.7940   H         1 RES1   0.0000
    68 H19       5.9579    0.4940   -0.9686   H         1 RES1   0.0000
    69 H20       5.8278    1.8585    1.2059   H         1 RES1   0.0000
    70 H21       6.3151    3.2629    0.2737   H         1 RES1   0.0000
    71 H22       8.3027    2.3544    1.2779   H         1 RES1   0.0000
    72 H23       8.3652    2.0690   -0.4561   H         1 RES1   0.0000
    73 H24       7.4832   -0.3152    0.0497   H         1 RES1   0.0000
    74 H25       7.7179    0.0830    1.7519   H         1 RES1   0.0000
    75 H26       9.5955   -1.1875    0.8968   H         1 RES1   0.0000
    76 H27      10.1217    0.4278    1.3528   H         1 RES1   0.0000
    77 H28      11.1764   -0.3083   -0.7165   H         1 RES1   0.0000
    78 H29      10.2170    1.1224   -1.0074   H         1 RES1   0.0000
    79 H30       8.4285   -0.2082   -2.0437   H         1 RES1   0.0000
    80 H31       9.2342   -1.7053   -1.5507   H         1 RES1   0.0000
    81 H32      10.3296    0.3279   -3.5471   H         1 RES1   0.0000
    82 H33       9.6680   -1.2611   -3.9381   H         1 RES1   0.0000
    83 H34      11.1652   -1.1319   -3.0294   H         1 RES1   0.0000
    84 H35       3.4825    0.3900    1.5328   H         1 RES1   0.0000
    85 H36       4.8287   -0.3010    0.6011   H         1 RES1   0.0000
    86 H37       2.0928   -1.1636    2.3257   H         1 RES1   0.0000
    87 H38       3.4982   -2.2610    2.2095   H         1 RES1   0.0000
    88 H39       1.8067   -4.9965    3.8948   H         1 RES1   0.0000
    89 H40       2.9103   -3.6757    3.5371   H         1 RES1   0.0000
    90 H41       4.4487   -5.3833    3.3636   H         1 RES1   0.0000
    91 H42       3.8135   -5.5810    1.7406   H         1 RES1   0.0000
    92 H43       2.1326   -7.2686    2.7857   H         1 RES1   0.0000
    93 H44       3.0674   -7.1381    4.2664   H         1 RES1   0.0000
    94 H45       5.0564   -7.9932    3.1023   H         1 RES1   0.0000
    95 H46       4.1910   -8.0278    1.5795   H         1 RES1   0.0000
    96 H47       3.4349   -9.6036    4.0823   H         1 RES1   0.0000
    97 H48       4.3816  -10.2495    2.7564   H         1 RES1   0.0000
    98 H49       1.5014   -9.2766    2.4951   H         1 RES1   0.0000
    99 H50       1.9919  -10.9380    2.7812   H         1 RES1   0.0000
   100 H51       2.7685   -9.3322    0.3134   H         1 RES1   0.0000
   101 H52       1.4031  -10.4383    0.4243   H         1 RES1   0.0000
   102 H53       4.3530  -11.1767    0.6442   H         1 RES1   0.0000
   103 H54       3.2487  -11.5643   -0.6657   H         1 RES1   0.0000
   104 H55       3.0248  -12.3063    0.9111   H         1 RES1   0.0000
   105 H56      -0.3816   -4.6009    1.6726   H         1 RES1   0.0000
   106 H57       0.5166   -5.9466    2.3954   H         1 RES1   0.0000
   107 H58       0.9511   -4.9355   -0.4111   H         1 RES1   0.0000
   108 H59      -0.3808   -6.0185   -0.0537   H         1 RES1   0.0000
   109 H60       0.9525   -7.8870    0.3339   H         1 RES1   0.0000
   110 H61       2.4310   -6.9419    0.4420   H         1 RES1   0.0000
   111 H62       2.8389   -7.4172   -1.6673   H         1 RES1   0.0000
   112 H63       1.5885   -6.2805   -2.0803   H         1 RES1   0.0000
   113 H64       0.0136   -8.3430   -2.2054   H         1 RES1   0.0000
   114 H65       1.4574   -9.3099   -2.0107   H         1 RES1   0.0000
   115 H66       1.5522   -9.3072   -4.2513   H         1 RES1   0.0000
   116 H67       2.3092   -7.7443   -4.0688   H         1 RES1   0.0000
   117 H68       0.0623   -6.6494   -4.4570   H         1 RES1   0.0000
   118 H69      -0.6363   -8.2542   -4.6675   H         1 RES1   0.0000
   119 H70       1.6044   -7.1579   -6.4372   H         1 RES1   0.0000
   120 H71      -0.1154   -7.0298   -6.7957   H         1 RES1   0.0000
   121 H72       0.6438   -8.6140   -6.7142   H         1 RES1   0.0000
   122 H73       3.2555   -3.1584   -0.5286   H         1 RES1   0.0000
   123 H74       4.6746   -2.5327    0.3314   H         1 RES1   0.0000
   124 H75       6.3544   -2.4302   -1.2943   H         1 RES1   0.0000
   125 H76       7.1269   -1.8755   -3.5601   H         1 RES1   0.0000
   126 H77       5.5782   -0.8463   -5.1660   H         1 RES1   0.0000
   127 H78       3.2757   -0.2629   -4.4708   H         1 RES1   0.0000
   128 H79       2.4856   -0.8123   -2.2054   H         1 RES1   0.0000
   129 C44      -2.4057  -11.4731    0.5793   C.3       1 RES1   0.0000
   130 C45      -3.4031  -10.4158    1.0346   C.3       1 RES1   0.0000
   131 C46      -2.7063   -9.1494    1.5373   C.3       1 RES1   0.0000
   132 C47      -2.0129   -8.3561    0.4218   C.3       1 RES1   0.0000
   133 C48      -2.9076   -7.3179   -0.2695   C.3       1 RES1   0.0000
   134 C49      -2.3091   -6.8002   -1.6000   C.3       1 RES1   0.0000
   135 C50      -2.0864   -5.2775   -1.6855   C.3       1 RES1   0.0000
   136 C51      -0.9951   -4.9061   -2.7104   C.3       1 RES1   0.0000
   137 N4       -0.2312   -3.6619   -2.5366   N.am      1 RES1   0.0000
   138 C52       1.2282   -3.6952   -2.7690   C.3       1 RES1   0.0000
   139 C53       1.8784   -4.3044   -4.0112   C.3       1 RES1   0.0000
   140 C54       3.4128   -4.2084   -3.8217   C.3       1 RES1   0.0000
   141 C55       4.1587   -5.4670   -3.3281   C.3       1 RES1   0.0000
   142 C56       4.6706   -5.3844   -1.8862   C.3       1 RES1   0.0000
   143 C57       5.7603   -6.4038   -1.5200   C.3       1 RES1   0.0000
   144 C58       5.3831   -7.8801   -1.3439   C.3       1 RES1   0.0000
   145 C59       5.2714   -8.6975   -2.6274   C.3       1 RES1   0.0000
   146 C60      -0.6593   -2.5239   -1.9983   C.2       1 RES1   0.0000
   147 O3        0.1043   -1.5426   -1.8483   O.2       1 RES1   0.0000
   148 C61      -2.0803   -2.4036   -1.4752   C.3       1 RES1   0.0000
   149 N5       -2.3987   -1.0133   -1.1444   N.4       1 RES1   0.0000
   150 C62      -3.3667   -1.0086   -0.0481   C.3       1 RES1   0.0000
   151 C63      -2.5750   -1.1842    1.2467   C.2       1 RES1   0.0000
   152 O4       -1.4090   -0.7224    1.2944   O.2       1 RES1   0.0000
   153 N6       -3.1118   -1.8129    2.2814   N.am      1 RES1   0.0000
   154 C64      -4.4658   -2.3497    2.3204   C.3       1 RES1   0.0000
   155 C65      -4.5578   -3.8003    1.8179   C.3       1 RES1   0.0000
   156 C66      -5.9861   -4.1755    1.3803   C.3       1 RES1   0.0000
   157 C67      -6.0114   -5.2161    0.2534   C.3       1 RES1   0.0000
   158 C68      -5.8213   -4.6043   -1.1366   C.3       1 RES1   0.0000
   159 C69      -5.7689   -5.6843   -2.2203   C.3       1 RES1   0.0000
   160 C70      -5.4626   -5.1492   -3.6217   C.3       1 RES1   0.0000
   161 C71      -5.1253   -6.2765   -4.5907   C.3       1 RES1   0.0000
   162 C72      -2.3633   -1.7950    3.5318   C.3       1 RES1   0.0000
   163 C73      -2.4433   -0.4060    4.1744   C.3       1 RES1   0.0000
   164 C74      -2.0992   -0.4257    5.6637   C.3       1 RES1   0.0000
   165 C75      -1.8532    0.9751    6.2308   C.3       1 RES1   0.0000
   166 C76      -3.0792    1.8972    6.2175   C.3       1 RES1   0.0000
   167 C77      -3.0572    2.9105    5.0716   C.3       1 RES1   0.0000
   168 C78      -4.4140    3.5696    4.8297   C.3       1 RES1   0.0000
   169 C79      -5.4296    2.6116    4.2181   C.3       1 RES1   0.0000
   170 C80      -2.8164   -0.1998   -2.3077   C.3       1 RES1   0.0000
   171 C81      -4.2617   -0.2197   -2.7565   C.ar      1 RES1   0.0000
   172 C82      -4.9981    0.9628   -2.7185   C.ar      1 RES1   0.0000
   173 C83      -6.2990    1.0037   -3.1875   C.ar      1 RES1   0.0000
   174 C84      -6.8963   -0.1439   -3.6818   C.ar      1 RES1   0.0000
   175 C85      -6.1678   -1.3205   -3.7454   C.ar      1 RES1   0.0000
   176 C86      -4.8566   -1.3512   -3.3037   C.ar      1 RES1   0.0000
   177 H80      -2.9039  -12.4203    0.4025   H         1 RES1   0.0000
   178 H81      -1.6511  -11.6177    1.3469   H         1 RES1   0.0000
   179 H82      -1.9046  -11.1839   -0.3400   H         1 RES1   0.0000
   180 H83      -4.0046  -10.8269    1.8456   H         1 RES1   0.0000
   181 H84      -4.0862  -10.1704    0.2210   H         1 RES1   0.0000
   182 H85      -1.9466   -9.4509    2.2629   H         1 RES1   0.0000
   183 H86      -3.4250   -8.5153    2.0636   H         1 RES1   0.0000
   184 H87      -1.6519   -9.0681   -0.3192   H         1 RES1   0.0000
   185 H88      -1.1463   -7.8477    0.8497   H         1 RES1   0.0000
   186 H89      -3.0598   -6.4877    0.4239   H         1 RES1   0.0000
   187 H90      -3.8854   -7.7644   -0.4575   H         1 RES1   0.0000
   188 H91      -2.9369   -7.1178   -2.4314   H         1 RES1   0.0000
   189 H92      -1.3543   -7.2954   -1.7442   H         1 RES1   0.0000
   190 H93      -1.7871   -4.9192   -0.7026   H         1 RES1   0.0000
   191 H94      -3.0289   -4.8049   -1.9466   H         1 RES1   0.0000
   192 H95      -1.4157   -4.9212   -3.7203   H         1 RES1   0.0000
   193 H96      -0.2421   -5.6892   -2.6694   H         1 RES1   0.0000
   194 H97       1.6870   -4.1727   -1.9002   H         1 RES1   0.0000
   195 H98       1.5245   -2.6479   -2.7589   H         1 RES1   0.0000
   196 H99       1.6011   -3.7289   -4.8945   H         1 RES1   0.0000
   197 H100      1.6002   -5.3385   -4.1918   H         1 RES1   0.0000
   198 H101      3.6155   -3.4029   -3.1223   H         1 RES1   0.0000
   199 H102      3.8506   -3.9071   -4.7728   H         1 RES1   0.0000
   200 H103      5.0314   -5.6096   -3.9617   H         1 RES1   0.0000
   201 H104      3.5309   -6.3409   -3.4672   H         1 RES1   0.0000
   202 H105      3.8433   -5.4555   -1.1754   H         1 RES1   0.0000
   203 H106      5.1373   -4.4037   -1.7624   H         1 RES1   0.0000
   204 H107      6.1816   -6.0713   -0.5669   H         1 RES1   0.0000
   205 H108      6.5567   -6.3406   -2.2627   H         1 RES1   0.0000
   206 H109      4.4606   -7.9725   -0.7674   H         1 RES1   0.0000
   207 H110      6.1730   -8.3343   -0.7422   H         1 RES1   0.0000
   208 H111      4.3855   -8.4534   -3.2071   H         1 RES1   0.0000
   209 H112      5.2300   -9.7580   -2.3857   H         1 RES1   0.0000
   210 H113      6.1466   -8.5384   -3.2514   H         1 RES1   0.0000
   211 H114     -2.0894   -2.9670   -0.5343   H         1 RES1   0.0000
   212 H115     -2.8057   -2.8408   -2.1701   H         1 RES1   0.0000
   213 H116     -4.1302   -1.7861   -0.1798   H         1 RES1   0.0000
   214 H117     -3.8741   -0.0361   -0.0262   H         1 RES1   0.0000
   215 H118     -5.1327   -1.7090    1.7433   H         1 RES1   0.0000
   216 H119     -4.8071   -2.3104    3.3544   H         1 RES1   0.0000
   217 H120     -4.2313   -4.4786    2.6082   H         1 RES1   0.0000
   218 H121     -3.8689   -3.9465    0.9838   H         1 RES1   0.0000
   219 H122     -6.5278   -3.2846    1.0503   H         1 RES1   0.0000
   220 H123     -6.5232   -4.5792    2.2375   H         1 RES1   0.0000
   221 H124     -6.9687   -5.7374    0.2743   H         1 RES1   0.0000
   222 H125     -5.2387   -5.9634    0.4369   H         1 RES1   0.0000
   223 H126     -4.8980   -4.0139   -1.1572   H         1 RES1   0.0000
   224 H127     -6.6440   -3.9165   -1.3416   H         1 RES1   0.0000
   225 H128     -6.7255   -6.2084   -2.2481   H         1 RES1   0.0000
   226 H129     -5.0081   -6.4169   -1.9480   H         1 RES1   0.0000
   227 H130     -4.6153   -4.4559   -3.5833   H         1 RES1   0.0000
   228 H131     -6.3247   -4.5939   -3.9955   H         1 RES1   0.0000
   229 H132     -4.2465   -6.8215   -4.2517   H         1 RES1   0.0000
   230 H133     -4.9192   -5.8854   -5.5835   H         1 RES1   0.0000
   231 H134     -5.9523   -6.9759   -4.6626   H         1 RES1   0.0000
   232 H135     -1.3217   -2.0472    3.3203   H         1 RES1   0.0000
   233 H136     -2.7854   -2.5484    4.1916   H         1 RES1   0.0000
   234 H137     -3.4572   -0.0236    4.0473   H         1 RES1   0.0000
   235 H138     -1.7567    0.2593    3.6443   H         1 RES1   0.0000
   236 H139     -1.1968   -1.0242    5.8159   H         1 RES1   0.0000
   237 H140     -2.9110   -0.8976    6.2209   H         1 RES1   0.0000
   238 H141     -1.0477    1.4422    5.6611   H         1 RES1   0.0000
   239 H142     -1.5042    0.8617    7.2567   H         1 RES1   0.0000
   240 H143     -3.1169    2.4561    7.1518   H         1 RES1   0.0000
   241 H144     -3.9841    1.2938    6.1728   H         1 RES1   0.0000
   242 H145     -2.7363    2.4329    4.1438   H         1 RES1   0.0000
   243 H146     -2.3245    3.6849    5.3098   H         1 RES1   0.0000
   244 H147     -4.2839    4.4166    4.1520   H         1 RES1   0.0000
   245 H148     -4.7960    3.9565    5.7736   H         1 RES1   0.0000
   246 H149     -5.0242    2.1542    3.3158   H         1 RES1   0.0000
   247 H150     -6.3405    3.1399    3.9524   H         1 RES1   0.0000
   248 H151     -5.7013    1.8228    4.9135   H         1 RES1   0.0000
   249 H152     -2.1924   -0.5258   -3.1429   H         1 RES1   0.0000
   250 H153     -2.5626    0.8361   -2.0639   H         1 RES1   0.0000
   251 H154     -4.5373    1.8699   -2.3455   H         1 RES1   0.0000
   252 H155     -6.8364    1.9404   -3.1962   H         1 RES1   0.0000
   253 H156     -7.9163   -0.1097   -4.0319   H         1 RES1   0.0000
   254 H157     -6.6029   -2.2092   -4.1769   H         1 RES1   0.0000
   255 H158     -4.2906   -2.2645   -3.4193   H         1 RES1   0.0000
   256 C87       6.9754    8.9819   -0.2003   C.3       1 RES1   0.0000
   257 C88       5.9516    8.5794   -1.2526   C.3       1 RES1   0.0000
   258 C89       5.9735    7.0861   -1.5790   C.3       1 RES1   0.0000
   259 C90       5.6545    6.1690   -0.3970   C.3       1 RES1   0.0000
   260 C91       4.2161    6.3378    0.0843   C.3       1 RES1   0.0000
   261 C92       3.8051    5.3647    1.1910   C.3       1 RES1   0.0000
   262 C93       2.3861    5.6943    1.6529   C.3       1 RES1   0.0000
   263 C94       1.8242    4.7864    2.7483   C.3       1 RES1   0.0000
   264 N7        1.9529    3.3582    2.4894   N.am      1 RES1   0.0000
   265 C95       3.1325    2.7369    3.0736   C.3       1 RES1   0.0000
   266 C96       2.8656    1.8885    4.3134   C.3       1 RES1   0.0000
   267 C97       4.0861    1.0192    4.6120   C.3       1 RES1   0.0000
   268 C98       5.3284    1.8247    5.0409   C.3       1 RES1   0.0000
   269 C99       6.4860    1.6913    4.0511   C.3       1 RES1   0.0000
   270 C100      7.8204    2.2494    4.5616   C.3       1 RES1   0.0000
   271 C101      8.1869    3.6540    4.0777   C.3       1 RES1   0.0000
   272 C102      7.3332    4.7771    4.6544   C.3       1 RES1   0.0000
   273 C103      1.1163    2.6284    1.7465   C.2       1 RES1   0.0000
   274 O5        1.1341    1.3828    1.7233   O.2       1 RES1   0.0000
   275 C104      0.2167    3.3903    0.7857   C.3       1 RES1   0.0000
   276 N8       -0.8477    2.5552    0.2271   N.4       1 RES1   0.0000
   277 C105     -1.2792    3.1185   -1.0635   C.3       1 RES1   0.0000
   278 C106     -0.5893    2.3481   -2.1845   C.2       1 RES1   0.0000
   279 O6       -0.1896    1.1914   -1.9378   O.2       1 RES1   0.0000
   280 N9       -0.4448    2.8788   -3.3895   N.am      1 RES1   0.0000
   281 C107     -0.8793    4.2111   -3.7682   C.3       1 RES1   0.0000
   282 C108      0.2371    5.2506   -3.5883   C.3       1 RES1   0.0000
   283 C109     -0.2919    6.6971   -3.5211   C.3       1 RES1   0.0000
   284 C110      0.2567    7.4924   -2.3306   C.3       1 RES1   0.0000
   285 C111     -0.3924    7.1289   -0.9939   C.3       1 RES1   0.0000
   286 C112      0.0249    8.1013    0.1107   C.3       1 RES1   0.0000
   287 C113     -0.6027    7.7745    1.4664   C.3       1 RES1   0.0000
   288 C114     -0.0499    8.6700    2.5683   C.3       1 RES1   0.0000
   289 C115      0.3152    2.1116   -4.3678   C.3       1 RES1   0.0000
   290 C116     -0.4425    0.9464   -5.0069   C.3       1 RES1   0.0000
   291 C117      0.3521    0.4362   -6.2136   C.3       1 RES1   0.0000
   292 C118     -0.0297   -0.9736   -6.6663   C.3       1 RES1   0.0000
   293 C119     -1.4044   -1.0625   -7.3347   C.3       1 RES1   0.0000
   294 C120     -2.5023   -1.5707   -6.3989   C.3       1 RES1   0.0000
   295 C121     -3.9004   -1.2021   -6.8925   C.3       1 RES1   0.0000
   296 C122     -4.2075    0.2784   -6.6919   C.3       1 RES1   0.0000
   297 C123     -1.9843    2.3845    1.1751   C.3       1 RES1   0.0000
   298 C124     -3.1062    3.3859    1.0416   C.ar      1 RES1   0.0000
   299 C125     -4.3115    2.9986    0.4615   C.ar      1 RES1   0.0000
   300 C126     -5.3441    3.9041    0.2911   C.ar      1 RES1   0.0000
   301 C127     -5.1794    5.2217    0.6882   C.ar      1 RES1   0.0000
   302 C128     -3.9908    5.6171    1.2811   C.ar      1 RES1   0.0000
   303 C129     -2.9676    4.7025    1.4649   C.ar      1 RES1   0.0000
   304 H159      7.0007   10.0624   -0.1055   H         1 RES1   0.0000
   305 H160      7.9657    8.6415   -0.4881   H         1 RES1   0.0000
   306 H161      6.7342    8.5662    0.7743   H         1 RES1   0.0000
   307 H162      6.1611    9.1197   -2.1772   H         1 RES1   0.0000
   308 H163      4.9526    8.8738   -0.9268   H         1 RES1   0.0000
   309 H164      6.9620    6.8253   -1.9602   H         1 RES1   0.0000
   310 H165      5.2547    6.8915   -2.3812   H         1 RES1   0.0000
   311 H166      6.3510    6.3568    0.4211   H         1 RES1   0.0000
   312 H167      5.8087    5.1365   -0.7210   H         1 RES1   0.0000
   313 H168      3.5340    6.2100   -0.7617   H         1 RES1   0.0000
   314 H169      4.0936    7.3539    0.4583   H         1 RES1   0.0000
   315 H170      4.5020    5.4638    2.0238   H         1 RES1   0.0000
   316 H171      3.8565    4.3334    0.8273   H         1 RES1   0.0000
   317 H172      1.7318    5.6893    0.7823   H         1 RES1   0.0000
   318 H173      2.3899    6.7070    2.0569   H         1 RES1   0.0000
   319 H174      0.7821    5.0461    2.9434   H         1 RES1   0.0000
   320 H175      2.3583    4.9926    3.6753   H         1 RES1   0.0000
   321 H176      3.8434    3.5265    3.3122   H         1 RES1   0.0000
   322 H177      3.5969    2.1233    2.3005   H         1 RES1   0.0000
   323 H178      1.9926    1.2536    4.1450   H         1 RES1   0.0000
   324 H179      2.6662    2.5345    5.1680   H         1 RES1   0.0000
   325 H180      4.3256    0.4416    3.7141   H         1 RES1   0.0000
   326 H181      3.8254    0.3005    5.3893   H         1 RES1   0.0000
   327 H182      5.6722    1.4575    6.0062   H         1 RES1   0.0000
   328 H183      5.0709    2.8757    5.1745   H         1 RES1   0.0000
   329 H184      6.2300    2.1869    3.1155   H         1 RES1   0.0000
   330 H185      6.6212    0.6269    3.8414   H         1 RES1   0.0000
   331 H186      8.6150    1.5785    4.2323   H         1 RES1   0.0000
   332 H187      7.8197    2.2443    5.6505   H         1 RES1   0.0000
   333 H188      8.1394    3.6932    2.9863   H         1 RES1   0.0000
   334 H189      9.2241    3.8379    4.3636   H         1 RES1   0.0000
   335 H190      6.3064    4.7261    4.2949   H         1 RES1   0.0000
   336 H191      7.7446    5.7429    4.3650   H         1 RES1   0.0000
   337 H192      7.3254    4.7266    5.7402   H         1 RES1   0.0000
   338 H193      0.9048    3.6578   -0.0277   H         1 RES1   0.0000
   339 H194     -0.1729    4.3158    1.2284   H         1 RES1   0.0000
   340 H195     -1.0701    4.1942   -1.1101   H         1 RES1   0.0000
   341 H196     -2.3616    2.9802   -1.1700   H         1 RES1   0.0000
   342 H197     -1.7543    4.4925   -3.1837   H         1 RES1   0.0000
   343 H198     -1.1814    4.1894   -4.8157   H         1 RES1   0.0000
   344 H199      0.9462    5.1606   -4.4119   H         1 RES1   0.0000
   345 H200      0.7935    5.0217   -2.6775   H         1 RES1   0.0000
   346 H201     -1.3839    6.6993   -3.4794   H         1 RES1   0.0000
   347 H202     -0.0119    7.2265   -4.4305   H         1 RES1   0.0000
   348 H203      0.0875    8.5548   -2.5159   H         1 RES1   0.0000
   349 H204      1.3382    7.3494   -2.2652   H         1 RES1   0.0000
   350 H205     -0.1149    6.1074   -0.7040   H         1 RES1   0.0000
   351 H206     -1.4791    7.1537   -1.1025   H         1 RES1   0.0000
   352 H207     -0.2713    9.1119   -0.1765   H         1 RES1   0.0000
   353 H208      1.1145    8.0905    0.2025   H         1 RES1   0.0000
   354 H209     -0.4049    6.7265    1.7170   H         1 RES1   0.0000
   355 H210     -1.6862    7.8979    1.4052   H         1 RES1   0.0000
   356 H211      1.0319    8.5726    2.6332   H         1 RES1   0.0000
   357 H212     -0.4776    8.4095    3.5329   H         1 RES1   0.0000
   358 H213     -0.2833    9.7099    2.3603   H         1 RES1   0.0000
   359 H214      1.1764    1.6918   -3.8461   H         1 RES1   0.0000
   360 H215      0.6599    2.7997   -5.1361   H         1 RES1   0.0000
   361 H216     -1.4433    1.2591   -5.3065   H         1 RES1   0.0000
   362 H217     -0.5269    0.1513   -4.2628   H         1 RES1   0.0000
   363 H218      1.4133    0.4396   -5.9468   H         1 RES1   0.0000
   364 H219      0.2251    1.1240   -7.0510   H         1 RES1   0.0000
   365 H220     -0.0069   -1.6383   -5.8006   H         1 RES1   0.0000
   366 H221      0.7317   -1.3117   -7.3699   H         1 RES1   0.0000
   367 H222     -1.3502   -1.7428   -8.1837   H         1 RES1   0.0000
   368 H223     -1.6684   -0.0811   -7.7254   H         1 RES1   0.0000
   369 H224     -2.3719   -1.1639   -5.3940   H         1 RES1   0.0000
   370 H225     -2.4222   -2.6572   -6.3203   H         1 RES1   0.0000
   371 H226     -4.6466   -1.7893   -6.3527   H         1 RES1   0.0000
   372 H227     -3.9824   -1.4564   -7.9492   H         1 RES1   0.0000
   373 H228     -4.0634    0.5558   -5.6476   H         1 RES1   0.0000
   374 H229     -5.2360    0.4983   -6.9644   H         1 RES1   0.0000
   375 H230     -3.5655    0.9050   -7.3057   H         1 RES1   0.0000
   376 H231     -1.5718    2.4239    2.1862   H         1 RES1   0.0000
   377 H232     -2.3869    1.3832    0.9983   H         1 RES1   0.0000
   378 H233     -4.4509    1.9708    0.1500   H         1 RES1   0.0000
   379 H234     -6.2801    3.5763   -0.1378   H         1 RES1   0.0000
   380 H235     -5.9774    5.9323    0.5321   H         1 RES1   0.0000
   381 H236     -3.8627    6.6334    1.6248   H         1 RES1   0.0000
   382 H237     -2.0606    5.0232    1.9551   H         1 RES1   0.0000
@<TRIPOS>BOND
     1     1    20    1
     2     1    22    1
     3     1    25    1
     4     1   147    1
     5     1   149    1
     6     1   152    1
     7     1   274    1
     8     1   276    1
     9     1   279    1
    10     2     3    1
    11     2    50    1
    12     2    51    1
    13     2    52    1
    14     3     4    1
    15     3    53    1
    16     3    54    1
    17     4     5    1
    18     4    55    1
    19     4    56    1
    20     5     6    1
    21     5    57    1
    22     5    58    1
    23     6     7    1
    24     6    59    1
    25     6    60    1
    26     7     8    1
    27     7    61    1
    28     7    62    1
    29     8     9    1
    30     8    63    1
    31     8    64    1
    32     9    10    1
    33     9    65    1
    34     9    66    1
    35    10    11    1
    36    10    19    1
    37    11    12    1
    38    11    67    1
    39    11    68    1
    40    12    13    1
    41    12    69    1
    42    12    70    1
    43    13    14    1
    44    13    71    1
    45    13    72    1
    46    14    15    1
    47    14    73    1
    48    14    74    1
    49    15    16    1
    50    15    75    1
    51    15    76    1
    52    16    17    1
    53    16    77    1
    54    16    78    1
    55    17    18    1
    56    17    79    1
    57    17    80    1
    58    18    81    1
    59    18    82    1
    60    18    83    1
    61    19    20    2
    62    19    21    1
    63    21    22    1
    64    21    84    1
    65    21    85    1
    66    22    23    1
    67    22    43    1
    68    23    24    1
    69    23    86    1
    70    23    87    1
    71    24    25    2
    72    24    26    1
    73    26    27    1
    74    26    35    1
    75    27    28    1
    76    27    88    1
    77    27    89    1
    78    28    29    1
    79    28    90    1
    80    28    91    1
    81    29    30    1
    82    29    92    1
    83    29    93    1
    84    30    31    1
    85    30    94    1
    86    30    95    1
    87    31    32    1
    88    31    96    1
    89    31    97    1
    90    32    33    1
    91    32    98    1
    92    32    99    1
    93    33    34    1
    94    33   100    1
    95    33   101    1
    96    34   102    1
    97    34   103    1
    98    34   104    1
    99    35    36    1
   100    35   105    1
   101    35   106    1
   102    36    37    1
   103    36   107    1
   104    36   108    1
   105    37    38    1
   106    37   109    1
   107    37   110    1
   108    38    39    1
   109    38   111    1
   110    38   112    1
   111    39    40    1
   112    39   113    1
   113    39   114    1
   114    40    41    1
   115    40   115    1
   116    40   116    1
   117    41    42    1
   118    41   117    1
   119    41   118    1
   120    42   119    1
   121    42   120    1
   122    42   121    1
   123    43    44    1
   124    43   122    1
   125    43   123    1
   126    44    45    1
   127    44    49    2
   128    45    46    2
   129    45   124    1
   130    46    47    1
   131    46   125    1
   132    47    48    2
   133    47   126    1
   134    48    49    1
   135    48   127    1
   136    49   128    1
   137   129   130    1
   138   129   177    1
   139   129   178    1
   140   129   179    1
   141   130   131    1
   142   130   180    1
   143   130   181    1
   144   131   132    1
   145   131   182    1
   146   131   183    1
   147   132   133    1
   148   132   184    1
   149   132   185    1
   150   133   134    1
   151   133   186    1
   152   133   187    1
   153   134   135    1
   154   134   188    1
   155   134   189    1
   156   135   136    1
   157   135   190    1
   158   135   191    1
   159   136   137    1
   160   136   192    1
   161   136   193    1
   162   137   138    1
   163   137   146    1
   164   138   139    1
   165   138   194    1
   166   138   195    1
   167   139   140    1
   168   139   196    1
   169   139   197    1
   170   140   141    1
   171   140   198    1
   172   140   199    1
   173   141   142    1
   174   141   200    1
   175   141   201    1
   176   142   143    1
   177   142   202    1
   178   142   203    1
   179   143   144    1
   180   143   204    1
   181   143   205    1
   182   144   145    1
   183   144   206    1
   184   144   207    1
   185   145   208    1
   186   145   209    1
   187   145   210    1
   188   146   147    2
   189   146   148    1
   190   148   149    1
   191   148   211    1
   192   148   212    1
   193   149   150    1
   194   149   170    1
   195   150   151    1
   196   150   213    1
   197   150   214    1
   198   151   152    2
   199   151   153    1
   200   153   154    1
   201   153   162    1
   202   154   155    1
   203   154   215    1
   204   154   216    1
   205   155   156    1
   206   155   217    1
   207   155   218    1
   208   156   157    1
   209   156   219    1
   210   156   220    1
   211   157   158    1
   212   157   221    1
   213   157   222    1
   214   158   159    1
   215   158   223    1
   216   158   224    1
   217   159   160    1
   218   159   225    1
   219   159   226    1
   220   160   161    1
   221   160   227    1
   222   160   228    1
   223   161   229    1
   224   161   230    1
   225   161   231    1
   226   162   163    1
   227   162   232    1
   228   162   233    1
   229   163   164    1
   230   163   234    1
   231   163   235    1
   232   164   165    1
   233   164   236    1
   234   164   237    1
   235   165   166    1
   236   165   238    1
   237   165   239    1
   238   166   167    1
   239   166   240    1
   240   166   241    1
   241   167   168    1
   242   167   242    1
   243   167   243    1
   244   168   169    1
   245   168   244    1
   246   168   245    1
   247   169   246    1
   248   169   247    1
   249   169   248    1
   250   170   171    1
   251   170   249    1
   252   170   250    1
   253   171   172    1
   254   171   176    2
   255   172   173    2
   256   172   251    1
   257   173   174    1
   258   173   252    1
   259   174   175    2
   260   174   253    1
   261   175   176    1
   262   175   254    1
   263   176   255    1
   264   256   257    1
   265   256   304    1
   266   256   305    1
   267   256   306    1
   268   257   258    1
   269   257   307    1
   270   257   308    1
   271   258   259    1
   272   258   309    1
   273   258   310    1
   274   259   260    1
   275   259   311    1
   276   259   312    1
   277   260   261    1
   278   260   313    1
   279   260   314    1
   280   261   262    1
   281   261   315    1
   282   261   316    1
   283   262   263    1
   284   262   317    1
   285   262   318    1
   286   263   264    1
   287   263   319    1
   288   263   320    1
   289   264   265    1
   290   264   273    1
   291   265   266    1
   292   265   321    1
   293   265   322    1
   294   266   267    1
   295   266   323    1
   296   266   324    1
   297   267   268    1
   298   267   325    1
   299   267   326    1
   300   268   269    1
   301   268   327    1
   302   268   328    1
   303   269   270    1
   304   269   329    1
   305   269   330    1
   306   270   271    1
   307   270   331    1
   308   270   332    1
   309   271   272    1
   310   271   333    1
   311   271   334    1
   312   272   335    1
   313   272   336    1
   314   272   337    1
   315   273   274    2
   316   273   275    1
   317   275   276    1
   318   275   338    1
   319   275   339    1
   320   276   277    1
   321   276   297    1
   322   277   278    1
   323   277   340    1
   324   277   341    1
   325   278   279    2
   326   278   280    1
   327   280   281    1
   328   280   289    1
   329   281   282    1
   330   281   342    1
   331   281   343    1
   332   282   283    1
   333   282   344    1
   334   282   345    1
   335   283   284    1
   336   283   346    1
   337   283   347    1
   338   284   285    1
   339   284   348    1
   340   284   349    1
   341   285   286    1
   342   285   350    1
   343   285   351    1
   344   286   287    1
   345   286   352    1
   346   286   353    1
   347   287   288    1
   348   287   354    1
   349   287   355    1
   350   288   356    1
   351   288   357    1
   352   288   358    1
   353   289   290    1
   354   289   359    1
   355   289   360    1
   356   290   291    1
   357   290   361    1
   358   290   362    1
   359   291   292    1
   360   291   363    1
   361   291   364    1
   362   292   293    1
   363   292   365    1
   364   292   366    1
   365   293   294    1
   366   293   367    1
   367   293   368    1
   368   294   295    1
   369   294   369    1
   370   294   370    1
   371   295   296    1
   372   295   371    1
   373   295   372    1
   374   296   373    1
   375   296   374    1
   376   296   375    1
   377   297   298    1
   378   297   376    1
   379   297   377    1
   380   298   299    1
   381   298   303    2
   382   299   300    2
   383   299   378    1
   384   300   301    1
   385   300   379    1
   386   301   302    2
   387   301   380    1
   388   302   303    1
   389   302   381    1
   390   303   382    1
@<TRIPOS>SUBSTRUCTURE
     1 RES1      382 GROUP             0 ****  ****    0  
