@<TRIPOS>MOLECULE
am_c3_9H2O_c0_0_nunpairedes_0_charge_3 Charge: 3 Unpaired_Electrons: 6 XTB_Unpaired_Electrons: 0 XTB_Charge: 3
   240   243     1     0     0
SMALL
NoCharges
****
Generated from Architector

@<TRIPOS>ATOM
     1 Eu1       0.0615   -0.3956    0.0549   Eu        1 RES1   0.0000
     2 C1       -4.7871    5.5700    2.6331   C.3       1 RES1   0.0000
     3 C2       -4.2607    4.4452    1.7523   C.3       1 RES1   0.0000
     4 C3       -4.4290    3.0500    2.3690   C.3       1 RES1   0.0000
     5 C4       -3.5578    2.0639    1.5938   C.3       1 RES1   0.0000
     6 P1       -3.7159    0.2455    1.8883   P.3       1 RES1   0.0000
     7 S1       -2.9925   -0.7015    0.3243   S.3       1 RES1   0.0000
     8 C5       -5.5213    0.0615    2.1075   C.3       1 RES1   0.0000
     9 C6       -6.0811   -1.3485    1.9930   C.3       1 RES1   0.0000
    10 C7       -7.5337   -1.3121    1.5241   C.3       1 RES1   0.0000
    11 C8       -8.4333   -0.4825    2.4331   C.3       1 RES1   0.0000
    12 C9       -2.9529   -0.2375    3.5222   C.3       1 RES1   0.0000
    13 P2       -1.4683   -1.4037    3.6658   P.3       1 RES1   0.0000
    14 S2       -0.5931   -2.1930    2.0684   S.3       1 RES1   0.0000
    15 C10      -0.2198   -0.5202    4.6887   C.3       1 RES1   0.0000
    16 C11      -0.7487    0.2258    5.9088   C.3       1 RES1   0.0000
    17 C12       0.4056    0.7938    6.7384   C.3       1 RES1   0.0000
    18 C13      -0.0782    1.5227    7.9879   C.3       1 RES1   0.0000
    19 C14      -1.9366   -2.7853    4.7736   C.3       1 RES1   0.0000
    20 C15      -2.6349   -3.9888    4.1500   C.3       1 RES1   0.0000
    21 C16      -4.1129   -3.7789    3.8470   C.3       1 RES1   0.0000
    22 C17      -4.9237   -3.3848    5.0769   C.3       1 RES1   0.0000
    23 H1       -4.5839    6.5316    2.1684   H         1 RES1   0.0000
    24 H2       -4.3068    5.5550    3.6084   H         1 RES1   0.0000
    25 H3       -5.8589    5.4808    2.7691   H         1 RES1   0.0000
    26 H4       -3.2006    4.6234    1.5448   H         1 RES1   0.0000
    27 H5       -4.7802    4.4626    0.7935   H         1 RES1   0.0000
    28 H6       -5.4815    2.7750    2.3135   H         1 RES1   0.0000
    29 H7       -4.1594    3.0740    3.4269   H         1 RES1   0.0000
    30 H8       -2.4992    2.3090    1.7033   H         1 RES1   0.0000
    31 H9       -3.7886    2.1362    0.5250   H         1 RES1   0.0000
    32 H10      -5.9436    0.6747    1.3073   H         1 RES1   0.0000
    33 H11      -5.7822    0.5204    3.0618   H         1 RES1   0.0000
    34 H12      -6.0331   -1.8531    2.9566   H         1 RES1   0.0000
    35 H13      -5.4851   -1.9172    1.2739   H         1 RES1   0.0000
    36 H14      -7.9088   -2.3345    1.4896   H         1 RES1   0.0000
    37 H15      -7.5739   -0.9109    0.5098   H         1 RES1   0.0000
    38 H16      -8.3046   -0.7679    3.4742   H         1 RES1   0.0000
    39 H17      -9.4738   -0.6410    2.1694   H         1 RES1   0.0000
    40 H18      -8.2254    0.5810    2.3388   H         1 RES1   0.0000
    41 H19      -3.7477   -0.7007    4.1063   H         1 RES1   0.0000
    42 H20      -2.6639    0.6845    4.0249   H         1 RES1   0.0000
    43 H21       0.3659    0.1390    4.0441   H         1 RES1   0.0000
    44 H22       0.4487   -1.3273    5.0060   H         1 RES1   0.0000
    45 H23      -1.3376   -0.4456    6.5352   H         1 RES1   0.0000
    46 H24      -1.3949    1.0531    5.6057   H         1 RES1   0.0000
    47 H25       0.9907    1.4767    6.1140   H         1 RES1   0.0000
    48 H26       1.0629   -0.0242    7.0387   H         1 RES1   0.0000
    49 H27      -0.7471    2.3444    7.7329   H         1 RES1   0.0000
    50 H28       0.7672    1.9268    8.5400   H         1 RES1   0.0000
    51 H29      -0.6105    0.8413    8.6464   H         1 RES1   0.0000
    52 H30      -2.4979   -2.3885    5.6203   H         1 RES1   0.0000
    53 H31      -0.9608   -3.1177    5.1390   H         1 RES1   0.0000
    54 H32      -2.5302   -4.8230    4.8461   H         1 RES1   0.0000
    55 H33      -2.1191   -4.2608    3.2281   H         1 RES1   0.0000
    56 H34      -4.5052   -4.7192    3.4554   H         1 RES1   0.0000
    57 H35      -4.2122   -3.0333    3.0523   H         1 RES1   0.0000
    58 H36      -4.6551   -4.0129    5.9211   H         1 RES1   0.0000
    59 H37      -5.9862   -3.5146    4.8944   H         1 RES1   0.0000
    60 H38      -4.7563   -2.3483    5.3669   H         1 RES1   0.0000
    61 C18       3.9103    3.4563    5.7784   C.3       1 RES1   0.0000
    62 C19       4.0381    3.8166    4.3025   C.3       1 RES1   0.0000
    63 C20       2.8530    3.3282    3.4580   C.3       1 RES1   0.0000
    64 C21       1.5867    4.0577    3.8741   C.3       1 RES1   0.0000
    65 P3        0.0361    3.6808    2.9639   P.3       1 RES1   0.0000
    66 S3       -0.2639    1.8280    2.3396   S.3       1 RES1   0.0000
    67 C22      -1.2309    4.0762    4.2252   C.3       1 RES1   0.0000
    68 C23      -1.1341    5.4658    4.8575   C.3       1 RES1   0.0000
    69 C24      -1.6538    5.4676    6.2969   C.3       1 RES1   0.0000
    70 C25      -3.1436    5.1820    6.4326   C.3       1 RES1   0.0000
    71 C26      -0.1965    4.9285    1.6184   C.3       1 RES1   0.0000
    72 P4        0.8898    4.7876    0.1141   P.3       1 RES1   0.0000
    73 S4        1.4853    2.9717   -0.3562   S.3       1 RES1   0.0000
    74 C27       2.3285    5.9070    0.3739   C.3       1 RES1   0.0000
    75 C28       2.0665    7.1307    1.2496   C.3       1 RES1   0.0000
    76 C29       3.2318    8.1202    1.2288   C.3       1 RES1   0.0000
    77 C30       2.8686    9.3789    2.0081   C.3       1 RES1   0.0000
    78 C31      -0.2432    5.3567   -1.2258   C.3       1 RES1   0.0000
    79 C32      -0.8277    6.7632   -1.1229   C.3       1 RES1   0.0000
    80 C33       0.0219    7.7909   -1.8685   C.3       1 RES1   0.0000
    81 C34      -0.5537    9.1949   -1.7320   C.3       1 RES1   0.0000
    82 H39       4.8273    3.7170    6.2968   H         1 RES1   0.0000
    83 H40       3.7374    2.3901    5.9055   H         1 RES1   0.0000
    84 H41       3.0986    3.9998    6.2579   H         1 RES1   0.0000
    85 H42       4.9593    3.3796    3.9087   H         1 RES1   0.0000
    86 H43       4.1313    4.9021    4.1969   H         1 RES1   0.0000
    87 H44       2.7157    2.2519    3.5904   H         1 RES1   0.0000
    88 H45       3.0529    3.5057    2.3970   H         1 RES1   0.0000
    89 H46       1.7585    5.1367    3.8131   H         1 RES1   0.0000
    90 H47       1.3472    3.7967    4.9106   H         1 RES1   0.0000
    91 H48      -1.0626    3.3046    4.9848   H         1 RES1   0.0000
    92 H49      -2.2136    3.9025    3.7911   H         1 RES1   0.0000
    93 H50      -1.6901    6.1892    4.2588   H         1 RES1   0.0000
    94 H51      -0.0918    5.7905    4.8914   H         1 RES1   0.0000
    95 H52      -1.4491    6.4494    6.7281   H         1 RES1   0.0000
    96 H53      -1.0926    4.7326    6.8777   H         1 RES1   0.0000
    97 H54      -3.7294    5.9460    5.9266   H         1 RES1   0.0000
    98 H55      -3.4165    5.1854    7.4849   H         1 RES1   0.0000
    99 H56      -3.4063    4.2090    6.0215   H         1 RES1   0.0000
   100 H57      -0.1013    5.9262    2.0496   H         1 RES1   0.0000
   101 H58      -1.2254    4.8007    1.2626   H         1 RES1   0.0000
   102 H59       2.6477    6.2009   -0.6316   H         1 RES1   0.0000
   103 H60       3.1314    5.2934    0.7959   H         1 RES1   0.0000
   104 H61       1.9076    6.8118    2.2827   H         1 RES1   0.0000
   105 H62       1.1676    7.6515    0.9134   H         1 RES1   0.0000
   106 H63       3.4697    8.3901    0.1986   H         1 RES1   0.0000
   107 H64       4.1163    7.6543    1.6674   H         1 RES1   0.0000
   108 H65       2.0297    9.8891    1.5412   H         1 RES1   0.0000
   109 H66       3.7093   10.0632    2.0357   H         1 RES1   0.0000
   110 H67       2.5971    9.1377    3.0341   H         1 RES1   0.0000
   111 H68      -1.0362    4.5980   -1.2329   H         1 RES1   0.0000
   112 H69       0.3104    5.2422   -2.1623   H         1 RES1   0.0000
   113 H70      -0.9295    7.0528   -0.0752   H         1 RES1   0.0000
   114 H71      -1.8292    6.7597   -1.5581   H         1 RES1   0.0000
   115 H72       0.0673    7.5188   -2.9258   H         1 RES1   0.0000
   116 H73       1.0435    7.7767   -1.4813   H         1 RES1   0.0000
   117 H74      -1.5531    9.2476   -2.1565   H         1 RES1   0.0000
   118 H75       0.0747    9.9100   -2.2531   H         1 RES1   0.0000
   119 H76      -0.6122    9.4845   -0.6841   H         1 RES1   0.0000
   120 C35       7.6473    4.0891    0.4161   C.3       1 RES1   0.0000
   121 C36       6.3754    3.3454    0.8114   C.3       1 RES1   0.0000
   122 C37       5.9896    2.2639   -0.2023   C.3       1 RES1   0.0000
   123 C38       4.5722    1.7199    0.0193   C.3       1 RES1   0.0000
   124 P5        4.3302    0.2636    1.1146   P.3       1 RES1   0.0000
   125 S5        2.4659    0.1272    1.7571   S.3       1 RES1   0.0000
   126 C39       5.4762    0.4272    2.5379   C.3       1 RES1   0.0000
   127 C40       5.2330   -0.5892    3.6509   C.3       1 RES1   0.0000
   128 C41       5.9425   -0.1652    4.9383   C.3       1 RES1   0.0000
   129 C42       7.4536   -0.0346    4.7884   C.3       1 RES1   0.0000
   130 C43       4.9296   -1.2476    0.2411   C.3       1 RES1   0.0000
   131 P6        3.9036   -1.9837   -1.1254   P.3       1 RES1   0.0000
   132 S6        2.0013   -2.3407   -0.7061   S.3       1 RES1   0.0000
   133 C44       4.1103   -0.8287   -2.5459   C.3       1 RES1   0.0000
   134 C45       5.5078   -0.3287   -2.9270   C.3       1 RES1   0.0000
   135 C46       6.2905   -1.2841   -3.8261   C.3       1 RES1   0.0000
   136 C47       7.5906   -0.6453   -4.2995   C.3       1 RES1   0.0000
   137 C48       4.7153   -3.5678   -1.5625   C.3       1 RES1   0.0000
   138 C49       4.3516   -4.7759   -0.6964   C.3       1 RES1   0.0000
   139 C50       4.8824   -4.7285    0.7339   C.3       1 RES1   0.0000
   140 C51       6.3955   -4.5607    0.8044   C.3       1 RES1   0.0000
   141 H77       7.9325    4.7761    1.2091   H         1 RES1   0.0000
   142 H78       7.4997    4.6624   -0.4968   H         1 RES1   0.0000
   143 H79       8.4706    3.3961    0.2605   H         1 RES1   0.0000
   144 H80       5.5555    4.0637    0.8884   H         1 RES1   0.0000
   145 H81       6.5227    2.8976    1.7967   H         1 RES1   0.0000
   146 H82       6.7291    1.4621   -0.1734   H         1 RES1   0.0000
   147 H83       6.0246    2.7027   -1.2024   H         1 RES1   0.0000
   148 H84       4.0874    1.4573   -0.9270   H         1 RES1   0.0000
   149 H85       3.9414    2.4909    0.4718   H         1 RES1   0.0000
   150 H86       5.3073    1.4288    2.9427   H         1 RES1   0.0000
   151 H87       6.5001    0.3672    2.1611   H         1 RES1   0.0000
   152 H88       5.5812   -1.5796    3.3491   H         1 RES1   0.0000
   153 H89       4.1569   -0.6575    3.8380   H         1 RES1   0.0000
   154 H90       5.7225   -0.9061    5.7075   H         1 RES1   0.0000
   155 H91       5.5332    0.7902    5.2747   H         1 RES1   0.0000
   156 H92       7.8797   -0.9206    4.3255   H         1 RES1   0.0000
   157 H93       7.9083    0.0846    5.7673   H         1 RES1   0.0000
   158 H94       7.7223    0.8341    4.1920   H         1 RES1   0.0000
   159 H95       5.0136   -2.0103    1.0143   H         1 RES1   0.0000
   160 H96       5.9260   -1.0549   -0.1631   H         1 RES1   0.0000
   161 H97       3.4582    0.0203   -2.3088   H         1 RES1   0.0000
   162 H98       3.6410   -1.3479   -3.3895   H         1 RES1   0.0000
   163 H99       6.0993   -0.1014   -2.0381   H         1 RES1   0.0000
   164 H100      5.3801    0.6167   -3.4625   H         1 RES1   0.0000
   165 H101      5.6757   -1.5386   -4.6917   H         1 RES1   0.0000
   166 H102      6.5210   -2.2063   -3.2899   H         1 RES1   0.0000
   167 H103      7.3935    0.2599   -4.8693   H         1 RES1   0.0000
   168 H104      8.1372   -1.3376   -4.9306   H         1 RES1   0.0000
   169 H105      8.2267   -0.3883   -3.4553   H         1 RES1   0.0000
   170 H106      5.7949   -3.4031   -1.5721   H         1 RES1   0.0000
   171 H107      4.3884   -3.7646   -2.5904   H         1 RES1   0.0000
   172 H108      4.7601   -5.6605   -1.1904   H         1 RES1   0.0000
   173 H109      3.2648   -4.8858   -0.6732   H         1 RES1   0.0000
   174 H110      4.6158   -5.6726    1.2088   H         1 RES1   0.0000
   175 H111      4.3669   -3.9420    1.2931   H         1 RES1   0.0000
   176 H112      6.8826   -5.3067    0.1817   H         1 RES1   0.0000
   177 H113      6.7456   -4.6972    1.8237   H         1 RES1   0.0000
   178 H114      6.7181   -3.5768    0.4670   H         1 RES1   0.0000
   179 C52       0.1135    5.5936   -6.5442   C.3       1 RES1   0.0000
   180 C53       0.3777    4.4739   -5.5440   C.3       1 RES1   0.0000
   181 C54      -0.8852    3.6606   -5.2572   C.3       1 RES1   0.0000
   182 C55      -0.7147    2.7168   -4.0660   C.3       1 RES1   0.0000
   183 P7        0.0319    1.0509   -4.3645   P.3       1 RES1   0.0000
   184 S7        1.0835    0.5575   -2.7603   S.3       1 RES1   0.0000
   185 C56       1.1446    1.1105   -5.8166   C.3       1 RES1   0.0000
   186 C57       1.7743   -0.2472   -6.1258   C.3       1 RES1   0.0000
   187 C58       3.0745   -0.0693   -6.9101   C.3       1 RES1   0.0000
   188 C59       2.8774    0.7159   -8.2022   C.3       1 RES1   0.0000
   189 C60      -1.3311   -0.0909   -4.8764   C.3       1 RES1   0.0000
   190 P8       -2.3224   -0.9817   -3.5626   P.3       1 RES1   0.0000
   191 S8       -1.1768   -1.8546   -2.2086   S.3       1 RES1   0.0000
   192 C61      -3.5224    0.2744   -2.9352   C.3       1 RES1   0.0000
   193 C62      -4.2233    1.1067   -4.0094   C.3       1 RES1   0.0000
   194 C63      -5.3042    2.0070   -3.4048   C.3       1 RES1   0.0000
   195 C64      -5.9813    2.8482   -4.4818   C.3       1 RES1   0.0000
   196 C65      -3.3776   -2.1970   -4.4495   C.3       1 RES1   0.0000
   197 C66      -2.7358   -3.5519   -4.7567   C.3       1 RES1   0.0000
   198 C67      -1.5964   -3.5001   -5.7697   C.3       1 RES1   0.0000
   199 C68      -2.0238   -2.9275   -7.1158   C.3       1 RES1   0.0000
   200 H115      1.0442    6.0930   -6.7995   H         1 RES1   0.0000
   201 H116     -0.5762    6.3285   -6.1358   H         1 RES1   0.0000
   202 H117     -0.3118    5.1939   -7.4603   H         1 RES1   0.0000
   203 H118      0.7433    4.9043   -4.6080   H         1 RES1   0.0000
   204 H119      1.1640    3.8247   -5.9340   H         1 RES1   0.0000
   205 H120     -1.1816    3.1113   -6.1516   H         1 RES1   0.0000
   206 H121     -1.6942    4.3569   -5.0253   H         1 RES1   0.0000
   207 H122     -1.6794    2.5353   -3.5774   H         1 RES1   0.0000
   208 H123     -0.0446    3.1748   -3.3323   H         1 RES1   0.0000
   209 H124      1.9376    1.8108   -5.5425   H         1 RES1   0.0000
   210 H125      0.6048    1.5077   -6.6779   H         1 RES1   0.0000
   211 H126      1.0860   -0.8597   -6.7104   H         1 RES1   0.0000
   212 H127      1.9836   -0.7703   -5.1862   H         1 RES1   0.0000
   213 H128      3.4728   -1.0554   -7.1493   H         1 RES1   0.0000
   214 H129      3.8082    0.4409   -6.2821   H         1 RES1   0.0000
   215 H130      2.0670    0.2936   -8.7925   H         1 RES1   0.0000
   216 H131      3.7816    0.6821   -8.8018   H         1 RES1   0.0000
   217 H132      2.6545    1.7609   -7.9986   H         1 RES1   0.0000
   218 H133     -0.8556   -0.8651   -5.4789   H         1 RES1   0.0000
   219 H134     -2.0187    0.4730   -5.5124   H         1 RES1   0.0000
   220 H135     -3.0200    0.9101   -2.2013   H         1 RES1   0.0000
   221 H136     -4.2559   -0.3168   -2.3768   H         1 RES1   0.0000
   222 H137     -4.6934    0.4516   -4.7465   H         1 RES1   0.0000
   223 H138     -3.5096    1.7468   -4.5358   H         1 RES1   0.0000
   224 H139     -4.8536    2.6625   -2.6524   H         1 RES1   0.0000
   225 H140     -6.0506    1.3853   -2.9063   H         1 RES1   0.0000
   226 H141     -5.2589    3.4794   -4.9971   H         1 RES1   0.0000
   227 H142     -6.7375    3.4918   -4.0426   H         1 RES1   0.0000
   228 H143     -6.4650    2.2095   -5.2154   H         1 RES1   0.0000
   229 H144     -3.7571   -1.7274   -5.3599   H         1 RES1   0.0000
   230 H145     -4.2247   -2.3633   -3.7733   H         1 RES1   0.0000
   231 H146     -3.5200   -4.2120   -5.1394   H         1 RES1   0.0000
   232 H147     -2.3654   -3.9837   -3.8238   H         1 RES1   0.0000
   233 H148     -1.2477   -4.5215   -5.9212   H         1 RES1   0.0000
   234 H149     -0.7590   -2.9420   -5.3402   H         1 RES1   0.0000
   235 H150     -2.8993   -3.4565   -7.4844   H         1 RES1   0.0000
   236 H151     -1.2314   -3.0470   -7.8492   H         1 RES1   0.0000
   237 H152     -2.2729   -1.8686   -7.0531   H         1 RES1   0.0000
   238 O1       -1.1940    1.6277   -0.9030   O.3       1 RES1   0.0000
   239 H153     -0.6008    2.3434   -0.5811   H         1 RES1   0.0000
   240 H154     -0.8868    1.4900   -1.8264   H         1 RES1   0.0000
@<TRIPOS>BOND
     1     1     7    1
     2     1    14    1
     3     1    66    1
     4     1    73    1
     5     1   125    1
     6     1   132    1
     7     1   184    1
     8     1   191    1
     9     1   238    1
    10     2     3    1
    11     2    23    1
    12     2    24    1
    13     2    25    1
    14     3     4    1
    15     3    26    1
    16     3    27    1
    17     4     5    1
    18     4    28    1
    19     4    29    1
    20     5     6    1
    21     5    30    1
    22     5    31    1
    23     6     7    2
    24     6     8    1
    25     6    12    1
    26     8     9    1
    27     8    32    1
    28     8    33    1
    29     9    10    1
    30     9    34    1
    31     9    35    1
    32    10    11    1
    33    10    36    1
    34    10    37    1
    35    11    38    1
    36    11    39    1
    37    11    40    1
    38    12    13    1
    39    12    41    1
    40    12    42    1
    41    13    14    2
    42    13    15    1
    43    13    19    1
    44    15    16    1
    45    15    43    1
    46    15    44    1
    47    16    17    1
    48    16    45    1
    49    16    46    1
    50    17    18    1
    51    17    47    1
    52    17    48    1
    53    18    49    1
    54    18    50    1
    55    18    51    1
    56    19    20    1
    57    19    52    1
    58    19    53    1
    59    20    21    1
    60    20    54    1
    61    20    55    1
    62    21    22    1
    63    21    56    1
    64    21    57    1
    65    22    58    1
    66    22    59    1
    67    22    60    1
    68    61    62    1
    69    61    82    1
    70    61    83    1
    71    61    84    1
    72    62    63    1
    73    62    85    1
    74    62    86    1
    75    63    64    1
    76    63    87    1
    77    63    88    1
    78    64    65    1
    79    64    89    1
    80    64    90    1
    81    65    66    2
    82    65    67    1
    83    65    71    1
    84    67    68    1
    85    67    91    1
    86    67    92    1
    87    68    69    1
    88    68    93    1
    89    68    94    1
    90    69    70    1
    91    69    95    1
    92    69    96    1
    93    70    97    1
    94    70    98    1
    95    70    99    1
    96    71    72    1
    97    71   100    1
    98    71   101    1
    99    72    73    2
   100    72    74    1
   101    72    78    1
   102    74    75    1
   103    74   102    1
   104    74   103    1
   105    75    76    1
   106    75   104    1
   107    75   105    1
   108    76    77    1
   109    76   106    1
   110    76   107    1
   111    77   108    1
   112    77   109    1
   113    77   110    1
   114    78    79    1
   115    78   111    1
   116    78   112    1
   117    79    80    1
   118    79   113    1
   119    79   114    1
   120    80    81    1
   121    80   115    1
   122    80   116    1
   123    81   117    1
   124    81   118    1
   125    81   119    1
   126   120   121    1
   127   120   141    1
   128   120   142    1
   129   120   143    1
   130   121   122    1
   131   121   144    1
   132   121   145    1
   133   122   123    1
   134   122   146    1
   135   122   147    1
   136   123   124    1
   137   123   148    1
   138   123   149    1
   139   124   125    2
   140   124   126    1
   141   124   130    1
   142   126   127    1
   143   126   150    1
   144   126   151    1
   145   127   128    1
   146   127   152    1
   147   127   153    1
   148   128   129    1
   149   128   154    1
   150   128   155    1
   151   129   156    1
   152   129   157    1
   153   129   158    1
   154   130   131    1
   155   130   159    1
   156   130   160    1
   157   131   132    2
   158   131   133    1
   159   131   137    1
   160   133   134    1
   161   133   161    1
   162   133   162    1
   163   134   135    1
   164   134   163    1
   165   134   164    1
   166   135   136    1
   167   135   165    1
   168   135   166    1
   169   136   167    1
   170   136   168    1
   171   136   169    1
   172   137   138    1
   173   137   170    1
   174   137   171    1
   175   138   139    1
   176   138   172    1
   177   138   173    1
   178   139   140    1
   179   139   174    1
   180   139   175    1
   181   140   176    1
   182   140   177    1
   183   140   178    1
   184   179   180    1
   185   179   200    1
   186   179   201    1
   187   179   202    1
   188   180   181    1
   189   180   203    1
   190   180   204    1
   191   181   182    1
   192   181   205    1
   193   181   206    1
   194   182   183    1
   195   182   207    1
   196   182   208    1
   197   183   184    2
   198   183   185    1
   199   183   189    1
   200   185   186    1
   201   185   209    1
   202   185   210    1
   203   186   187    1
   204   186   211    1
   205   186   212    1
   206   187   188    1
   207   187   213    1
   208   187   214    1
   209   188   215    1
   210   188   216    1
   211   188   217    1
   212   189   190    1
   213   189   218    1
   214   189   219    1
   215   190   191    2
   216   190   192    1
   217   190   196    1
   218   192   193    1
   219   192   220    1
   220   192   221    1
   221   193   194    1
   222   193   222    1
   223   193   223    1
   224   194   195    1
   225   194   224    1
   226   194   225    1
   227   195   226    1
   228   195   227    1
   229   195   228    1
   230   196   197    1
   231   196   229    1
   232   196   230    1
   233   197   198    1
   234   197   231    1
   235   197   232    1
   236   198   199    1
   237   198   233    1
   238   198   234    1
   239   199   235    1
   240   199   236    1
   241   199   237    1
   242   238   239    1
   243   238   240    1
@<TRIPOS>SUBSTRUCTURE
     1 RES1      240 GROUP             0 ****  ****    0  
