@<TRIPOS>MOLECULE
cn9_YICLED_0_nunpairedes_0_charge_3 Charge: 3 Unpaired_Electrons: 6 XTB_Unpaired_Electrons: 0 XTB_Charge: 3
   322   327     1     0     0
SMALL
NoCharges
****
Generated from Architector

@<TRIPOS>ATOM
     1 Eu1      -0.5610    0.1440    0.3117   Eu        1 RES1   0.0000
     2 C1       -2.1544    6.7898    6.4662   C.3       1 RES1   0.0000
     3 C2       -3.2549    5.8928    5.9133   C.3       1 RES1   0.0000
     4 C3       -3.6439    6.2880    4.4897   C.3       1 RES1   0.0000
     5 C4       -4.7471    5.4137    3.8868   C.3       1 RES1   0.0000
     6 C5       -4.3464    3.9347    3.7555   C.3       1 RES1   0.0000
     7 C6       -5.0599    3.0214    4.7584   C.3       1 RES1   0.0000
     8 C7       -4.4394    1.6152    4.8660   C.3       1 RES1   0.0000
     9 C8       -4.4064    1.1049    6.3175   C.3       1 RES1   0.0000
    10 C9       -3.3423    1.7720    7.1874   C.3       1 RES1   0.0000
    11 C10      -3.3121    1.1548    8.5833   C.3       1 RES1   0.0000
    12 C11      -2.2601    1.7993    9.4752   C.3       1 RES1   0.0000
    13 C12      -5.1473    0.5743    3.9874   C.3       1 RES1   0.0000
    14 C13      -5.0044    0.8525    2.4907   C.3       1 RES1   0.0000
    15 C14      -5.2614   -0.3916    1.6416   C.3       1 RES1   0.0000
    16 N1       -4.3857   -1.4942    2.0337   N.am      1 RES1   0.0000
    17 C15      -5.0330   -2.6292    2.6565   C.3       1 RES1   0.0000
    18 C16      -3.0926   -1.3706    1.8029   C.2       1 RES1   0.0000
    19 O1       -2.5911   -0.3522    1.2709   O.2       1 RES1   0.0000
    20 C17      -2.1623   -2.5157    2.1805   C.3       1 RES1   0.0000
    21 O2       -0.8753   -2.1738    1.7087   O.3       1 RES1   0.0000
    22 C18       0.0503   -3.2355    1.8910   C.3       1 RES1   0.0000
    23 C19       1.4083   -2.7231    1.4239   C.2       1 RES1   0.0000
    24 O3        1.4855   -1.5445    1.0571   O.2       1 RES1   0.0000
    25 N2        2.4331   -3.5725    1.4789   N.am      1 RES1   0.0000
    26 C20       2.2171   -4.9673    1.8262   C.3       1 RES1   0.0000
    27 C21       3.8444   -3.1767    1.5613   C.3       1 RES1   0.0000
    28 C22       4.3228   -1.9375    0.7989   C.3       1 RES1   0.0000
    29 C23       5.6065   -2.1980   -0.0097   C.3       1 RES1   0.0000
    30 C24       5.3872   -2.6030   -1.4821   C.3       1 RES1   0.0000
    31 C25       6.1615   -3.8665   -1.8807   C.3       1 RES1   0.0000
    32 C26       5.6069   -5.1376   -1.2273   C.3       1 RES1   0.0000
    33 C27       6.0936   -6.3945   -1.9496   C.3       1 RES1   0.0000
    34 C28       5.4386   -7.6700   -1.4358   C.3       1 RES1   0.0000
    35 C29       5.7536   -1.4017   -2.3767   C.3       1 RES1   0.0000
    36 C30       5.3152   -1.5019   -3.8412   C.3       1 RES1   0.0000
    37 C31       5.5766   -0.2037   -4.6106   C.3       1 RES1   0.0000
    38 C32       4.4771    0.8510   -4.4617   C.3       1 RES1   0.0000
    39 C33       3.3015    0.6171   -5.4107   C.3       1 RES1   0.0000
    40 C34       2.3157    1.7801   -5.3986   C.3       1 RES1   0.0000
    41 H1       -1.8859    6.4860    7.4746   H         1 RES1   0.0000
    42 H2       -2.4833    7.8249    6.5011   H         1 RES1   0.0000
    43 H3       -1.2680    6.7307    5.8373   H         1 RES1   0.0000
    44 H4       -4.1348    5.9577    6.5571   H         1 RES1   0.0000
    45 H5       -2.9051    4.8577    5.9218   H         1 RES1   0.0000
    46 H6       -2.7563    6.2488    3.8491   H         1 RES1   0.0000
    47 H7       -3.9931    7.3213    4.4974   H         1 RES1   0.0000
    48 H8       -4.9928    5.8102    2.8991   H         1 RES1   0.0000
    49 H9       -5.6432    5.4980    4.5043   H         1 RES1   0.0000
    50 H10      -3.2734    3.8525    3.9219   H         1 RES1   0.0000
    51 H11      -4.5448    3.5863    2.7402   H         1 RES1   0.0000
    52 H12      -6.1158    2.9400    4.4893   H         1 RES1   0.0000
    53 H13      -5.0181    3.4952    5.7395   H         1 RES1   0.0000
    54 H14      -3.4038    1.6633    4.5116   H         1 RES1   0.0000
    55 H15      -4.1941    0.0307    6.3087   H         1 RES1   0.0000
    56 H16      -5.3872    1.2402    6.7775   H         1 RES1   0.0000
    57 H17      -3.5377    2.8402    7.2784   H         1 RES1   0.0000
    58 H18      -2.3584    1.6531    6.7274   H         1 RES1   0.0000
    59 H19      -3.1129    0.0830    8.5070   H         1 RES1   0.0000
    60 H20      -4.2930    1.2687    9.0445   H         1 RES1   0.0000
    61 H21      -1.2672    1.6978    9.0409   H         1 RES1   0.0000
    62 H22      -2.2531    1.3309   10.4562   H         1 RES1   0.0000
    63 H23      -2.4716    2.8572    9.6031   H         1 RES1   0.0000
    64 H24      -6.2027    0.5156    4.2555   H         1 RES1   0.0000
    65 H25      -4.6848   -0.3896    4.2172   H         1 RES1   0.0000
    66 H26      -3.9922    1.2096    2.2867   H         1 RES1   0.0000
    67 H27      -5.7038    1.6288    2.1863   H         1 RES1   0.0000
    68 H28      -5.0651   -0.1695    0.5892   H         1 RES1   0.0000
    69 H29      -6.2878   -0.7344    1.7549   H         1 RES1   0.0000
    70 H30      -5.5268   -2.3210    3.5788   H         1 RES1   0.0000
    71 H31      -4.3375   -3.4246    2.8970   H         1 RES1   0.0000
    72 H32      -5.7980   -3.0326    1.9934   H         1 RES1   0.0000
    73 H33      -2.5050   -3.4476    1.7113   H         1 RES1   0.0000
    74 H34      -2.1277   -2.6490    3.2689   H         1 RES1   0.0000
    75 H35      -0.2848   -4.1294    1.3512   H         1 RES1   0.0000
    76 H36       0.1571   -3.4814    2.9590   H         1 RES1   0.0000
    77 H37       1.7248   -5.0621    2.7913   H         1 RES1   0.0000
    78 H38       3.1786   -5.4699    1.8839   H         1 RES1   0.0000
    79 H39       1.6133   -5.4684    1.0654   H         1 RES1   0.0000
    80 H40       4.4207   -4.0210    1.1873   H         1 RES1   0.0000
    81 H41       4.0619   -3.0507    2.6292   H         1 RES1   0.0000
    82 H42       4.5409   -1.1554    1.5197   H         1 RES1   0.0000
    83 H43       3.5232   -1.5776    0.1588   H         1 RES1   0.0000
    84 H44       6.1976   -2.9559    0.5009   H         1 RES1   0.0000
    85 H45       6.2041   -1.2855    0.0025   H         1 RES1   0.0000
    86 H46       4.3232   -2.8375   -1.6241   H         1 RES1   0.0000
    87 H47       7.2210   -3.7566   -1.6466   H         1 RES1   0.0000
    88 H48       6.0870   -3.9814   -2.9639   H         1 RES1   0.0000
    89 H49       4.5102   -5.1116   -1.2575   H         1 RES1   0.0000
    90 H50       5.9066   -5.1913   -0.1770   H         1 RES1   0.0000
    91 H51       7.1760   -6.4688   -1.8428   H         1 RES1   0.0000
    92 H52       5.8783   -6.2910   -3.0147   H         1 RES1   0.0000
    93 H53       5.6876   -7.8477   -0.3941   H         1 RES1   0.0000
    94 H54       5.7939   -8.5203   -2.0094   H         1 RES1   0.0000
    95 H55       4.3550   -7.6218   -1.5309   H         1 RES1   0.0000
    96 H56       6.8382   -1.2720   -2.3477   H         1 RES1   0.0000
    97 H57       5.3125   -0.4955   -1.9430   H         1 RES1   0.0000
    98 H58       4.2514   -1.7416   -3.9102   H         1 RES1   0.0000
    99 H59       5.8581   -2.3114   -4.3286   H         1 RES1   0.0000
   100 H60       5.6853   -0.4349   -5.6696   H         1 RES1   0.0000
   101 H61       6.5281    0.2100   -4.2779   H         1 RES1   0.0000
   102 H62       4.9050    1.8270   -4.6923   H         1 RES1   0.0000
   103 H63       4.1239    0.8868   -3.4248   H         1 RES1   0.0000
   104 H64       2.7854   -0.3129   -5.1595   H         1 RES1   0.0000
   105 H65       3.6866    0.4930   -6.4224   H         1 RES1   0.0000
   106 H66       1.8926    1.9262   -4.4035   H         1 RES1   0.0000
   107 H67       1.5046    1.6099   -6.1046   H         1 RES1   0.0000
   108 H68       2.8220    2.6959   -5.6943   H         1 RES1   0.0000
   109 C35      -1.6223    2.3292   -7.7356   C.3       1 RES1   0.0000
   110 C36      -2.0542    0.9506   -8.2161   C.3       1 RES1   0.0000
   111 C37      -0.8753   -0.0117   -8.3546   C.3       1 RES1   0.0000
   112 C38      -1.3311   -1.3828   -8.8763   C.3       1 RES1   0.0000
   113 C39      -0.7477   -2.5750   -8.1068   C.3       1 RES1   0.0000
   114 C40      -1.6865   -3.7926   -8.1334   C.3       1 RES1   0.0000
   115 C41      -1.7651   -4.6031   -6.8319   C.3       1 RES1   0.0000
   116 C42      -0.3798   -5.0369   -6.3267   C.3       1 RES1   0.0000
   117 C43      -0.4479   -6.3603   -5.5607   C.3       1 RES1   0.0000
   118 C44       0.9258   -6.8451   -5.1038   C.3       1 RES1   0.0000
   119 C45       0.8630   -8.2039   -4.4205   C.3       1 RES1   0.0000
   120 C46      -2.6220   -3.9605   -5.6992   C.3       1 RES1   0.0000
   121 C47      -2.9341   -2.4507   -5.7617   C.3       1 RES1   0.0000
   122 C48      -2.0085   -1.5183   -4.9660   C.3       1 RES1   0.0000
   123 N3       -2.3915   -1.2304   -3.5789   N.am      1 RES1   0.0000
   124 C49      -3.3487   -2.0547   -2.8624   C.3       1 RES1   0.0000
   125 C50      -1.8123   -0.2449   -2.9025   C.2       1 RES1   0.0000
   126 O4       -2.0543    0.0053   -1.7033   O.2       1 RES1   0.0000
   127 C51      -0.7480    0.5857   -3.6252   C.3       1 RES1   0.0000
   128 O5       -0.1596    1.4652   -2.6947   O.3       1 RES1   0.0000
   129 C52      -0.8885    2.6690   -2.5472   C.3       1 RES1   0.0000
   130 C53      -0.4787    3.2637   -1.2128   C.2       1 RES1   0.0000
   131 O6       -0.5731    2.5224   -0.2082   O.2       1 RES1   0.0000
   132 N4       -0.1169    4.5331   -1.1479   N.am      1 RES1   0.0000
   133 C54      -0.1215    5.1696    0.1559   C.3       1 RES1   0.0000
   134 C55       0.2926    5.3667   -2.2727   C.3       1 RES1   0.0000
   135 C56       1.6372    6.0535   -2.0255   C.3       1 RES1   0.0000
   136 C57       2.7796    5.0677   -1.7725   C.3       1 RES1   0.0000
   137 C58       4.0964    5.7520   -1.3547   C.3       1 RES1   0.0000
   138 C59       3.8313    6.5792   -0.0844   C.3       1 RES1   0.0000
   139 C60       5.0652    7.1315    0.6539   C.3       1 RES1   0.0000
   140 C61       5.1784    6.6070    2.0883   C.3       1 RES1   0.0000
   141 C62       6.3233    7.2661    2.8452   C.3       1 RES1   0.0000
   142 C63       5.1842    4.6846   -1.1171   C.3       1 RES1   0.0000
   143 C64       6.5813    4.9945   -1.6791   C.3       1 RES1   0.0000
   144 C65       6.8211    4.4834   -3.1050   C.3       1 RES1   0.0000
   145 C66       8.2950    4.1189   -3.3094   C.3       1 RES1   0.0000
   146 C67       8.6884    3.9016   -4.7719   C.3       1 RES1   0.0000
   147 C68       7.9897    2.7144   -5.4248   C.3       1 RES1   0.0000
   148 H69      -2.4836    2.9820   -7.6179   H         1 RES1   0.0000
   149 H70      -0.9504    2.7859   -8.4573   H         1 RES1   0.0000
   150 H71      -1.0999    2.2619   -6.7796   H         1 RES1   0.0000
   151 H72      -2.5402    1.0519   -9.1851   H         1 RES1   0.0000
   152 H73      -2.7914    0.5283   -7.5253   H         1 RES1   0.0000
   153 H74      -0.3893   -0.1206   -7.3790   H         1 RES1   0.0000
   154 H75      -0.1402    0.4283   -9.0272   H         1 RES1   0.0000
   155 H76      -1.0818   -1.4834   -9.9312   H         1 RES1   0.0000
   156 H77      -2.4216   -1.4200   -8.8168   H         1 RES1   0.0000
   157 H78      -0.5631   -2.2836   -7.0727   H         1 RES1   0.0000
   158 H79       0.2222   -2.8352   -8.5317   H         1 RES1   0.0000
   159 H80      -1.3746   -4.4761   -8.9239   H         1 RES1   0.0000
   160 H81      -2.6980   -3.4685   -8.3873   H         1 RES1   0.0000
   161 H82      -2.2821   -5.5283   -7.1031   H         1 RES1   0.0000
   162 H83       0.0486   -4.2525   -5.6973   H         1 RES1   0.0000
   163 H84       0.2907   -5.1651   -7.1767   H         1 RES1   0.0000
   164 H85      -0.8811   -7.1209   -6.2100   H         1 RES1   0.0000
   165 H86      -1.1134   -6.2654   -4.6984   H         1 RES1   0.0000
   166 H87       1.3696   -6.1135   -4.4220   H         1 RES1   0.0000
   167 H88       1.5857   -6.9194   -5.9677   H         1 RES1   0.0000
   168 H89       0.1655   -8.1935   -3.5862   H         1 RES1   0.0000
   169 H90       1.8424   -8.4905   -4.0475   H         1 RES1   0.0000
   170 H91       0.5387   -8.9649   -5.1221   H         1 RES1   0.0000
   171 H92      -2.1411   -4.1961   -4.7500   H         1 RES1   0.0000
   172 H93      -3.5843   -4.4751   -5.6833   H         1 RES1   0.0000
   173 H94      -3.9633   -2.2748   -5.4464   H         1 RES1   0.0000
   174 H95      -2.8823   -2.1322   -6.7992   H         1 RES1   0.0000
   175 H96      -1.9573   -0.5598   -5.4931   H         1 RES1   0.0000
   176 H97      -0.9955   -1.9347   -4.9491   H         1 RES1   0.0000
   177 H98      -4.3384   -1.5944   -2.8691   H         1 RES1   0.0000
   178 H99      -3.0118   -2.1399   -1.8280   H         1 RES1   0.0000
   179 H100     -3.4253   -3.0350   -3.3202   H         1 RES1   0.0000
   180 H101     -1.1592    1.1383   -4.4825   H         1 RES1   0.0000
   181 H102      0.0529   -0.0623   -3.9925   H         1 RES1   0.0000
   182 H103     -1.9669    2.4764   -2.4554   H         1 RES1   0.0000
   183 H104     -0.7288    3.3267   -3.4049   H         1 RES1   0.0000
   184 H105     -0.8413    4.6433    0.7806   H         1 RES1   0.0000
   185 H106     -0.4155    6.2116    0.0448   H         1 RES1   0.0000
   186 H107      0.8561    5.1268    0.6367   H         1 RES1   0.0000
   187 H108     -0.4735    6.1248   -2.4551   H         1 RES1   0.0000
   188 H109      0.3962    4.7531   -3.1631   H         1 RES1   0.0000
   189 H110      1.5460    6.7467   -1.1926   H         1 RES1   0.0000
   190 H111      1.8651    6.6373   -2.9168   H         1 RES1   0.0000
   191 H112      2.9530    4.4876   -2.6816   H         1 RES1   0.0000
   192 H113      2.4902    4.3673   -0.9804   H         1 RES1   0.0000
   193 H114      4.4112    6.4174   -2.1629   H         1 RES1   0.0000
   194 H115      3.2637    5.9457    0.6058   H         1 RES1   0.0000
   195 H116      3.1922    7.4195   -0.3505   H         1 RES1   0.0000
   196 H117      5.0117    8.2219    0.6902   H         1 RES1   0.0000
   197 H118      5.9773    6.8770    0.1170   H         1 RES1   0.0000
   198 H119      5.3415    5.5234    2.0668   H         1 RES1   0.0000
   199 H120      4.2376    6.7899    2.6147   H         1 RES1   0.0000
   200 H121      7.2663    7.0850    2.3364   H         1 RES1   0.0000
   201 H122      6.3910    6.8644    3.8515   H         1 RES1   0.0000
   202 H123      6.1779    8.3397    2.9218   H         1 RES1   0.0000
   203 H124      4.8468    3.7393   -1.5554   H         1 RES1   0.0000
   204 H125      5.2651    4.5315   -0.0392   H         1 RES1   0.0000
   205 H126      7.3190    4.5283   -1.0224   H         1 RES1   0.0000
   206 H127      6.7655    6.0673   -1.6515   H         1 RES1   0.0000
   207 H128      6.5371    5.2444   -3.8325   H         1 RES1   0.0000
   208 H129      6.2081    3.5969   -3.2903   H         1 RES1   0.0000
   209 H130      8.5165    3.2108   -2.7387   H         1 RES1   0.0000
   210 H131      8.9174    4.9194   -2.9022   H         1 RES1   0.0000
   211 H132      8.4729    4.8053   -5.3456   H         1 RES1   0.0000
   212 H133      9.7678    3.7356   -4.8107   H         1 RES1   0.0000
   213 H134      8.1589    1.8104   -4.8427   H         1 RES1   0.0000
   214 H135      8.3852    2.5574   -6.4249   H         1 RES1   0.0000
   215 H136      6.9182    2.8851   -5.5129   H         1 RES1   0.0000
   216 C69      -8.6540   -1.5655   -1.5345   C.3       1 RES1   0.0000
   217 C70      -8.0808   -2.5668   -2.5314   C.3       1 RES1   0.0000
   218 C71      -6.7175   -3.1260   -2.1109   C.3       1 RES1   0.0000
   219 C72      -6.7890   -4.1478   -0.9763   C.3       1 RES1   0.0000
   220 C73      -5.4057   -4.5927   -0.4787   C.3       1 RES1   0.0000
   221 C74      -4.6156   -5.4482   -1.4730   C.3       1 RES1   0.0000
   222 C75      -3.2328   -5.8801   -0.9230   C.3       1 RES1   0.0000
   223 C76      -3.2543   -7.3684   -0.5361   C.3       1 RES1   0.0000
   224 C77      -1.9775   -7.8628    0.1505   C.3       1 RES1   0.0000
   225 C78      -2.0148   -9.3584    0.4914   C.3       1 RES1   0.0000
   226 C79      -1.9933  -10.2567   -0.7415   C.3       1 RES1   0.0000
   227 C80      -2.1056   -5.5713   -1.9335   C.3       1 RES1   0.0000
   228 C81      -1.0466   -4.5718   -1.4383   C.3       1 RES1   0.0000
   229 C82      -0.2921   -4.0178   -2.6440   C.3       1 RES1   0.0000
   230 N5        0.8389   -3.1037   -2.4210   N.am      1 RES1   0.0000
   231 C83       1.9952   -3.4126   -3.2330   C.3       1 RES1   0.0000
   232 C84       0.7117   -1.9694   -1.7366   C.2       1 RES1   0.0000
   233 O7       -0.2731   -1.7425   -1.0164   O.2       1 RES1   0.0000
   234 C85       1.8050   -0.8921   -1.8714   C.3       1 RES1   0.0000
   235 O8        1.4600    0.2079   -1.0441   O.3       1 RES1   0.0000
   236 C86       2.5461    1.0208   -0.5845   C.3       1 RES1   0.0000
   237 C87       2.3870    1.1203    0.9479   C.2       1 RES1   0.0000
   238 O9        1.2501    0.9698    1.4233   O.2       1 RES1   0.0000
   239 N6        3.4624    1.2560    1.7169   N.am      1 RES1   0.0000
   240 C88       4.7144    1.8187    1.2650   C.3       1 RES1   0.0000
   241 C89       3.4590    0.6715    3.0611   C.3       1 RES1   0.0000
   242 C90       3.0405    1.5039    4.2741   C.3       1 RES1   0.0000
   243 C91       2.8703    0.5381    5.4622   C.3       1 RES1   0.0000
   244 C92       1.5726   -0.2910    5.3968   C.3       1 RES1   0.0000
   245 C93       0.3511    0.6042    5.6829   C.3       1 RES1   0.0000
   246 C94      -0.4162    0.9828    4.4044   C.3       1 RES1   0.0000
   247 C95      -0.7079    2.4774    4.2980   C.3       1 RES1   0.0000
   248 C96      -1.0282    2.8592    2.8572   C.3       1 RES1   0.0000
   249 C97       1.6626   -1.5391    6.2991   C.3       1 RES1   0.0000
   250 C98       0.3265   -2.2827    6.4451   C.3       1 RES1   0.0000
   251 C99       0.4612   -3.7838    6.7467   C.3       1 RES1   0.0000
   252 C100      0.4389   -4.6583    5.4913   C.3       1 RES1   0.0000
   253 C101      0.4535   -6.1590    5.8008   C.3       1 RES1   0.0000
   254 C102      0.0674   -7.0045    4.5902   C.3       1 RES1   0.0000
   255 H137     -9.6319   -1.2317   -1.8714   H         1 RES1   0.0000
   256 H138     -8.7772   -2.0164   -0.5525   H         1 RES1   0.0000
   257 H139     -8.0042   -0.6960   -1.4407   H         1 RES1   0.0000
   258 H140     -8.7924   -3.3823   -2.6722   H         1 RES1   0.0000
   259 H141     -7.9690   -2.0723   -3.5002   H         1 RES1   0.0000
   260 H142     -6.2691   -3.6033   -2.9837   H         1 RES1   0.0000
   261 H143     -6.0745   -2.2963   -1.7903   H         1 RES1   0.0000
   262 H144     -7.3276   -3.7051   -0.1356   H         1 RES1   0.0000
   263 H145     -7.3558   -5.0189   -1.3070   H         1 RES1   0.0000
   264 H146     -4.8134   -3.6994   -0.2369   H         1 RES1   0.0000
   265 H147     -5.5277   -5.1737    0.4402   H         1 RES1   0.0000
   266 H148     -5.1990   -6.3319   -1.7304   H         1 RES1   0.0000
   267 H149     -4.4918   -4.8739   -2.3903   H         1 RES1   0.0000
   268 H150     -3.0392   -5.3027   -0.0101   H         1 RES1   0.0000
   269 H151     -4.0915   -7.5371    0.1437   H         1 RES1   0.0000
   270 H152     -3.4271   -7.9547   -1.4388   H         1 RES1   0.0000
   271 H153     -1.1083   -7.6813   -0.4886   H         1 RES1   0.0000
   272 H154     -1.8271   -7.3019    1.0795   H         1 RES1   0.0000
   273 H155     -1.1449   -9.5896    1.1141   H         1 RES1   0.0000
   274 H156     -2.9040   -9.5767    1.0852   H         1 RES1   0.0000
   275 H157     -1.1677   -9.9851   -1.3976   H         1 RES1   0.0000
   276 H158     -1.8656  -11.2935   -0.4429   H         1 RES1   0.0000
   277 H159     -2.9235  -10.1893   -1.3015   H         1 RES1   0.0000
   278 H160     -1.6220   -6.5009   -2.2310   H         1 RES1   0.0000
   279 H161     -2.5516   -5.1628   -2.8381   H         1 RES1   0.0000
   280 H162     -1.5314   -3.7532   -0.9090   H         1 RES1   0.0000
   281 H163     -0.3516   -5.0625   -0.7550   H         1 RES1   0.0000
   282 H164      0.1064   -4.8634   -3.2051   H         1 RES1   0.0000
   283 H165     -0.9996   -3.4879   -3.2839   H         1 RES1   0.0000
   284 H166      2.2796   -4.4515   -3.0679   H         1 RES1   0.0000
   285 H167      1.7680   -3.2709   -4.2934   H         1 RES1   0.0000
   286 H168      2.8456   -2.7936   -2.9666   H         1 RES1   0.0000
   287 H169      2.7841   -1.2857   -1.5811   H         1 RES1   0.0000
   288 H170      1.8611   -0.5547   -2.9163   H         1 RES1   0.0000
   289 H171      3.5101    0.5657   -0.8302   H         1 RES1   0.0000
   290 H172      2.4735    2.0041   -1.0689   H         1 RES1   0.0000
   291 H173      4.6733    2.1234    0.2249   H         1 RES1   0.0000
   292 H174      4.9219    2.7102    1.8541   H         1 RES1   0.0000
   293 H175      5.5338    1.1140    1.4028   H         1 RES1   0.0000
   294 H176      2.7967   -0.1966    3.0026   H         1 RES1   0.0000
   295 H177      4.4764    0.3201    3.2427   H         1 RES1   0.0000
   296 H178      3.8116    2.2390    4.5136   H         1 RES1   0.0000
   297 H179      2.1112    2.0383    4.0815   H         1 RES1   0.0000
   298 H180      3.7394   -0.1250    5.4962   H         1 RES1   0.0000
   299 H181      2.8748    1.1005    6.3972   H         1 RES1   0.0000
   300 H182      1.4587   -0.6786    4.3754   H         1 RES1   0.0000
   301 H183     -0.3244    0.1062    6.3743   H         1 RES1   0.0000
   302 H184      0.6857    1.5119    6.1849   H         1 RES1   0.0000
   303 H185      0.1504    0.6856    3.5108   H         1 RES1   0.0000
   304 H186     -1.3617    0.4339    4.3591   H         1 RES1   0.0000
   305 H187     -1.5354    2.7378    4.9602   H         1 RES1   0.0000
   306 H188      0.1527    3.0543    4.6405   H         1 RES1   0.0000
   307 H189     -0.1131    2.8820    2.2623   H         1 RES1   0.0000
   308 H190     -1.7292    2.1332    2.4158   H         1 RES1   0.0000
   309 H191     -1.4894    3.8446    2.8203   H         1 RES1   0.0000
   310 H192      2.3993   -2.2171    5.8568   H         1 RES1   0.0000
   311 H193      2.0291   -1.2682    7.2895   H         1 RES1   0.0000
   312 H194     -0.2411   -1.8297    7.2571   H         1 RES1   0.0000
   313 H195     -0.2606   -2.1509    5.5308   H         1 RES1   0.0000
   314 H196      1.3763   -3.9680    7.3062   H         1 RES1   0.0000
   315 H197     -0.3698   -4.0903    7.3835   H         1 RES1   0.0000
   316 H198     -0.4849   -4.4343    4.9425   H         1 RES1   0.0000
   317 H199      1.2905   -4.4012    4.8491   H         1 RES1   0.0000
   318 H200      1.4406   -6.4578    6.1553   H         1 RES1   0.0000
   319 H201     -0.2564   -6.3566    6.6053   H         1 RES1   0.0000
   320 H202      0.7966   -6.9117    3.7874   H         1 RES1   0.0000
   321 H203      0.0069   -8.0526    4.8650   H         1 RES1   0.0000
   322 H204     -0.9066   -6.7047    4.2091   H         1 RES1   0.0000
@<TRIPOS>BOND
     1     1    19    1
     2     1    21    1
     3     1    24    1
     4     1   126    1
     5     1   128    1
     6     1   131    1
     7     1   233    1
     8     1   235    1
     9     1   238    1
    10     2     3    1
    11     2    41    1
    12     2    42    1
    13     2    43    1
    14     3     4    1
    15     3    44    1
    16     3    45    1
    17     4     5    1
    18     4    46    1
    19     4    47    1
    20     5     6    1
    21     5    48    1
    22     5    49    1
    23     6     7    1
    24     6    50    1
    25     6    51    1
    26     7     8    1
    27     7    52    1
    28     7    53    1
    29     8     9    1
    30     8    13    1
    31     8    54    1
    32     9    10    1
    33     9    55    1
    34     9    56    1
    35    10    11    1
    36    10    57    1
    37    10    58    1
    38    11    12    1
    39    11    59    1
    40    11    60    1
    41    12    61    1
    42    12    62    1
    43    12    63    1
    44    13    14    1
    45    13    64    1
    46    13    65    1
    47    14    15    1
    48    14    66    1
    49    14    67    1
    50    15    16    1
    51    15    68    1
    52    15    69    1
    53    16    17    1
    54    16    18    1
    55    17    70    1
    56    17    71    1
    57    17    72    1
    58    18    19    2
    59    18    20    1
    60    20    21    1
    61    20    73    1
    62    20    74    1
    63    21    22    1
    64    22    23    1
    65    22    75    1
    66    22    76    1
    67    23    24    2
    68    23    25    1
    69    25    26    1
    70    25    27    1
    71    26    77    1
    72    26    78    1
    73    26    79    1
    74    27    28    1
    75    27    80    1
    76    27    81    1
    77    28    29    1
    78    28    82    1
    79    28    83    1
    80    29    30    1
    81    29    84    1
    82    29    85    1
    83    30    31    1
    84    30    35    1
    85    30    86    1
    86    31    32    1
    87    31    87    1
    88    31    88    1
    89    32    33    1
    90    32    89    1
    91    32    90    1
    92    33    34    1
    93    33    91    1
    94    33    92    1
    95    34    93    1
    96    34    94    1
    97    34    95    1
    98    35    36    1
    99    35    96    1
   100    35    97    1
   101    36    37    1
   102    36    98    1
   103    36    99    1
   104    37    38    1
   105    37   100    1
   106    37   101    1
   107    38    39    1
   108    38   102    1
   109    38   103    1
   110    39    40    1
   111    39   104    1
   112    39   105    1
   113    40   106    1
   114    40   107    1
   115    40   108    1
   116   109   110    1
   117   109   148    1
   118   109   149    1
   119   109   150    1
   120   110   111    1
   121   110   151    1
   122   110   152    1
   123   111   112    1
   124   111   153    1
   125   111   154    1
   126   112   113    1
   127   112   155    1
   128   112   156    1
   129   113   114    1
   130   113   157    1
   131   113   158    1
   132   114   115    1
   133   114   159    1
   134   114   160    1
   135   115   116    1
   136   115   120    1
   137   115   161    1
   138   116   117    1
   139   116   162    1
   140   116   163    1
   141   117   118    1
   142   117   164    1
   143   117   165    1
   144   118   119    1
   145   118   166    1
   146   118   167    1
   147   119   168    1
   148   119   169    1
   149   119   170    1
   150   120   121    1
   151   120   171    1
   152   120   172    1
   153   121   122    1
   154   121   173    1
   155   121   174    1
   156   122   123    1
   157   122   175    1
   158   122   176    1
   159   123   124    1
   160   123   125    1
   161   124   177    1
   162   124   178    1
   163   124   179    1
   164   125   126    2
   165   125   127    1
   166   127   128    1
   167   127   180    1
   168   127   181    1
   169   128   129    1
   170   129   130    1
   171   129   182    1
   172   129   183    1
   173   130   131    2
   174   130   132    1
   175   132   133    1
   176   132   134    1
   177   133   184    1
   178   133   185    1
   179   133   186    1
   180   134   135    1
   181   134   187    1
   182   134   188    1
   183   135   136    1
   184   135   189    1
   185   135   190    1
   186   136   137    1
   187   136   191    1
   188   136   192    1
   189   137   138    1
   190   137   142    1
   191   137   193    1
   192   138   139    1
   193   138   194    1
   194   138   195    1
   195   139   140    1
   196   139   196    1
   197   139   197    1
   198   140   141    1
   199   140   198    1
   200   140   199    1
   201   141   200    1
   202   141   201    1
   203   141   202    1
   204   142   143    1
   205   142   203    1
   206   142   204    1
   207   143   144    1
   208   143   205    1
   209   143   206    1
   210   144   145    1
   211   144   207    1
   212   144   208    1
   213   145   146    1
   214   145   209    1
   215   145   210    1
   216   146   147    1
   217   146   211    1
   218   146   212    1
   219   147   213    1
   220   147   214    1
   221   147   215    1
   222   216   217    1
   223   216   255    1
   224   216   256    1
   225   216   257    1
   226   217   218    1
   227   217   258    1
   228   217   259    1
   229   218   219    1
   230   218   260    1
   231   218   261    1
   232   219   220    1
   233   219   262    1
   234   219   263    1
   235   220   221    1
   236   220   264    1
   237   220   265    1
   238   221   222    1
   239   221   266    1
   240   221   267    1
   241   222   223    1
   242   222   227    1
   243   222   268    1
   244   223   224    1
   245   223   269    1
   246   223   270    1
   247   224   225    1
   248   224   271    1
   249   224   272    1
   250   225   226    1
   251   225   273    1
   252   225   274    1
   253   226   275    1
   254   226   276    1
   255   226   277    1
   256   227   228    1
   257   227   278    1
   258   227   279    1
   259   228   229    1
   260   228   280    1
   261   228   281    1
   262   229   230    1
   263   229   282    1
   264   229   283    1
   265   230   231    1
   266   230   232    1
   267   231   284    1
   268   231   285    1
   269   231   286    1
   270   232   233    2
   271   232   234    1
   272   234   235    1
   273   234   287    1
   274   234   288    1
   275   235   236    1
   276   236   237    1
   277   236   289    1
   278   236   290    1
   279   237   238    2
   280   237   239    1
   281   239   240    1
   282   239   241    1
   283   240   291    1
   284   240   292    1
   285   240   293    1
   286   241   242    1
   287   241   294    1
   288   241   295    1
   289   242   243    1
   290   242   296    1
   291   242   297    1
   292   243   244    1
   293   243   298    1
   294   243   299    1
   295   244   245    1
   296   244   249    1
   297   244   300    1
   298   245   246    1
   299   245   301    1
   300   245   302    1
   301   246   247    1
   302   246   303    1
   303   246   304    1
   304   247   248    1
   305   247   305    1
   306   247   306    1
   307   248   307    1
   308   248   308    1
   309   248   309    1
   310   249   250    1
   311   249   310    1
   312   249   311    1
   313   250   251    1
   314   250   312    1
   315   250   313    1
   316   251   252    1
   317   251   314    1
   318   251   315    1
   319   252   253    1
   320   252   316    1
   321   252   317    1
   322   253   254    1
   323   253   318    1
   324   253   319    1
   325   254   320    1
   326   254   321    1
   327   254   322    1
@<TRIPOS>SUBSTRUCTURE
     1 RES1      322 GROUP             0 ****  ****    0  
