@<TRIPOS>MOLECULE
tri_tri_mer_capped_0_nunpairedes_0_charge_3 Charge: 3 Unpaired_Electrons: 6 XTB_Unpaired_Electrons: 0 XTB_Charge: 3
    72    84     1     0     0
SMALL
NoCharges
****
Generated from Architector

@<TRIPOS>ATOM
     1 Eu1      -0.0900    0.3703   -0.1450   Eu        1 RES1   0.0000
     2 C1        2.3270    2.0622   -2.1860   C.3       1 RES1   0.0000
     3 C2        1.7831    1.1425   -3.2747   C.3       1 RES1   0.0000
     4 C3        2.2420    1.5927   -4.6697   C.3       1 RES1   0.0000
     5 O1        0.3118    1.0571   -3.1087   O.3       1 RES1   0.0000
     6 C4       -0.1602   -0.2327   -3.6259   C.3       1 RES1   0.0000
     7 C5       -0.2764   -0.2872   -5.1415   C.3       1 RES1   0.0000
     8 C6       -1.5230   -0.5169   -2.9795   C.3       1 RES1   0.0000
     9 C7        0.9597   -1.0626   -3.0430   C.ar      1 RES1   0.0000
    10 N1        0.7920   -2.1121   -2.2909   N.ar      1 RES1   0.0000
    11 C8        1.8111   -2.3504   -1.4272   C.ar      1 RES1   0.0000
    12 C9        1.2392   -3.0424   -0.2552   C.ar      1 RES1   0.0000
    13 C10       1.5607   -4.2817    0.2598   C.ar      1 RES1   0.0000
    14 C11       0.6705   -4.8556    1.1588   C.ar      1 RES1   0.0000
    15 C12      -0.5313   -4.2185    1.4263   C.ar      1 RES1   0.0000
    16 C13      -0.7601   -2.9534    0.8929   C.ar      1 RES1   0.0000
    17 C14      -2.0506   -2.2638    1.0697   C.ar      1 RES1   0.0000
    18 C15      -3.2441   -2.9451    1.2838   C.ar      1 RES1   0.0000
    19 C16      -4.4020   -2.2162    1.5136   C.ar      1 RES1   0.0000
    20 C17      -4.3236   -0.8341    1.6858   C.ar      1 RES1   0.0000
    21 C18      -3.1068   -0.2318    1.4438   C.ar      1 RES1   0.0000
    22 C19      -2.6196    1.1272    1.7893   C.ar      1 RES1   0.0000
    23 N2       -2.2485    1.2677    3.0637   N.ar      1 RES1   0.0000
    24 N3       -1.1229    1.8664    3.2890   N.ar      1 RES1   0.0000
    25 C20      -0.5171    2.5166    2.3302   C.ar      1 RES1   0.0000
    26 C21      -1.2459    2.7842    1.1464   C.ar      1 RES1   0.0000
    27 N4       -2.1685    1.9068    0.7903   N.ar      1 RES1   0.0000
    28 C22      -0.4575    3.7166    0.2861   C.3       1 RES1   0.0000
    29 C23      -0.5750    5.1883    0.6852   C.3       1 RES1   0.0000
    30 C24      -0.7792    3.5490   -1.1924   C.3       1 RES1   0.0000
    31 O2        0.8577    3.1422    0.6222   O.3       1 RES1   0.0000
    32 C25       0.9343    2.8652    2.0680   C.3       1 RES1   0.0000
    33 C26       1.8512    1.6404    2.2153   C.3       1 RES1   0.0000
    34 C27       1.4893    3.9888    2.9406   C.3       1 RES1   0.0000
    35 N5       -2.0218   -0.9193    1.0282   N.ar      1 RES1   0.0000
    36 N6        0.1605   -2.3282    0.1392   N.ar      1 RES1   0.0000
    37 N7        2.9654   -1.7289   -1.4212   N.ar      1 RES1   0.0000
    38 N8        3.1434   -0.6796   -2.1780   N.ar      1 RES1   0.0000
    39 C28       2.1330   -0.2786   -2.9184   C.ar      1 RES1   0.0000
    40 H1        2.0054    3.0865   -2.3544   H         1 RES1   0.0000
    41 H2        3.4172    2.0244   -2.1988   H         1 RES1   0.0000
    42 H3        2.0016    1.7147   -1.1702   H         1 RES1   0.0000
    43 H4        1.4300    2.1070   -5.1792   H         1 RES1   0.0000
    44 H5        2.5713    0.7450   -5.2655   H         1 RES1   0.0000
    45 H6        3.0802    2.2754   -4.5828   H         1 RES1   0.0000
    46 H7       -0.9571    0.4766   -5.5002   H         1 RES1   0.0000
    47 H8       -0.6617   -1.2557   -5.4320   H         1 RES1   0.0000
    48 H9        0.6789   -0.1645   -5.6304   H         1 RES1   0.0000
    49 H10      -2.1224    0.3950   -3.0260   H         1 RES1   0.0000
    50 H11      -1.4343   -0.8953   -1.9328   H         1 RES1   0.0000
    51 H12      -2.0453   -1.2911   -3.5400   H         1 RES1   0.0000
    52 H13       2.4385   -4.8127   -0.0624   H         1 RES1   0.0000
    53 H14       0.8763   -5.8260    1.5759   H         1 RES1   0.0000
    54 H15      -1.2708   -4.6912    2.0532   H         1 RES1   0.0000
    55 H16      -3.2881   -4.0186    1.2645   H         1 RES1   0.0000
    56 H17      -5.3456   -2.7366    1.5926   H         1 RES1   0.0000
    57 H18      -5.1796   -0.2637    2.0035   H         1 RES1   0.0000
    58 H19      -0.7149    5.3187    1.7534   H         1 RES1   0.0000
    59 H20      -1.4265    5.6297    0.1848   H         1 RES1   0.0000
    60 H21       0.3189    5.7147    0.3585   H         1 RES1   0.0000
    61 H22      -1.8121    3.8523   -1.3821   H         1 RES1   0.0000
    62 H23      -0.6544    2.4961   -1.5336   H         1 RES1   0.0000
    63 H24      -0.1368    4.2090   -1.7656   H         1 RES1   0.0000
    64 H25       1.7559    1.2116    3.2152   H         1 RES1   0.0000
    65 H26       2.8968    1.9145    2.0681   H         1 RES1   0.0000
    66 H27       1.5935    0.8509    1.4509   H         1 RES1   0.0000
    67 H28       1.4005    3.7039    3.9870   H         1 RES1   0.0000
    68 H29       0.9645    4.9263    2.8074   H         1 RES1   0.0000
    69 H30       2.5418    4.1414    2.7276   H         1 RES1   0.0000
    70 O3        0.0768   -0.6009    2.6803   O.3       1 RES1   0.0000
    71 H31      -0.5690   -0.4418    3.3921   H         1 RES1   0.0000
    72 H32       0.6544   -1.2920    3.0324   H         1 RES1   0.0000
@<TRIPOS>BOND
     1     1     5    1
     2     1    10    1
     3     1    23    1
     4     1    24    1
     5     1    27    1
     6     1    31    1
     7     1    35    1
     8     1    36    1
     9     1    70    1
    10     2     3    1
    11     2    40    1
    12     2    41    1
    13     2    42    1
    14     3     4    1
    15     3     5    1
    16     3    39    1
    17     4    43    1
    18     4    44    1
    19     4    45    1
    20     5     6    1
    21     6     7    1
    22     6     8    1
    23     6     9    1
    24     7    46    1
    25     7    47    1
    26     7    48    1
    27     8    49    1
    28     8    50    1
    29     8    51    1
    30     9    10    1
    31     9    39    2
    32    10    11    2
    33    11    12    1
    34    11    37    1
    35    12    13    1
    36    12    36    2
    37    13    14    2
    38    13    52    1
    39    14    15    1
    40    14    53    1
    41    15    16    2
    42    15    54    1
    43    16    17    1
    44    16    36    1
    45    17    18    1
    46    17    35    2
    47    18    19    2
    48    18    55    1
    49    19    20    1
    50    19    56    1
    51    20    21    2
    52    20    57    1
    53    21    22    1
    54    21    35    1
    55    22    23    1
    56    22    27    2
    57    23    24    2
    58    24    25    1
    59    25    26    2
    60    25    32    1
    61    26    27    1
    62    26    28    1
    63    28    29    1
    64    28    30    1
    65    28    31    1
    66    29    58    1
    67    29    59    1
    68    29    60    1
    69    30    61    1
    70    30    62    1
    71    30    63    1
    72    31    32    1
    73    32    33    1
    74    32    34    1
    75    33    64    1
    76    33    65    1
    77    33    66    1
    78    34    67    1
    79    34    68    1
    80    34    69    1
    81    37    38    2
    82    38    39    1
    83    70    71    1
    84    70    72    1
@<TRIPOS>SUBSTRUCTURE
     1 RES1       72 GROUP             0 ****  ****    0  
