@<TRIPOS>MOLECULE
tri_tri_mer_capped_0_nunpairedes_0_charge_3 Charge: 3 Unpaired_Electrons: 6 XTB_Unpaired_Electrons: 0 XTB_Charge: 3
   199   207     1     0     0
SMALL
NoCharges
****
Generated from Architector

@<TRIPOS>ATOM
     1 Eu1       0.1731    0.0141    0.1823   Eu        1 RES1   0.0000
     2 C1        4.6183   -3.6540    3.8257   C.3       1 RES1   0.0000
     3 C2        5.3687   -2.3300    3.8731   C.3       1 RES1   0.0000
     4 C3        4.4079   -1.1505    4.0007   C.3       1 RES1   0.0000
     5 C4        5.1223    0.1728    4.2900   C.3       1 RES1   0.0000
     6 C5        5.9695    0.7455    3.1517   C.3       1 RES1   0.0000
     7 C6        5.2050    1.5377    2.0817   C.3       1 RES1   0.0000
     8 N1        4.4141    0.6949    1.1968   N.am      1 RES1   0.0000
     9 C7        5.1684   -0.1844    0.3080   C.3       1 RES1   0.0000
    10 C8        6.2015    0.5032   -0.5989   C.3       1 RES1   0.0000
    11 C9        5.7585    0.4908   -2.0596   C.3       1 RES1   0.0000
    12 C10       4.7570    1.6114   -2.3055   C.3       1 RES1   0.0000
    13 C11       4.1635    1.5699   -3.7050   C.3       1 RES1   0.0000
    14 C12       3.3519    0.2967   -3.9012   C.3       1 RES1   0.0000
    15 C13       3.1094    0.5094    1.3301   C.2       1 RES1   0.0000
    16 O1        2.4448   -0.3185    0.6764   O.2       1 RES1   0.0000
    17 C14       2.3500    1.4119    2.3141   C.3       1 RES1   0.0000
    18 O2        0.9459    1.1543    2.2360   O.3       1 RES1   0.0000
    19 C15       0.3691    0.6003    3.4195   C.3       1 RES1   0.0000
    20 C16      -0.2010   -0.8088    3.1735   C.2       1 RES1   0.0000
    21 O3       -0.0253   -1.3467    2.0635   O.2       1 RES1   0.0000
    22 N2       -0.9032   -1.3648    4.1530   N.am      1 RES1   0.0000
    23 C17      -1.5782   -2.6364    3.8926   C.3       1 RES1   0.0000
    24 C18      -2.1826   -3.2416    5.1530   C.3       1 RES1   0.0000
    25 C19      -3.1113   -2.2357    5.8250   C.3       1 RES1   0.0000
    26 C20      -2.3381   -0.9589    6.1945   C.3       1 RES1   0.0000
    27 C21      -0.9586   -0.8515    5.5175   C.3       1 RES1   0.0000
    28 H1        5.3063   -4.4789    3.6611   H         1 RES1   0.0000
    29 H2        4.1017   -3.8313    4.7660   H         1 RES1   0.0000
    30 H3        3.8821   -3.6539    3.0230   H         1 RES1   0.0000
    31 H4        6.0471   -2.3360    4.7249   H         1 RES1   0.0000
    32 H5        5.9788   -2.2335    2.9753   H         1 RES1   0.0000
    33 H6        3.7861   -1.0953    3.1033   H         1 RES1   0.0000
    34 H7        3.7417   -1.3544    4.8412   H         1 RES1   0.0000
    35 H8        4.4019    0.9308    4.6101   H         1 RES1   0.0000
    36 H9        5.7919    0.0056    5.1350   H         1 RES1   0.0000
    37 H10       6.6937    1.4421    3.5757   H         1 RES1   0.0000
    38 H11       6.5500   -0.0542    2.6918   H         1 RES1   0.0000
    39 H12       4.5760    2.3022    2.5402   H         1 RES1   0.0000
    40 H13       5.9482    2.0563    1.4732   H         1 RES1   0.0000
    41 H14       5.6630   -0.9412    0.9199   H         1 RES1   0.0000
    42 H15       4.4321   -0.7153   -0.2963   H         1 RES1   0.0000
    43 H16       6.3840    1.5398   -0.3114   H         1 RES1   0.0000
    44 H17       7.1535   -0.0151   -0.4981   H         1 RES1   0.0000
    45 H18       6.6230    0.6173   -2.7099   H         1 RES1   0.0000
    46 H19       5.3107   -0.4762   -2.2915   H         1 RES1   0.0000
    47 H20       3.9498    1.5266   -1.5720   H         1 RES1   0.0000
    48 H21       5.2640    2.5653   -2.1530   H         1 RES1   0.0000
    49 H22       3.5304    2.4451   -3.8603   H         1 RES1   0.0000
    50 H23       4.9582    1.6218   -4.4469   H         1 RES1   0.0000
    51 H24       2.7969    0.0638   -2.9913   H         1 RES1   0.0000
    52 H25       2.6716    0.4115   -4.7440   H         1 RES1   0.0000
    53 H26       3.9950   -0.5436   -4.1252   H         1 RES1   0.0000
    54 H27       2.6997    1.2432    3.3374   H         1 RES1   0.0000
    55 H28       2.5216    2.4634    2.0459   H         1 RES1   0.0000
    56 H29       1.1100    0.5711    4.2287   H         1 RES1   0.0000
    57 H30      -0.4694    1.2538    3.6980   H         1 RES1   0.0000
    58 H31      -2.3756   -2.4407    3.1644   H         1 RES1   0.0000
    59 H32      -0.8726   -3.3307    3.4321   H         1 RES1   0.0000
    60 H33      -2.7579   -4.1219    4.8676   H         1 RES1   0.0000
    61 H34      -1.4103   -3.5728    5.8494   H         1 RES1   0.0000
    62 H35      -3.9331   -2.0006    5.1401   H         1 RES1   0.0000
    63 H36      -3.5579   -2.6809    6.7159   H         1 RES1   0.0000
    64 H37      -2.9357   -0.0740    5.9651   H         1 RES1   0.0000
    65 H38      -2.1594   -0.9323    7.2706   H         1 RES1   0.0000
    66 H39      -0.6724    0.1991    5.5282   H         1 RES1   0.0000
    67 H40      -0.2277   -1.4086    6.1134   H         1 RES1   0.0000
    68 C22       7.5452   -2.8801   -0.5219   C.3       1 RES1   0.0000
    69 C23       6.7933   -4.1379   -0.1135   C.3       1 RES1   0.0000
    70 C24       5.3011   -3.9211    0.1369   C.3       1 RES1   0.0000
    71 C25       4.4407   -3.7372   -1.1155   C.3       1 RES1   0.0000
    72 C26       2.9556   -3.6653   -0.7307   C.3       1 RES1   0.0000
    73 C27       1.9647   -4.1153   -1.8195   C.3       1 RES1   0.0000
    74 N3        1.4106   -3.1022   -2.7384   N.am      1 RES1   0.0000
    75 C28       1.1743   -3.5392   -4.1228   C.3       1 RES1   0.0000
    76 C29       2.0833   -3.0070   -5.2386   C.3       1 RES1   0.0000
    77 C30       3.5200   -3.5208   -5.2212   C.3       1 RES1   0.0000
    78 C31       4.2550   -3.1400   -6.5088   C.3       1 RES1   0.0000
    79 C32       4.6372   -1.6659   -6.6050   C.3       1 RES1   0.0000
    80 C33       5.8238   -1.3137   -5.7162   C.3       1 RES1   0.0000
    81 C34       0.8004   -2.0377   -2.2377   C.2       1 RES1   0.0000
    82 O4        0.6224   -1.8563   -1.0164   O.2       1 RES1   0.0000
    83 C35       0.2653   -0.9487   -3.1890   C.3       1 RES1   0.0000
    84 O5        0.1347    0.2483   -2.4127   O.3       1 RES1   0.0000
    85 C36       0.4933    1.5081   -2.9930   C.3       1 RES1   0.0000
    86 C37       1.2726    2.2857   -1.9072   C.2       1 RES1   0.0000
    87 O6        1.4894    1.6753   -0.8395   O.2       1 RES1   0.0000
    88 N4        1.7327    3.5116   -2.1108   N.am      1 RES1   0.0000
    89 C38       2.7063    4.0600   -1.1677   C.3       1 RES1   0.0000
    90 C39       2.3379    5.4539   -0.6863   C.3       1 RES1   0.0000
    91 C40       2.1778    6.3768   -1.8890   C.3       1 RES1   0.0000
    92 C41       1.1085    5.7930   -2.8082   C.3       1 RES1   0.0000
    93 C42       1.4798    4.3720   -3.2547   C.3       1 RES1   0.0000
    94 H41       8.5872   -3.1110   -0.7269   H         1 RES1   0.0000
    95 H42       7.5221   -2.1454    0.2810   H         1 RES1   0.0000
    96 H43       7.1146   -2.4393   -1.4167   H         1 RES1   0.0000
    97 H44       7.2311   -4.5087    0.8136   H         1 RES1   0.0000
    98 H45       6.9365   -4.9044   -0.8746   H         1 RES1   0.0000
    99 H46       5.1673   -3.0669    0.7996   H         1 RES1   0.0000
   100 H47       4.9276   -4.7955    0.6694   H         1 RES1   0.0000
   101 H48       4.6101   -4.5934   -1.7688   H         1 RES1   0.0000
   102 H49       4.7425   -2.8446   -1.6629   H         1 RES1   0.0000
   103 H50       2.6958   -2.6750   -0.3497   H         1 RES1   0.0000
   104 H51       2.8120   -4.3668    0.0958   H         1 RES1   0.0000
   105 H52       1.1233   -4.6041   -1.3175   H         1 RES1   0.0000
   106 H53       2.4614   -4.8545   -2.4464   H         1 RES1   0.0000
   107 H54       0.1378   -3.3013   -4.3882   H         1 RES1   0.0000
   108 H55       1.2588   -4.6270   -4.1197   H         1 RES1   0.0000
   109 H56       2.0760   -1.9190   -5.2590   H         1 RES1   0.0000
   110 H57       1.6235   -3.3456   -6.1702   H         1 RES1   0.0000
   111 H58       3.5001   -4.6083   -5.1474   H         1 RES1   0.0000
   112 H59       4.0449   -3.1360   -4.3471   H         1 RES1   0.0000
   113 H60       3.6236   -3.3965   -7.3596   H         1 RES1   0.0000
   114 H61       5.1601   -3.7385   -6.5846   H         1 RES1   0.0000
   115 H62       3.7789   -1.0394   -6.3627   H         1 RES1   0.0000
   116 H63       4.8977   -1.4405   -7.6373   H         1 RES1   0.0000
   117 H64       5.6862   -1.6637   -4.6946   H         1 RES1   0.0000
   118 H65       5.9842   -0.2385   -5.6933   H         1 RES1   0.0000
   119 H66       6.7267   -1.7808   -6.0955   H         1 RES1   0.0000
   120 H67      -0.7263   -1.2622   -3.5515   H         1 RES1   0.0000
   121 H68       0.9355   -0.7980   -4.0321   H         1 RES1   0.0000
   122 H69      -0.4154    2.0387   -3.3025   H         1 RES1   0.0000
   123 H70       1.1249    1.3643   -3.8709   H         1 RES1   0.0000
   124 H71       3.6651    4.1142   -1.6880   H         1 RES1   0.0000
   125 H72       2.7905    3.3618   -0.3369   H         1 RES1   0.0000
   126 H73       3.1324    5.8202   -0.0385   H         1 RES1   0.0000
   127 H74       1.4166    5.4223   -0.1022   H         1 RES1   0.0000
   128 H75       3.1283    6.4746   -2.4211   H         1 RES1   0.0000
   129 H76       1.8862    7.3762   -1.5670   H         1 RES1   0.0000
   130 H77       1.0026    6.4117   -3.6989   H         1 RES1   0.0000
   131 H78       0.1512    5.7854   -2.2846   H         1 RES1   0.0000
   132 H79       2.3891    4.4436   -3.8604   H         1 RES1   0.0000
   133 H80       0.6886    3.9490   -3.8736   H         1 RES1   0.0000
   134 C43      -3.6866    0.5119   -6.3890   C.3       1 RES1   0.0000
   135 C44      -4.2861    1.9074   -6.2637   C.3       1 RES1   0.0000
   136 C45      -5.5686    1.9698   -5.4324   C.3       1 RES1   0.0000
   137 C46      -5.5025    1.4558   -3.9897   C.3       1 RES1   0.0000
   138 C47      -4.9406    2.4659   -2.9824   C.3       1 RES1   0.0000
   139 C48      -3.4460    2.7361   -3.2280   C.3       1 RES1   0.0000
   140 N5       -2.5661    2.7979   -2.0676   N.am      1 RES1   0.0000
   141 C49      -2.0050    4.1062   -1.7368   C.3       1 RES1   0.0000
   142 C50      -2.9651    4.9618   -0.9137   C.3       1 RES1   0.0000
   143 C51      -3.1957    4.3825    0.4740   C.3       1 RES1   0.0000
   144 C52      -4.0650    5.3100    1.3129   C.3       1 RES1   0.0000
   145 C53      -4.4866    4.6997    2.6429   C.3       1 RES1   0.0000
   146 C54      -3.3196    4.4840    3.5967   C.3       1 RES1   0.0000
   147 C55      -2.1452    1.7318   -1.3951   C.2       1 RES1   0.0000
   148 O7       -1.2426    1.7873   -0.5401   O.2       1 RES1   0.0000
   149 C56      -2.7531    0.3705   -1.7460   C.3       1 RES1   0.0000
   150 O8       -2.1397   -0.6847   -1.0080   O.3       1 RES1   0.0000
   151 C57      -3.0030   -1.2918   -0.0516   C.3       1 RES1   0.0000
   152 C58      -3.0173   -0.4373    1.2276   C.2       1 RES1   0.0000
   153 O9       -1.9963    0.2389    1.4539   O.2       1 RES1   0.0000
   154 N6       -4.0885   -0.3967    2.0107   N.am      1 RES1   0.0000
   155 C59      -5.1146   -1.4307    2.0262   C.3       1 RES1   0.0000
   156 C60      -6.4933   -0.9010    2.4140   C.3       1 RES1   0.0000
   157 C61      -6.4143   -0.1602    3.7458   C.3       1 RES1   0.0000
   158 C62      -5.4357    0.9974    3.5681   C.3       1 RES1   0.0000
   159 C63      -4.0522    0.4994    3.1660   C.3       1 RES1   0.0000
   160 H81      -2.8234    0.5346   -7.0504   H         1 RES1   0.0000
   161 H82      -4.4161   -0.1774   -6.8038   H         1 RES1   0.0000
   162 H83      -3.3622    0.1114   -5.4276   H         1 RES1   0.0000
   163 H84      -4.5371    2.2582   -7.2641   H         1 RES1   0.0000
   164 H85      -3.5368    2.5992   -5.8794   H         1 RES1   0.0000
   165 H86      -6.3271    1.3846   -5.9512   H         1 RES1   0.0000
   166 H87      -5.9091    3.0046   -5.4200   H         1 RES1   0.0000
   167 H88      -4.9334    0.5252   -3.9555   H         1 RES1   0.0000
   168 H89      -6.5205    1.2161   -3.6832   H         1 RES1   0.0000
   169 H90      -5.1023    2.1130   -1.9608   H         1 RES1   0.0000
   170 H91      -5.5013    3.3950   -3.0828   H         1 RES1   0.0000
   171 H92      -3.3291    3.6938   -3.7341   H         1 RES1   0.0000
   172 H93      -3.0686    1.9590   -3.8947   H         1 RES1   0.0000
   173 H94      -1.7748    4.6191   -2.6738   H         1 RES1   0.0000
   174 H95      -1.0802    3.9375   -1.1766   H         1 RES1   0.0000
   175 H96      -3.9181    5.0571   -1.4352   H         1 RES1   0.0000
   176 H97      -2.5382    5.9619   -0.8265   H         1 RES1   0.0000
   177 H98      -2.2304    4.2246    0.9536   H         1 RES1   0.0000
   178 H99      -3.6755    3.4062    0.3773   H         1 RES1   0.0000
   179 H100     -4.9571    5.5578    0.7394   H         1 RES1   0.0000
   180 H101     -3.5269    6.2380    1.4984   H         1 RES1   0.0000
   181 H102     -4.9870    3.7493    2.4557   H         1 RES1   0.0000
   182 H103     -5.2079    5.3636    3.1169   H         1 RES1   0.0000
   183 H104     -2.5972    3.7766    3.1918   H         1 RES1   0.0000
   184 H105     -3.6727    4.1030    4.5518   H         1 RES1   0.0000
   185 H106     -2.8072    5.4245    3.7790   H         1 RES1   0.0000
   186 H107     -2.5749    0.1454   -2.8036   H         1 RES1   0.0000
   187 H108     -3.8339    0.3938   -1.5807   H         1 RES1   0.0000
   188 H109     -2.5666   -2.2818    0.1426   H         1 RES1   0.0000
   189 H110     -3.9979   -1.4060   -0.4953   H         1 RES1   0.0000
   190 H111     -4.8185   -2.1868    2.7641   H         1 RES1   0.0000
   191 H112     -5.1612   -1.9155    1.0525   H         1 RES1   0.0000
   192 H113     -7.1691   -1.7542    2.4750   H         1 RES1   0.0000
   193 H114     -6.8761   -0.2271    1.6430   H         1 RES1   0.0000
   194 H115     -6.1024   -0.8337    4.5512   H         1 RES1   0.0000
   195 H116     -7.3971    0.2204    4.0224   H         1 RES1   0.0000
   196 H117     -5.3399    1.5656    4.4929   H         1 RES1   0.0000
   197 H118     -5.8211    1.6741    2.8030   H         1 RES1   0.0000
   198 H119     -3.6070   -0.0425    4.0007   H         1 RES1   0.0000
   199 H120     -3.4041    1.3410    2.9097   H         1 RES1   0.0000
@<TRIPOS>BOND
     1     1    16    1
     2     1    18    1
     3     1    21    1
     4     1    82    1
     5     1    84    1
     6     1    87    1
     7     1   148    1
     8     1   150    1
     9     1   153    1
    10     2     3    1
    11     2    28    1
    12     2    29    1
    13     2    30    1
    14     3     4    1
    15     3    31    1
    16     3    32    1
    17     4     5    1
    18     4    33    1
    19     4    34    1
    20     5     6    1
    21     5    35    1
    22     5    36    1
    23     6     7    1
    24     6    37    1
    25     6    38    1
    26     7     8    1
    27     7    39    1
    28     7    40    1
    29     8     9    1
    30     8    15    1
    31     9    10    1
    32     9    41    1
    33     9    42    1
    34    10    11    1
    35    10    43    1
    36    10    44    1
    37    11    12    1
    38    11    45    1
    39    11    46    1
    40    12    13    1
    41    12    47    1
    42    12    48    1
    43    13    14    1
    44    13    49    1
    45    13    50    1
    46    14    51    1
    47    14    52    1
    48    14    53    1
    49    15    16    2
    50    15    17    1
    51    17    18    1
    52    17    54    1
    53    17    55    1
    54    18    19    1
    55    19    20    1
    56    19    56    1
    57    19    57    1
    58    20    21    2
    59    20    22    1
    60    22    23    1
    61    22    27    1
    62    23    24    1
    63    23    58    1
    64    23    59    1
    65    24    25    1
    66    24    60    1
    67    24    61    1
    68    25    26    1
    69    25    62    1
    70    25    63    1
    71    26    27    1
    72    26    64    1
    73    26    65    1
    74    27    66    1
    75    27    67    1
    76    68    69    1
    77    68    94    1
    78    68    95    1
    79    68    96    1
    80    69    70    1
    81    69    97    1
    82    69    98    1
    83    70    71    1
    84    70    99    1
    85    70   100    1
    86    71    72    1
    87    71   101    1
    88    71   102    1
    89    72    73    1
    90    72   103    1
    91    72   104    1
    92    73    74    1
    93    73   105    1
    94    73   106    1
    95    74    75    1
    96    74    81    1
    97    75    76    1
    98    75   107    1
    99    75   108    1
   100    76    77    1
   101    76   109    1
   102    76   110    1
   103    77    78    1
   104    77   111    1
   105    77   112    1
   106    78    79    1
   107    78   113    1
   108    78   114    1
   109    79    80    1
   110    79   115    1
   111    79   116    1
   112    80   117    1
   113    80   118    1
   114    80   119    1
   115    81    82    2
   116    81    83    1
   117    83    84    1
   118    83   120    1
   119    83   121    1
   120    84    85    1
   121    85    86    1
   122    85   122    1
   123    85   123    1
   124    86    87    2
   125    86    88    1
   126    88    89    1
   127    88    93    1
   128    89    90    1
   129    89   124    1
   130    89   125    1
   131    90    91    1
   132    90   126    1
   133    90   127    1
   134    91    92    1
   135    91   128    1
   136    91   129    1
   137    92    93    1
   138    92   130    1
   139    92   131    1
   140    93   132    1
   141    93   133    1
   142   134   135    1
   143   134   160    1
   144   134   161    1
   145   134   162    1
   146   135   136    1
   147   135   163    1
   148   135   164    1
   149   136   137    1
   150   136   165    1
   151   136   166    1
   152   137   138    1
   153   137   167    1
   154   137   168    1
   155   138   139    1
   156   138   169    1
   157   138   170    1
   158   139   140    1
   159   139   171    1
   160   139   172    1
   161   140   141    1
   162   140   147    1
   163   141   142    1
   164   141   173    1
   165   141   174    1
   166   142   143    1
   167   142   175    1
   168   142   176    1
   169   143   144    1
   170   143   177    1
   171   143   178    1
   172   144   145    1
   173   144   179    1
   174   144   180    1
   175   145   146    1
   176   145   181    1
   177   145   182    1
   178   146   183    1
   179   146   184    1
   180   146   185    1
   181   147   148    2
   182   147   149    1
   183   149   150    1
   184   149   186    1
   185   149   187    1
   186   150   151    1
   187   151   152    1
   188   151   188    1
   189   151   189    1
   190   152   153    2
   191   152   154    1
   192   154   155    1
   193   154   159    1
   194   155   156    1
   195   155   190    1
   196   155   191    1
   197   156   157    1
   198   156   192    1
   199   156   193    1
   200   157   158    1
   201   157   194    1
   202   157   195    1
   203   158   159    1
   204   158   196    1
   205   158   197    1
   206   159   198    1
   207   159   199    1
@<TRIPOS>SUBSTRUCTURE
     1 RES1      199 GROUP             0 ****  ****    0  
