@<TRIPOS>MOLECULE
am_c3_9H2O_c0_0_nunpairedes_0_charge_3 Charge: 3 Unpaired_Electrons: 6 XTB_Unpaired_Electrons: 0 XTB_Charge: 3
   415   420     1     0     0
SMALL
NoCharges
****
Generated from Architector

@<TRIPOS>ATOM
     1 Eu1      -0.2741    0.2216    0.1799   Eu        1 RES1   0.0000
     2 C1       -7.5188   -3.1909   -1.0211   C.3       1 RES1   0.0000
     3 C2       -7.5288   -2.9755    0.4848   C.3       1 RES1   0.0000
     4 C3       -6.2520   -2.3257    1.0220   C.3       1 RES1   0.0000
     5 C4       -5.0211   -3.1980    0.7782   C.3       1 RES1   0.0000
     6 C5       -3.7416   -2.8819    1.5749   C.3       1 RES1   0.0000
     7 C6       -3.9809   -2.7304    3.0834   C.3       1 RES1   0.0000
     8 C7       -4.4652   -4.0220    3.7376   C.3       1 RES1   0.0000
     9 C8       -2.7574   -1.8142    0.9931   C.3       1 RES1   0.0000
    10 N1       -3.1050   -0.4541    0.5093   N.4       1 RES1   0.0000
    11 C9       -3.7217   -0.4810   -0.8196   C.3       1 RES1   0.0000
    12 C10      -2.7254   -0.8213   -1.9283   C.2       1 RES1   0.0000
    13 O1       -1.4972   -0.7815   -1.6755   O.2       1 RES1   0.0000
    14 N2       -3.1797   -1.1482   -3.1376   N.am      1 RES1   0.0000
    15 C11      -4.5756   -1.4676   -3.4435   C.3       1 RES1   0.0000
    16 C12      -5.3768   -0.3968   -4.2344   C.3       1 RES1   0.0000
    17 C13      -6.6116    0.0561   -3.4324   C.3       1 RES1   0.0000
    18 C14      -7.5708    0.9793   -4.1826   C.3       1 RES1   0.0000
    19 C15      -5.7526   -0.8930   -5.6401   C.3       1 RES1   0.0000
    20 C16      -6.6932   -2.0964   -5.6608   C.3       1 RES1   0.0000
    21 C17      -7.3975   -2.2611   -7.0069   C.3       1 RES1   0.0000
    22 C18      -6.4396   -2.5096   -8.1636   C.3       1 RES1   0.0000
    23 C19      -2.2320   -1.4940   -4.2149   C.3       1 RES1   0.0000
    24 C20      -1.2558   -0.3932   -4.6629   C.3       1 RES1   0.0000
    25 C21      -0.3450   -0.8839   -5.8005   C.3       1 RES1   0.0000
    26 C22       0.7099   -1.8958   -5.3698   C.3       1 RES1   0.0000
    27 C23      -2.0043    0.8927   -5.0421   C.3       1 RES1   0.0000
    28 C24      -2.7234    0.9586   -6.3988   C.3       1 RES1   0.0000
    29 C25      -1.9433    1.6759   -7.5012   C.3       1 RES1   0.0000
    30 C26      -2.8613    2.0808   -8.6474   C.3       1 RES1   0.0000
    31 C27      -3.8776    0.3468    1.4682   C.3       1 RES1   0.0000
    32 C28      -3.2077    1.7000    1.7140   C.2       1 RES1   0.0000
    33 O2       -2.1181    1.9208    1.1581   O.2       1 RES1   0.0000
    34 N3       -3.8154    2.5959    2.5190   N.am      1 RES1   0.0000
    35 C29      -4.8125    2.1863    3.5280   C.3       1 RES1   0.0000
    36 C30      -6.3048    1.9417    3.1745   C.3       1 RES1   0.0000
    37 C31      -6.7046    0.5555    3.7141   C.3       1 RES1   0.0000
    38 C32      -8.0389    0.0187    3.2165   C.3       1 RES1   0.0000
    39 C33      -7.1869    3.0067    3.8536   C.3       1 RES1   0.0000
    40 C34      -7.0010    4.4418    3.3673   C.3       1 RES1   0.0000
    41 C35      -7.7953    5.4607    4.1931   C.3       1 RES1   0.0000
    42 C36      -7.2167    5.6899    5.5833   C.3       1 RES1   0.0000
    43 C37      -3.0618    3.8174    2.8629   C.3       1 RES1   0.0000
    44 C38      -3.3038    5.1609    2.1421   C.3       1 RES1   0.0000
    45 C39      -2.6310    5.1812    0.7703   C.3       1 RES1   0.0000
    46 C40      -2.9595    6.4189   -0.0492   C.3       1 RES1   0.0000
    47 C41      -2.6720    6.2599    3.0314   C.3       1 RES1   0.0000
    48 C42      -3.6115    7.2476    3.7351   C.3       1 RES1   0.0000
    49 C43      -4.0487    8.4430    2.8757   C.3       1 RES1   0.0000
    50 C44      -5.3883    8.2541    2.1772   C.3       1 RES1   0.0000
    51 H1       -8.4931   -3.5330   -1.3558   H         1 RES1   0.0000
    52 H2       -6.7847   -3.9370   -1.3154   H         1 RES1   0.0000
    53 H3       -7.3008   -2.2553   -1.5312   H         1 RES1   0.0000
    54 H4       -7.6813   -3.9325    0.9833   H         1 RES1   0.0000
    55 H5       -8.3748   -2.3373    0.7415   H         1 RES1   0.0000
    56 H6       -6.3951   -2.1815    2.0907   H         1 RES1   0.0000
    57 H7       -6.1396   -1.3380    0.5705   H         1 RES1   0.0000
    58 H8       -4.7662   -3.2085   -0.2830   H         1 RES1   0.0000
    59 H9       -5.3023   -4.2207    1.0364   H         1 RES1   0.0000
    60 H10      -3.1319   -3.7924    1.4845   H         1 RES1   0.0000
    61 H11      -4.7104   -1.9500    3.2970   H         1 RES1   0.0000
    62 H12      -3.0361   -2.4480    3.5543   H         1 RES1   0.0000
    63 H13      -5.4644   -4.2787    3.4021   H         1 RES1   0.0000
    64 H14      -4.4971   -3.9083    4.8199   H         1 RES1   0.0000
    65 H15      -3.7990   -4.8505    3.5089   H         1 RES1   0.0000
    66 H16      -2.3022   -2.2845    0.1248   H         1 RES1   0.0000
    67 H17      -1.9777   -1.6758    1.7623   H         1 RES1   0.0000
    68 H18      -4.1025    0.5144   -1.0406   H         1 RES1   0.0000
    69 H19      -4.5641   -1.1776   -0.8322   H         1 RES1   0.0000
    70 H20      -5.1058   -1.6993   -2.5208   H         1 RES1   0.0000
    71 H21      -4.5677   -2.3903   -4.0269   H         1 RES1   0.0000
    72 H22      -4.7361    0.4787   -4.3626   H         1 RES1   0.0000
    73 H23      -6.2573    0.5709   -2.5340   H         1 RES1   0.0000
    74 H24      -7.1765   -0.8167   -3.1036   H         1 RES1   0.0000
    75 H25      -7.0462    1.7788   -4.6985   H         1 RES1   0.0000
    76 H26      -8.2634    1.4279   -3.4732   H         1 RES1   0.0000
    77 H27      -8.1600    0.4273   -4.9067   H         1 RES1   0.0000
    78 H28      -4.8390   -1.1359   -6.1845   H         1 RES1   0.0000
    79 H29      -6.2250   -0.0642   -6.1689   H         1 RES1   0.0000
    80 H30      -7.4578   -1.9816   -4.8942   H         1 RES1   0.0000
    81 H31      -6.1383   -3.0084   -5.4383   H         1 RES1   0.0000
    82 H32      -7.9886   -1.3675   -7.2119   H         1 RES1   0.0000
    83 H33      -8.0909   -3.0999   -6.9326   H         1 RES1   0.0000
    84 H34      -5.7841   -1.6575   -8.3227   H         1 RES1   0.0000
    85 H35      -6.9950   -2.6809   -9.0810   H         1 RES1   0.0000
    86 H36      -5.8317   -3.3892   -7.9658   H         1 RES1   0.0000
    87 H37      -2.8252   -1.7920   -5.0789   H         1 RES1   0.0000
    88 H38      -1.6485   -2.3512   -3.8718   H         1 RES1   0.0000
    89 H39      -0.6203   -0.1446   -3.8014   H         1 RES1   0.0000
    90 H40       0.1721   -0.0081   -6.1987   H         1 RES1   0.0000
    91 H41      -0.9437   -1.3067   -6.6081   H         1 RES1   0.0000
    92 H42       1.3133   -1.4819   -4.5639   H         1 RES1   0.0000
    93 H43       1.3636   -2.1233   -6.2070   H         1 RES1   0.0000
    94 H44       0.2648   -2.8311   -5.0422   H         1 RES1   0.0000
    95 H45      -1.2932    1.7200   -4.9895   H         1 RES1   0.0000
    96 H46      -2.7365    1.0433   -4.2501   H         1 RES1   0.0000
    97 H47      -3.6586    1.5037   -6.2573   H         1 RES1   0.0000
    98 H48      -2.9806   -0.0392   -6.7451   H         1 RES1   0.0000
    99 H49      -1.1553    1.0282   -7.8838   H         1 RES1   0.0000
   100 H50      -1.4682    2.5704   -7.0928   H         1 RES1   0.0000
   101 H51      -3.3924    1.2149   -9.0338   H         1 RES1   0.0000
   102 H52      -2.2903    2.5211   -9.4579   H         1 RES1   0.0000
   103 H53      -3.5945    2.8127   -8.3186   H         1 RES1   0.0000
   104 H54      -3.9058   -0.1849    2.4183   H         1 RES1   0.0000
   105 H55      -4.9096    0.5008    1.1530   H         1 RES1   0.0000
   106 H56      -4.8151    2.9619    4.2888   H         1 RES1   0.0000
   107 H57      -4.4325    1.2883    4.0220   H         1 RES1   0.0000
   108 H58      -6.4594    1.9649    2.0898   H         1 RES1   0.0000
   109 H59      -6.7306    0.6022    4.8035   H         1 RES1   0.0000
   110 H60      -5.9319   -0.1639    3.4410   H         1 RES1   0.0000
   111 H61      -8.8731    0.6001    3.5962   H         1 RES1   0.0000
   112 H62      -8.1654   -1.0065    3.5610   H         1 RES1   0.0000
   113 H63      -8.0787    0.0221    2.1288   H         1 RES1   0.0000
   114 H64      -6.9874    2.9657    4.9256   H         1 RES1   0.0000
   115 H65      -8.2302    2.7300    3.7169   H         1 RES1   0.0000
   116 H66      -7.3244    4.5203    2.3271   H         1 RES1   0.0000
   117 H67      -5.9479    4.7210    3.4107   H         1 RES1   0.0000
   118 H68      -8.8339    5.1355    4.2759   H         1 RES1   0.0000
   119 H69      -7.7942    6.4121    3.6566   H         1 RES1   0.0000
   120 H70      -7.3142    4.8033    6.2055   H         1 RES1   0.0000
   121 H71      -7.7351    6.5058    6.0773   H         1 RES1   0.0000
   122 H72      -6.1640    5.9571    5.5212   H         1 RES1   0.0000
   123 H73      -2.0007    3.5729    2.7477   H         1 RES1   0.0000
   124 H74      -3.2578    4.0229    3.9150   H         1 RES1   0.0000
   125 H75      -4.3745    5.3203    2.0243   H         1 RES1   0.0000
   126 H76      -2.9015    4.2914    0.2125   H         1 RES1   0.0000
   127 H77      -1.5514    5.1450    0.9285   H         1 RES1   0.0000
   128 H78      -4.0322    6.5605   -0.1227   H         1 RES1   0.0000
   129 H79      -2.5519    6.3288   -1.0514   H         1 RES1   0.0000
   130 H80      -2.5530    7.3182    0.4032   H         1 RES1   0.0000
   131 H81      -1.9794    6.8458    2.4272   H         1 RES1   0.0000
   132 H82      -2.0618    5.7738    3.7972   H         1 RES1   0.0000
   133 H83      -3.0606    7.6372    4.5923   H         1 RES1   0.0000
   134 H84      -4.4885    6.7332    4.1289   H         1 RES1   0.0000
   135 H85      -3.2716    8.6500    2.1352   H         1 RES1   0.0000
   136 H86      -4.1183    9.3248    3.5133   H         1 RES1   0.0000
   137 H87      -5.4289    7.3125    1.6357   H         1 RES1   0.0000
   138 H88      -5.5523    9.0628    1.4727   H         1 RES1   0.0000
   139 H89      -6.2010    8.2687    2.8989   H         1 RES1   0.0000
   140 C45       4.9794    6.3298    1.9708   C.3       1 RES1   0.0000
   141 C46       4.4233    6.6524    0.5883   C.3       1 RES1   0.0000
   142 C47       3.4453    5.5991    0.0438   C.3       1 RES1   0.0000
   143 C48       4.0512    4.1949    0.0276   C.3       1 RES1   0.0000
   144 C49       3.3829    3.0845   -0.8056   C.3       1 RES1   0.0000
   145 C50       3.2324    3.4345   -2.2975   C.3       1 RES1   0.0000
   146 C51       4.5262    3.3230   -3.1009   C.3       1 RES1   0.0000
   147 C52       2.1526    2.3266   -0.2103   C.3       1 RES1   0.0000
   148 N4        0.8538    2.9470    0.1385   N.4       1 RES1   0.0000
   149 C53       0.8134    3.5021    1.4911   C.3       1 RES1   0.0000
   150 C54       0.5770    2.4293    2.5677   C.2       1 RES1   0.0000
   151 O3        0.2197    1.2771    2.2397   O.2       1 RES1   0.0000
   152 N5        0.6899    2.8014    3.8535   N.am      1 RES1   0.0000
   153 C55       1.6686    3.8037    4.2829   C.3       1 RES1   0.0000
   154 C56       1.0943    5.1287    4.8275   C.3       1 RES1   0.0000
   155 C57       1.4984    6.3392    3.9748   C.3       1 RES1   0.0000
   156 C58       0.9255    7.6597    4.4840   C.3       1 RES1   0.0000
   157 C59       1.4690    5.2890    6.3080   C.3       1 RES1   0.0000
   158 C60       2.9715    5.4473    6.5459   C.3       1 RES1   0.0000
   159 C61       3.3214    5.5457    8.0311   C.3       1 RES1   0.0000
   160 C62       3.0972    4.2394    8.7813   C.3       1 RES1   0.0000
   161 C63       0.1313    1.9453    4.9157   C.3       1 RES1   0.0000
   162 C64      -1.3846    2.0860    5.1753   C.3       1 RES1   0.0000
   163 C65      -1.9519    0.8453    5.8759   C.3       1 RES1   0.0000
   164 C66      -2.2031   -0.3348    4.9443   C.3       1 RES1   0.0000
   165 C67      -1.7959    3.3357    5.9720   C.3       1 RES1   0.0000
   166 C68      -1.5062    3.3739    7.4805   C.3       1 RES1   0.0000
   167 C69      -2.7017    2.9958    8.3648   C.3       1 RES1   0.0000
   168 C70      -2.5886    3.6253    9.7462   C.3       1 RES1   0.0000
   169 C71       0.3142    3.8353   -0.9132   C.3       1 RES1   0.0000
   170 C72      -0.8817    3.1645   -1.5992   C.2       1 RES1   0.0000
   171 O4       -1.0534    1.9505   -1.3499   O.2       1 RES1   0.0000
   172 N6       -1.7345    3.8408   -2.3902   N.am      1 RES1   0.0000
   173 C73      -1.5608    4.9849   -3.3101   C.3       1 RES1   0.0000
   174 C74      -0.5879    6.1622   -3.1387   C.3       1 RES1   0.0000
   175 C75       0.7631    5.8566   -3.8054   C.3       1 RES1   0.0000
   176 C76       1.8717    6.8181   -3.3929   C.3       1 RES1   0.0000
   177 C77      -1.1994    7.3806   -3.8674   C.3       1 RES1   0.0000
   178 C78      -2.3579    8.0937   -3.1706   C.3       1 RES1   0.0000
   179 C79      -2.8407    9.3153   -3.9602   C.3       1 RES1   0.0000
   180 C80      -3.4748    8.9771   -5.3050   C.3       1 RES1   0.0000
   181 C81      -2.9677    3.1520   -2.8012   C.3       1 RES1   0.0000
   182 C82      -4.2898    3.7931   -2.3055   C.3       1 RES1   0.0000
   183 C83      -4.7967    3.0165   -1.0806   C.3       1 RES1   0.0000
   184 C84      -5.8437    3.7614   -0.2649   C.3       1 RES1   0.0000
   185 C85      -5.3594    3.7835   -3.4182   C.3       1 RES1   0.0000
   186 C86      -5.8399    5.1504   -3.9208   C.3       1 RES1   0.0000
   187 C87      -6.9651    5.7868   -3.0915   C.3       1 RES1   0.0000
   188 C88      -6.4944    6.8982   -2.1637   C.3       1 RES1   0.0000
   189 H90       5.5147    7.1859    2.3692   H         1 RES1   0.0000
   190 H91       5.6767    5.4993    1.9359   H         1 RES1   0.0000
   191 H92       4.1810    6.0792    2.6650   H         1 RES1   0.0000
   192 H93       5.2516    6.7639   -0.1133   H         1 RES1   0.0000
   193 H94       3.9011    7.6113    0.6347   H         1 RES1   0.0000
   194 H95       3.1784    5.9055   -0.9680   H         1 RES1   0.0000
   195 H96       2.5336    5.6209    0.6456   H         1 RES1   0.0000
   196 H97       4.1638    3.8396    1.0547   H         1 RES1   0.0000
   197 H98       5.0603    4.2932   -0.3766   H         1 RES1   0.0000
   198 H99       4.1258    2.2810   -0.7785   H         1 RES1   0.0000
   199 H100      2.8810    4.4517   -2.4314   H         1 RES1   0.0000
   200 H101      2.5076    2.7493   -2.7478   H         1 RES1   0.0000
   201 H102      5.2763    4.0406   -2.7791   H         1 RES1   0.0000
   202 H103      4.3054    3.5173   -4.1491   H         1 RES1   0.0000
   203 H104      4.9510    2.3289   -3.0298   H         1 RES1   0.0000
   204 H105      2.4909    1.8113    0.6971   H         1 RES1   0.0000
   205 H106      1.9247    1.5638   -0.9703   H         1 RES1   0.0000
   206 H107     -0.0546    4.1679    1.5702   H         1 RES1   0.0000
   207 H108      1.7103    4.0850    1.7190   H         1 RES1   0.0000
   208 H109      2.3712    4.0057    3.4755   H         1 RES1   0.0000
   209 H110      2.2503    3.3225    5.0747   H         1 RES1   0.0000
   210 H111      0.0077    5.0715    4.7618   H         1 RES1   0.0000
   211 H112      1.1405    6.1796    2.9535   H         1 RES1   0.0000
   212 H113      2.5841    6.4254    3.9419   H         1 RES1   0.0000
   213 H114     -0.1496    7.5944    4.6318   H         1 RES1   0.0000
   214 H115      1.1172    8.4451    3.7579   H         1 RES1   0.0000
   215 H116      1.3903    7.9530    5.4197   H         1 RES1   0.0000
   216 H117      1.1073    4.4129    6.8490   H         1 RES1   0.0000
   217 H118      0.9520    6.1582    6.7191   H         1 RES1   0.0000
   218 H119      3.3240    6.3501    6.0469   H         1 RES1   0.0000
   219 H120      3.5140    4.5993    6.1195   H         1 RES1   0.0000
   220 H121      2.7316    6.3424    8.4879   H         1 RES1   0.0000
   221 H122      4.3730    5.8261    8.1176   H         1 RES1   0.0000
   222 H123      2.0471    3.9601    8.7903   H         1 RES1   0.0000
   223 H124      3.4219    4.3406    9.8109   H         1 RES1   0.0000
   224 H125      3.6690    3.4366    8.3198   H         1 RES1   0.0000
   225 H126      0.6778    2.1656    5.8286   H         1 RES1   0.0000
   226 H127      0.3166    0.9091    4.6233   H         1 RES1   0.0000
   227 H128     -1.8552    2.1314    4.1924   H         1 RES1   0.0000
   228 H129     -2.9046    1.1179    6.3280   H         1 RES1   0.0000
   229 H130     -1.2961    0.5575    6.6923   H         1 RES1   0.0000
   230 H131     -3.1483   -0.1942    4.4292   H         1 RES1   0.0000
   231 H132     -2.2787   -1.2650    5.5079   H         1 RES1   0.0000
   232 H133     -1.4215   -0.4401    4.1940   H         1 RES1   0.0000
   233 H134     -2.8740    3.4598    5.8545   H         1 RES1   0.0000
   234 H135     -1.3350    4.2019    5.5112   H         1 RES1   0.0000
   235 H136     -1.2405    4.4026    7.7324   H         1 RES1   0.0000
   236 H137     -0.6485    2.7498    7.7296   H         1 RES1   0.0000
   237 H138     -2.7696    1.9130    8.4802   H         1 RES1   0.0000
   238 H139     -3.6282    3.3403    7.8958   H         1 RES1   0.0000
   239 H140     -1.6727    3.3057   10.2361   H         1 RES1   0.0000
   240 H141     -3.4300    3.3378   10.3675   H         1 RES1   0.0000
   241 H142     -2.5829    4.7092    9.6724   H         1 RES1   0.0000
   242 H143      1.0890    4.0149   -1.6513   H         1 RES1   0.0000
   243 H144      0.0318    4.8068   -0.5118   H         1 RES1   0.0000
   244 H145     -2.5619    5.4116   -3.3931   H         1 RES1   0.0000
   245 H146     -1.3318    4.5406   -4.2898   H         1 RES1   0.0000
   246 H147     -0.4304    6.4089   -2.0866   H         1 RES1   0.0000
   247 H148      0.6356    5.9141   -4.8881   H         1 RES1   0.0000
   248 H149      1.0543    4.8304   -3.5818   H         1 RES1   0.0000
   249 H150      1.6854    7.8169   -3.7730   H         1 RES1   0.0000
   250 H151      2.8274    6.4891   -3.7928   H         1 RES1   0.0000
   251 H152      1.9473    6.8872   -2.3102   H         1 RES1   0.0000
   252 H153     -1.5215    7.0502   -4.8553   H         1 RES1   0.0000
   253 H154     -0.4082    8.1155   -4.0126   H         1 RES1   0.0000
   254 H155     -2.0320    8.4352   -2.1841   H         1 RES1   0.0000
   255 H156     -3.2085    7.4211   -3.0258   H         1 RES1   0.0000
   256 H157     -2.0006    9.9947   -4.1186   H         1 RES1   0.0000
   257 H158     -3.5771    9.8451   -3.3524   H         1 RES1   0.0000
   258 H159     -2.7461    8.5733   -6.0028   H         1 RES1   0.0000
   259 H160     -3.8958    9.8742   -5.7490   H         1 RES1   0.0000
   260 H161     -4.2791    8.2537   -5.1843   H         1 RES1   0.0000
   261 H162     -2.9123    2.1300   -2.4334   H         1 RES1   0.0000
   262 H163     -2.9852    3.1257   -3.8925   H         1 RES1   0.0000
   263 H164     -4.0911    4.8200   -1.9937   H         1 RES1   0.0000
   264 H165     -3.9474    2.7671   -0.4395   H         1 RES1   0.0000
   265 H166     -5.2354    2.0772   -1.4350   H         1 RES1   0.0000
   266 H167     -5.5286    4.7773   -0.0672   H         1 RES1   0.0000
   267 H168     -5.9954    3.2747    0.6921   H         1 RES1   0.0000
   268 H169     -6.7971    3.8008   -0.7815   H         1 RES1   0.0000
   269 H170     -6.2328    3.2408   -3.0565   H         1 RES1   0.0000
   270 H171     -4.9729    3.2247   -4.2730   H         1 RES1   0.0000
   271 H172     -6.2131    4.9953   -4.9303   H         1 RES1   0.0000
   272 H173     -4.9999    5.8432   -3.9983   H         1 RES1   0.0000
   273 H174     -7.4695    5.0129   -2.5101   H         1 RES1   0.0000
   274 H175     -7.7123    6.2054   -3.7646   H         1 RES1   0.0000
   275 H176     -5.6999    6.5502   -1.5089   H         1 RES1   0.0000
   276 H177     -7.3193    7.2478   -1.5520   H         1 RES1   0.0000
   277 H178     -6.1192    7.7417   -2.7384   H         1 RES1   0.0000
   278 C89       1.3884   -8.2597    1.1328   C.3       1 RES1   0.0000
   279 C90       1.6171   -8.1247   -0.3669   C.3       1 RES1   0.0000
   280 C91       1.3599   -6.7207   -0.9231   C.3       1 RES1   0.0000
   281 C92      -0.0750   -6.2613   -0.6686   C.3       1 RES1   0.0000
   282 C93      -0.6005   -5.0314   -1.4330   C.3       1 RES1   0.0000
   283 C94      -0.2620   -5.0068   -2.9281   C.3       1 RES1   0.0000
   284 C95      -1.0450   -6.0416   -3.7297   C.3       1 RES1   0.0000
   285 C96      -0.4170   -3.6487   -0.7368   C.3       1 RES1   0.0000
   286 N7        0.8484   -2.9332   -0.5527   N.4       1 RES1   0.0000
   287 C97       1.6074   -3.4174    0.5926   C.3       1 RES1   0.0000
   288 C98       1.1602   -2.7421    1.8862   C.2       1 RES1   0.0000
   289 O5        0.5055   -1.6741    1.8355   O.2       1 RES1   0.0000
   290 N8        1.5126   -3.3250    3.0329   N.am      1 RES1   0.0000
   291 C99       1.9882   -4.7057    3.1716   C.3       1 RES1   0.0000
   292 C100      3.4643   -4.8682    3.6167   C.3       1 RES1   0.0000
   293 C101      4.2971   -5.5591    2.5257   C.3       1 RES1   0.0000
   294 C102      5.7972   -5.5806    2.8050   C.3       1 RES1   0.0000
   295 C103      3.5468   -5.5756    4.9818   C.3       1 RES1   0.0000
   296 C104      3.0533   -7.0216    5.0120   C.3       1 RES1   0.0000
   297 C105      3.0013   -7.5932    6.4314   C.3       1 RES1   0.0000
   298 C106      1.9640   -6.9242    7.3271   C.3       1 RES1   0.0000
   299 C107      1.1043   -2.7440    4.3110   C.3       1 RES1   0.0000
   300 C108      1.8901   -1.5707    4.9450   C.3       1 RES1   0.0000
   301 C109      1.7202   -1.6827    6.4717   C.3       1 RES1   0.0000
   302 C110      0.2995   -1.9105    6.9749   C.3       1 RES1   0.0000
   303 C111      3.3745   -1.4062    4.5516   C.3       1 RES1   0.0000
   304 C112      4.4438   -2.1211    5.3958   C.3       1 RES1   0.0000
   305 C113      5.0387   -1.2674    6.5183   C.3       1 RES1   0.0000
   306 C114      5.9219   -2.1036    7.4365   C.3       1 RES1   0.0000
   307 C115      1.6798   -2.8281   -1.7431   C.3       1 RES1   0.0000
   308 C116      2.5317   -1.5769   -1.6189   C.2       1 RES1   0.0000
   309 O6        2.0594   -0.6097   -0.9736   O.2       1 RES1   0.0000
   310 N9        3.7402   -1.5681   -2.1966   N.am      1 RES1   0.0000
   311 C117      4.1681   -2.5232   -3.2344   C.3       1 RES1   0.0000
   312 C118      4.7804   -3.9044   -2.8434   C.3       1 RES1   0.0000
   313 C119      3.9873   -5.0286   -3.5446   C.3       1 RES1   0.0000
   314 C120      4.3068   -6.4428   -3.0704   C.3       1 RES1   0.0000
   315 C121      6.2479   -4.0483   -3.2865   C.3       1 RES1   0.0000
   316 C122      7.2675   -3.1774   -2.5665   C.3       1 RES1   0.0000
   317 C123      8.7101   -3.4830   -2.9810   C.3       1 RES1   0.0000
   318 C124      9.0342   -3.0291   -4.4003   C.3       1 RES1   0.0000
   319 C125      4.5931   -0.3909   -2.0135   C.3       1 RES1   0.0000
   320 C126      5.5846   -0.4940   -0.8375   C.3       1 RES1   0.0000
   321 C127      4.8504   -0.5590    0.5075   C.3       1 RES1   0.0000
   322 C128      5.7825   -0.8989    1.6675   C.3       1 RES1   0.0000
   323 C129      6.5795    0.6805   -0.8808   C.3       1 RES1   0.0000
   324 C130      7.7661    0.5174   -1.8436   C.3       1 RES1   0.0000
   325 C131      9.0902    0.9424   -1.2026   C.3       1 RES1   0.0000
   326 C132      9.5672   -0.0286   -0.1276   C.3       1 RES1   0.0000
   327 H179      1.6962   -9.2475    1.4609   H         1 RES1   0.0000
   328 H180      0.3392   -8.1373    1.3898   H         1 RES1   0.0000
   329 H181      1.9757   -7.5273    1.6819   H         1 RES1   0.0000
   330 H182      0.9712   -8.8308   -0.8902   H         1 RES1   0.0000
   331 H183      2.6497   -8.3970   -0.5907   H         1 RES1   0.0000
   332 H184      1.5497   -6.7622   -1.9942   H         1 RES1   0.0000
   333 H185      2.0827   -6.0230   -0.4915   H         1 RES1   0.0000
   334 H186     -0.2141   -6.0757    0.3991   H         1 RES1   0.0000
   335 H187     -0.7272   -7.0983   -0.9234   H         1 RES1   0.0000
   336 H188     -1.6961   -5.1337   -1.3869   H         1 RES1   0.0000
   337 H189      0.8019   -5.1682   -3.1011   H         1 RES1   0.0000
   338 H190     -0.5192   -4.0172   -3.3173   H         1 RES1   0.0000
   339 H191     -0.7944   -7.0481   -3.4131   H         1 RES1   0.0000
   340 H192     -0.8072   -5.9537   -4.7865   H         1 RES1   0.0000
   341 H193     -2.1190   -5.9043   -3.6168   H         1 RES1   0.0000
   342 H194     -0.8298   -3.7541    0.2736   H         1 RES1   0.0000
   343 H195     -1.0448   -2.9626   -1.3166   H         1 RES1   0.0000
   344 H196      2.6670   -3.1703    0.4701   H         1 RES1   0.0000
   345 H197      1.5184   -4.5020    0.6723   H         1 RES1   0.0000
   346 H198      1.8200   -5.2636    2.2551   H         1 RES1   0.0000
   347 H199      1.3472   -5.1699    3.9281   H         1 RES1   0.0000
   348 H200      3.8825   -3.8716    3.7508   H         1 RES1   0.0000
   349 H201      4.1301   -5.0264    1.5849   H         1 RES1   0.0000
   350 H202      3.9559   -6.5855    2.3908   H         1 RES1   0.0000
   351 H203      6.1794   -4.5792    2.9899   H         1 RES1   0.0000
   352 H204      6.3214   -5.9845    1.9426   H         1 RES1   0.0000
   353 H205      6.0301   -6.2057    3.6602   H         1 RES1   0.0000
   354 H206      2.9565   -4.9940    5.6930   H         1 RES1   0.0000
   355 H207      4.5819   -5.5526    5.3267   H         1 RES1   0.0000
   356 H208      3.7171   -7.6505    4.4190   H         1 RES1   0.0000
   357 H209      2.0556   -7.0920    4.5763   H         1 RES1   0.0000
   358 H210      3.9867   -7.5104    6.8926   H         1 RES1   0.0000
   359 H211      2.7630   -8.6559    6.3630   H         1 RES1   0.0000
   360 H212      2.2221   -5.8903    7.5441   H         1 RES1   0.0000
   361 H213      1.8995   -7.4489    8.2756   H         1 RES1   0.0000
   362 H214      0.9821   -6.9467    6.8585   H         1 RES1   0.0000
   363 H215      1.1186   -3.5590    5.0277   H         1 RES1   0.0000
   364 H216      0.0785   -2.3921    4.1771   H         1 RES1   0.0000
   365 H217      1.3927   -0.6624    4.5891   H         1 RES1   0.0000
   366 H218      2.0912   -0.7606    6.9224   H         1 RES1   0.0000
   367 H219      2.3375   -2.5000    6.8390   H         1 RES1   0.0000
   368 H220     -0.3422   -1.1046    6.6543   H         1 RES1   0.0000
   369 H221      0.3081   -1.9321    8.0629   H         1 RES1   0.0000
   370 H222     -0.1332   -2.8483    6.6387   H         1 RES1   0.0000
   371 H223      3.5999   -0.3376    4.5786   H         1 RES1   0.0000
   372 H224      3.4618   -1.7101    3.5052   H         1 RES1   0.0000
   373 H225      5.2708   -2.4133    4.7477   H         1 RES1   0.0000
   374 H226      4.0437   -3.0322    5.8344   H         1 RES1   0.0000
   375 H227      4.2456   -0.8144    7.1116   H         1 RES1   0.0000
   376 H228      5.6320   -0.4620    6.0827   H         1 RES1   0.0000
   377 H229      5.3476   -2.9105    7.8847   H         1 RES1   0.0000
   378 H230      6.3272   -1.4928    8.2375   H         1 RES1   0.0000
   379 H231      6.7554   -2.5369    6.8898   H         1 RES1   0.0000
   380 H232      1.0184   -2.6960   -2.6009   H         1 RES1   0.0000
   381 H233      2.2943   -3.7225   -1.8918   H         1 RES1   0.0000
   382 H234      4.9128   -1.9981   -3.8321   H         1 RES1   0.0000
   383 H235      3.3164   -2.7009   -3.8960   H         1 RES1   0.0000
   384 H236      4.7227   -4.0337   -1.7558   H         1 RES1   0.0000
   385 H237      4.1859   -4.9702   -4.6155   H         1 RES1   0.0000
   386 H238      2.9169   -4.8605   -3.4123   H         1 RES1   0.0000
   387 H239      5.2838   -6.7702   -3.4089   H         1 RES1   0.0000
   388 H240      3.5761   -7.1337   -3.4863   H         1 RES1   0.0000
   389 H241      4.2731   -6.5149   -1.9857   H         1 RES1   0.0000
   390 H242      6.3065   -3.8578   -4.3579   H         1 RES1   0.0000
   391 H243      6.5357   -5.0846   -3.1235   H         1 RES1   0.0000
   392 H244      7.1832   -3.3361   -1.4874   H         1 RES1   0.0000
   393 H245      7.0644   -2.1301   -2.7837   H         1 RES1   0.0000
   394 H246      8.9002   -4.5528   -2.8866   H         1 RES1   0.0000
   395 H247      9.3889   -2.9738   -2.2926   H         1 RES1   0.0000
   396 H248      8.4801   -3.6023   -5.1384   H         1 RES1   0.0000
   397 H249     10.0936   -3.1615   -4.6021   H         1 RES1   0.0000
   398 H250      8.7962   -1.9756   -4.5350   H         1 RES1   0.0000
   399 H251      3.9403    0.4693   -1.8647   H         1 RES1   0.0000
   400 H252      5.1688   -0.2266   -2.9269   H         1 RES1   0.0000
   401 H253      6.1442   -1.4243   -0.9394   H         1 RES1   0.0000
   402 H254      4.0829   -1.3357    0.4469   H         1 RES1   0.0000
   403 H255      4.3413    0.3887    0.7031   H         1 RES1   0.0000
   404 H256      6.4249   -1.7379    1.4129   H         1 RES1   0.0000
   405 H257      5.2054   -1.1707    2.5443   H         1 RES1   0.0000
   406 H258      6.4073   -0.0523    1.9393   H         1 RES1   0.0000
   407 H259      6.9838    0.7986    0.1215   H         1 RES1   0.0000
   408 H260      6.0512    1.6053   -1.1179   H         1 RES1   0.0000
   409 H261      7.6041    1.1098   -2.7471   H         1 RES1   0.0000
   410 H262      7.8668   -0.5210   -2.1471   H         1 RES1   0.0000
   411 H263      8.9730    1.9408   -0.7767   H         1 RES1   0.0000
   412 H264      9.8511    1.0001   -1.9810   H         1 RES1   0.0000
   413 H265      8.8422   -0.1278    0.6772   H         1 RES1   0.0000
   414 H266     10.4991    0.3264    0.3008   H         1 RES1   0.0000
   415 H267      9.7438   -1.0133   -0.5545   H         1 RES1   0.0000
@<TRIPOS>BOND
     1     1    10    1
     2     1    13    1
     3     1    33    1
     4     1   148    1
     5     1   151    1
     6     1   171    1
     7     1   286    1
     8     1   289    1
     9     1   309    1
    10     2     3    1
    11     2    51    1
    12     2    52    1
    13     2    53    1
    14     3     4    1
    15     3    54    1
    16     3    55    1
    17     4     5    1
    18     4    56    1
    19     4    57    1
    20     5     6    1
    21     5    58    1
    22     5    59    1
    23     6     7    1
    24     6     9    1
    25     6    60    1
    26     7     8    1
    27     7    61    1
    28     7    62    1
    29     8    63    1
    30     8    64    1
    31     8    65    1
    32     9    10    1
    33     9    66    1
    34     9    67    1
    35    10    11    1
    36    10    31    1
    37    11    12    1
    38    11    68    1
    39    11    69    1
    40    12    13    2
    41    12    14    1
    42    14    15    1
    43    14    23    1
    44    15    16    1
    45    15    70    1
    46    15    71    1
    47    16    17    1
    48    16    19    1
    49    16    72    1
    50    17    18    1
    51    17    73    1
    52    17    74    1
    53    18    75    1
    54    18    76    1
    55    18    77    1
    56    19    20    1
    57    19    78    1
    58    19    79    1
    59    20    21    1
    60    20    80    1
    61    20    81    1
    62    21    22    1
    63    21    82    1
    64    21    83    1
    65    22    84    1
    66    22    85    1
    67    22    86    1
    68    23    24    1
    69    23    87    1
    70    23    88    1
    71    24    25    1
    72    24    27    1
    73    24    89    1
    74    25    26    1
    75    25    90    1
    76    25    91    1
    77    26    92    1
    78    26    93    1
    79    26    94    1
    80    27    28    1
    81    27    95    1
    82    27    96    1
    83    28    29    1
    84    28    97    1
    85    28    98    1
    86    29    30    1
    87    29    99    1
    88    29   100    1
    89    30   101    1
    90    30   102    1
    91    30   103    1
    92    31    32    1
    93    31   104    1
    94    31   105    1
    95    32    33    2
    96    32    34    1
    97    34    35    1
    98    34    43    1
    99    35    36    1
   100    35   106    1
   101    35   107    1
   102    36    37    1
   103    36    39    1
   104    36   108    1
   105    37    38    1
   106    37   109    1
   107    37   110    1
   108    38   111    1
   109    38   112    1
   110    38   113    1
   111    39    40    1
   112    39   114    1
   113    39   115    1
   114    40    41    1
   115    40   116    1
   116    40   117    1
   117    41    42    1
   118    41   118    1
   119    41   119    1
   120    42   120    1
   121    42   121    1
   122    42   122    1
   123    43    44    1
   124    43   123    1
   125    43   124    1
   126    44    45    1
   127    44    47    1
   128    44   125    1
   129    45    46    1
   130    45   126    1
   131    45   127    1
   132    46   128    1
   133    46   129    1
   134    46   130    1
   135    47    48    1
   136    47   131    1
   137    47   132    1
   138    48    49    1
   139    48   133    1
   140    48   134    1
   141    49    50    1
   142    49   135    1
   143    49   136    1
   144    50   137    1
   145    50   138    1
   146    50   139    1
   147   140   141    1
   148   140   189    1
   149   140   190    1
   150   140   191    1
   151   141   142    1
   152   141   192    1
   153   141   193    1
   154   142   143    1
   155   142   194    1
   156   142   195    1
   157   143   144    1
   158   143   196    1
   159   143   197    1
   160   144   145    1
   161   144   147    1
   162   144   198    1
   163   145   146    1
   164   145   199    1
   165   145   200    1
   166   146   201    1
   167   146   202    1
   168   146   203    1
   169   147   148    1
   170   147   204    1
   171   147   205    1
   172   148   149    1
   173   148   169    1
   174   149   150    1
   175   149   206    1
   176   149   207    1
   177   150   151    2
   178   150   152    1
   179   152   153    1
   180   152   161    1
   181   153   154    1
   182   153   208    1
   183   153   209    1
   184   154   155    1
   185   154   157    1
   186   154   210    1
   187   155   156    1
   188   155   211    1
   189   155   212    1
   190   156   213    1
   191   156   214    1
   192   156   215    1
   193   157   158    1
   194   157   216    1
   195   157   217    1
   196   158   159    1
   197   158   218    1
   198   158   219    1
   199   159   160    1
   200   159   220    1
   201   159   221    1
   202   160   222    1
   203   160   223    1
   204   160   224    1
   205   161   162    1
   206   161   225    1
   207   161   226    1
   208   162   163    1
   209   162   165    1
   210   162   227    1
   211   163   164    1
   212   163   228    1
   213   163   229    1
   214   164   230    1
   215   164   231    1
   216   164   232    1
   217   165   166    1
   218   165   233    1
   219   165   234    1
   220   166   167    1
   221   166   235    1
   222   166   236    1
   223   167   168    1
   224   167   237    1
   225   167   238    1
   226   168   239    1
   227   168   240    1
   228   168   241    1
   229   169   170    1
   230   169   242    1
   231   169   243    1
   232   170   171    2
   233   170   172    1
   234   172   173    1
   235   172   181    1
   236   173   174    1
   237   173   244    1
   238   173   245    1
   239   174   175    1
   240   174   177    1
   241   174   246    1
   242   175   176    1
   243   175   247    1
   244   175   248    1
   245   176   249    1
   246   176   250    1
   247   176   251    1
   248   177   178    1
   249   177   252    1
   250   177   253    1
   251   178   179    1
   252   178   254    1
   253   178   255    1
   254   179   180    1
   255   179   256    1
   256   179   257    1
   257   180   258    1
   258   180   259    1
   259   180   260    1
   260   181   182    1
   261   181   261    1
   262   181   262    1
   263   182   183    1
   264   182   185    1
   265   182   263    1
   266   183   184    1
   267   183   264    1
   268   183   265    1
   269   184   266    1
   270   184   267    1
   271   184   268    1
   272   185   186    1
   273   185   269    1
   274   185   270    1
   275   186   187    1
   276   186   271    1
   277   186   272    1
   278   187   188    1
   279   187   273    1
   280   187   274    1
   281   188   275    1
   282   188   276    1
   283   188   277    1
   284   278   279    1
   285   278   327    1
   286   278   328    1
   287   278   329    1
   288   279   280    1
   289   279   330    1
   290   279   331    1
   291   280   281    1
   292   280   332    1
   293   280   333    1
   294   281   282    1
   295   281   334    1
   296   281   335    1
   297   282   283    1
   298   282   285    1
   299   282   336    1
   300   283   284    1
   301   283   337    1
   302   283   338    1
   303   284   339    1
   304   284   340    1
   305   284   341    1
   306   285   286    1
   307   285   342    1
   308   285   343    1
   309   286   287    1
   310   286   307    1
   311   287   288    1
   312   287   344    1
   313   287   345    1
   314   288   289    2
   315   288   290    1
   316   290   291    1
   317   290   299    1
   318   291   292    1
   319   291   346    1
   320   291   347    1
   321   292   293    1
   322   292   295    1
   323   292   348    1
   324   293   294    1
   325   293   349    1
   326   293   350    1
   327   294   351    1
   328   294   352    1
   329   294   353    1
   330   295   296    1
   331   295   354    1
   332   295   355    1
   333   296   297    1
   334   296   356    1
   335   296   357    1
   336   297   298    1
   337   297   358    1
   338   297   359    1
   339   298   360    1
   340   298   361    1
   341   298   362    1
   342   299   300    1
   343   299   363    1
   344   299   364    1
   345   300   301    1
   346   300   303    1
   347   300   365    1
   348   301   302    1
   349   301   366    1
   350   301   367    1
   351   302   368    1
   352   302   369    1
   353   302   370    1
   354   303   304    1
   355   303   371    1
   356   303   372    1
   357   304   305    1
   358   304   373    1
   359   304   374    1
   360   305   306    1
   361   305   375    1
   362   305   376    1
   363   306   377    1
   364   306   378    1
   365   306   379    1
   366   307   308    1
   367   307   380    1
   368   307   381    1
   369   308   309    2
   370   308   310    1
   371   310   311    1
   372   310   319    1
   373   311   312    1
   374   311   382    1
   375   311   383    1
   376   312   313    1
   377   312   315    1
   378   312   384    1
   379   313   314    1
   380   313   385    1
   381   313   386    1
   382   314   387    1
   383   314   388    1
   384   314   389    1
   385   315   316    1
   386   315   390    1
   387   315   391    1
   388   316   317    1
   389   316   392    1
   390   316   393    1
   391   317   318    1
   392   317   394    1
   393   317   395    1
   394   318   396    1
   395   318   397    1
   396   318   398    1
   397   319   320    1
   398   319   399    1
   399   319   400    1
   400   320   321    1
   401   320   323    1
   402   320   401    1
   403   321   322    1
   404   321   402    1
   405   321   403    1
   406   322   404    1
   407   322   405    1
   408   322   406    1
   409   323   324    1
   410   323   407    1
   411   323   408    1
   412   324   325    1
   413   324   409    1
   414   324   410    1
   415   325   326    1
   416   325   411    1
   417   325   412    1
   418   326   413    1
   419   326   414    1
   420   326   415    1
@<TRIPOS>SUBSTRUCTURE
     1 RES1      415 GROUP             0 ****  ****    0  
