@<TRIPOS>MOLECULE
cn9_YICLED_0_nunpairedes_0_charge_3 Charge: 3 Unpaired_Electrons: 6 XTB_Unpaired_Electrons: 0 XTB_Charge: 3
   118   132     1     0     0
SMALL
NoCharges
****
Generated from Architector

@<TRIPOS>ATOM
     1 Eu1      -0.1879    0.2524   -0.0672   Eu        1 RES1   0.0000
     2 O1       -2.2187   -0.0410    1.0246   O.2       1 RES1   0.0000
     3 C1       -2.4171   -1.1171    1.6342   C.2       1 RES1   0.0000
     4 C2       -1.2403   -1.6818    2.3959   C.ar      1 RES1   0.0000
     5 C3       -1.2107   -2.6631    3.3868   C.ar      1 RES1   0.0000
     6 C4        0.0115   -3.0102    3.9497   C.ar      1 RES1   0.0000
     7 C5        1.1718   -2.3655    3.5341   C.ar      1 RES1   0.0000
     8 C6        1.0643   -1.3808    2.5568   C.ar      1 RES1   0.0000
     9 C7        2.1348   -0.4354    2.0678   C.2       1 RES1   0.0000
    10 O2        1.7235    0.6562    1.6208   O.2       1 RES1   0.0000
    11 N1        3.4359   -0.7102    2.0820   N.am      1 RES1   0.0000
    12 C8        4.3816    0.3145    1.6457   C.3       1 RES1   0.0000
    13 C9        5.7227   -0.1597    2.1783   C.3       1 RES1   0.0000
    14 C10       5.5980   -1.6685    2.0055   C.3       1 RES1   0.0000
    15 C11       4.1540   -1.9282    2.4442   C.3       1 RES1   0.0000
    16 N2       -0.1160   -1.0691    2.0152   N.ar      1 RES1   0.0000
    17 N3       -3.5877   -1.7234    1.5634   N.am      1 RES1   0.0000
    18 C12      -4.0913   -2.8996    2.2542   C.3       1 RES1   0.0000
    19 C13      -5.4252   -3.2037    1.5713   C.3       1 RES1   0.0000
    20 C14      -5.9137   -1.8152    1.1702   C.3       1 RES1   0.0000
    21 C15      -4.6293   -1.1244    0.7327   C.3       1 RES1   0.0000
    22 H1       -2.1040   -3.1458    3.7397   H         1 RES1   0.0000
    23 H2        0.0588   -3.7625    4.7291   H         1 RES1   0.0000
    24 H3        2.1193   -2.6129    3.9824   H         1 RES1   0.0000
    25 H4        4.0679    1.2856    2.0186   H         1 RES1   0.0000
    26 H5        4.3971    0.3503    0.5538   H         1 RES1   0.0000
    27 H6        5.8201    0.0914    3.2313   H         1 RES1   0.0000
    28 H7        6.5652    0.2713    1.6440   H         1 RES1   0.0000
    29 H8        6.3211   -2.2294    2.5918   H         1 RES1   0.0000
    30 H9        5.7326   -1.9340    0.9580   H         1 RES1   0.0000
    31 H10       4.1316   -2.0729    3.5243   H         1 RES1   0.0000
    32 H11       3.7193   -2.8045    1.9622   H         1 RES1   0.0000
    33 H12      -4.2668   -2.6486    3.3031   H         1 RES1   0.0000
    34 H13      -3.4134   -3.7503    2.1919   H         1 RES1   0.0000
    35 H14      -6.1192   -3.7224    2.2293   H         1 RES1   0.0000
    36 H15      -5.2646   -3.8280    0.6928   H         1 RES1   0.0000
    37 H16      -6.3380   -1.3058    2.0346   H         1 RES1   0.0000
    38 H17      -6.6676   -1.8328    0.3878   H         1 RES1   0.0000
    39 H18      -4.6489   -0.0457    0.8779   H         1 RES1   0.0000
    40 H19      -4.3891   -1.3143   -0.3183   H         1 RES1   0.0000
    41 O3       -1.3849   -1.7917   -1.1298   O.2       1 RES1   0.0000
    42 C16      -1.2063   -2.0721   -2.3336   C.2       1 RES1   0.0000
    43 C17      -0.8000   -0.9319   -3.2347   C.ar      1 RES1   0.0000
    44 C18      -0.7533   -0.8900   -4.6246   C.ar      1 RES1   0.0000
    45 C19      -0.6014    0.3453   -5.2447   C.ar      1 RES1   0.0000
    46 C20      -0.5975    1.5133   -4.4932   C.ar      1 RES1   0.0000
    47 C21      -0.6255    1.3901   -3.1047   C.ar      1 RES1   0.0000
    48 C22      -0.8280    2.4730   -2.0705   C.2       1 RES1   0.0000
    49 O4       -1.3831    2.1169   -1.0102   O.2       1 RES1   0.0000
    50 N4       -0.5037    3.7314   -2.2992   N.am      1 RES1   0.0000
    51 C23       0.3862    4.2580   -3.3179   C.3       1 RES1   0.0000
    52 C24       1.0857    5.4222   -2.6159   C.3       1 RES1   0.0000
    53 C25      -0.0288    5.9764   -1.7282   C.3       1 RES1   0.0000
    54 C26      -0.7705    4.7255   -1.2635   C.3       1 RES1   0.0000
    55 N5       -0.6510    0.1893   -2.5195   N.ar      1 RES1   0.0000
    56 N6       -1.4856   -3.2913   -2.7774   N.am      1 RES1   0.0000
    57 C27      -1.3243   -3.8924   -4.0928   C.3       1 RES1   0.0000
    58 C28      -1.5753   -5.3811   -3.8541   C.3       1 RES1   0.0000
    59 C29      -2.6255   -5.3581   -2.7486   C.3       1 RES1   0.0000
    60 C30      -2.1328   -4.2262   -1.8575   C.3       1 RES1   0.0000
    61 H20      -0.8351   -1.7733   -5.2314   H         1 RES1   0.0000
    62 H21      -0.5433    0.3916   -6.3222   H         1 RES1   0.0000
    63 H22      -0.6053    2.4741   -4.9824   H         1 RES1   0.0000
    64 H23      -0.1920    4.6441   -4.1604   H         1 RES1   0.0000
    65 H24       1.0820    3.4957   -3.6725   H         1 RES1   0.0000
    66 H25       1.4613    6.1625   -3.3195   H         1 RES1   0.0000
    67 H26       1.9176    5.0444   -2.0209   H         1 RES1   0.0000
    68 H27      -0.6871    6.6005   -2.3314   H         1 RES1   0.0000
    69 H28       0.3324    6.5822   -0.8998   H         1 RES1   0.0000
    70 H29      -1.8433    4.8883   -1.1662   H         1 RES1   0.0000
    71 H30      -0.4175    4.3254   -0.3073   H         1 RES1   0.0000
    72 H31      -0.3321   -3.7092   -4.5058   H         1 RES1   0.0000
    73 H32      -2.0824   -3.4945   -4.7716   H         1 RES1   0.0000
    74 H33      -0.6635   -5.8645   -3.5041   H         1 RES1   0.0000
    75 H34      -1.9128   -5.8902   -4.7532   H         1 RES1   0.0000
    76 H35      -2.7101   -6.3010   -2.2156   H         1 RES1   0.0000
    77 H36      -3.6000   -5.1118   -3.1682   H         1 RES1   0.0000
    78 H37      -1.4056   -4.5714   -1.1175   H         1 RES1   0.0000
    79 H38      -2.9312   -3.7171   -1.3183   H         1 RES1   0.0000
    80 O5        1.1049   -1.9486   -0.3532   O.2       1 RES1   0.0000
    81 C31       2.2069   -2.2421   -0.8656   C.2       1 RES1   0.0000
    82 C32       2.9884   -1.1019   -1.4392   C.ar      1 RES1   0.0000
    83 C33       4.1094   -1.1447   -2.2614   C.ar      1 RES1   0.0000
    84 C34       4.6901    0.0572   -2.6497   C.ar      1 RES1   0.0000
    85 C35       4.1903    1.2545   -2.1560   C.ar      1 RES1   0.0000
    86 C36       3.0784    1.2043   -1.3162   C.ar      1 RES1   0.0000
    87 C37       2.4147    2.3372   -0.5881   C.2       1 RES1   0.0000
    88 O6        1.1775    2.2688   -0.4496   O.2       1 RES1   0.0000
    89 N7        3.1191    3.3183   -0.0587   N.am      1 RES1   0.0000
    90 C38       4.5517    3.5491   -0.0929   C.3       1 RES1   0.0000
    91 C39       4.8226    4.2997    1.2080   C.3       1 RES1   0.0000
    92 C40       3.5828    5.1838    1.3196   C.3       1 RES1   0.0000
    93 C41       2.4614    4.2699    0.8349   C.3       1 RES1   0.0000
    94 N8        2.4587    0.0577   -1.0378   N.ar      1 RES1   0.0000
    95 N9        2.6380   -3.4946   -0.8303   N.am      1 RES1   0.0000
    96 C42       1.7531   -4.5009   -0.2450   C.3       1 RES1   0.0000
    97 C43       2.4250   -5.8310   -0.5559   C.3       1 RES1   0.0000
    98 C44       3.9036   -5.4528   -0.5520   C.3       1 RES1   0.0000
    99 C45       3.8951   -4.0928   -1.2521   C.3       1 RES1   0.0000
   100 H39       4.5207   -2.0696   -2.6248   H         1 RES1   0.0000
   101 H40       5.5390    0.0490   -3.3184   H         1 RES1   0.0000
   102 H41       4.6286    2.1960   -2.4456   H         1 RES1   0.0000
   103 H42       4.7862    4.1985   -0.9404   H         1 RES1   0.0000
   104 H43       5.1240    2.6277   -0.1829   H         1 RES1   0.0000
   105 H44       5.7489    4.8689    1.1736   H         1 RES1   0.0000
   106 H45       4.8719    3.5972    2.0394   H         1 RES1   0.0000
   107 H46       3.6907    6.0405    0.6543   H         1 RES1   0.0000
   108 H47       3.4072    5.5537    2.3260   H         1 RES1   0.0000
   109 H48       1.6800    4.8154    0.3097   H         1 RES1   0.0000
   110 H49       1.9812    3.7075    1.6408   H         1 RES1   0.0000
   111 H50       0.7547   -4.4037   -0.6705   H         1 RES1   0.0000
   112 H51       1.6664   -4.3227    0.8311   H         1 RES1   0.0000
   113 H52       2.1303   -6.1859   -1.5431   H         1 RES1   0.0000
   114 H53       2.1777   -6.6018    0.1689   H         1 RES1   0.0000
   115 H54       4.5360   -6.1804   -1.0548   H         1 RES1   0.0000
   116 H55       4.2629   -5.3418    0.4711   H         1 RES1   0.0000
   117 H56       3.8944   -4.2254   -2.3376   H         1 RES1   0.0000
   118 H57       4.7532   -3.4857   -0.9668   H         1 RES1   0.0000
@<TRIPOS>BOND
     1     1     2    1
     2     1    10    1
     3     1    16    1
     4     1    41    1
     5     1    49    1
     6     1    55    1
     7     1    80    1
     8     1    88    1
     9     1    94    1
    10     2     3    2
    11     3     4    1
    12     3    17    1
    13     4     5    1
    14     4    16    2
    15     5     6    2
    16     5    22    1
    17     6     7    1
    18     6    23    1
    19     7     8    2
    20     7    24    1
    21     8     9    1
    22     8    16    1
    23     9    10    2
    24     9    11    1
    25    11    12    1
    26    11    15    1
    27    12    13    1
    28    12    25    1
    29    12    26    1
    30    13    14    1
    31    13    27    1
    32    13    28    1
    33    14    15    1
    34    14    29    1
    35    14    30    1
    36    15    31    1
    37    15    32    1
    38    17    18    1
    39    17    21    1
    40    18    19    1
    41    18    33    1
    42    18    34    1
    43    19    20    1
    44    19    35    1
    45    19    36    1
    46    20    21    1
    47    20    37    1
    48    20    38    1
    49    21    39    1
    50    21    40    1
    51    41    42    2
    52    42    43    1
    53    42    56    1
    54    43    44    1
    55    43    55    2
    56    44    45    2
    57    44    61    1
    58    45    46    1
    59    45    62    1
    60    46    47    2
    61    46    63    1
    62    47    48    1
    63    47    55    1
    64    48    49    2
    65    48    50    1
    66    50    51    1
    67    50    54    1
    68    51    52    1
    69    51    64    1
    70    51    65    1
    71    52    53    1
    72    52    66    1
    73    52    67    1
    74    53    54    1
    75    53    68    1
    76    53    69    1
    77    54    70    1
    78    54    71    1
    79    56    57    1
    80    56    60    1
    81    57    58    1
    82    57    72    1
    83    57    73    1
    84    58    59    1
    85    58    74    1
    86    58    75    1
    87    59    60    1
    88    59    76    1
    89    59    77    1
    90    60    78    1
    91    60    79    1
    92    80    81    2
    93    81    82    1
    94    81    95    1
    95    82    83    1
    96    82    94    2
    97    83    84    2
    98    83   100    1
    99    84    85    1
   100    84   101    1
   101    85    86    2
   102    85   102    1
   103    86    87    1
   104    86    94    1
   105    87    88    2
   106    87    89    1
   107    89    90    1
   108    89    93    1
   109    90    91    1
   110    90   103    1
   111    90   104    1
   112    91    92    1
   113    91   105    1
   114    91   106    1
   115    92    93    1
   116    92   107    1
   117    92   108    1
   118    93   109    1
   119    93   110    1
   120    95    96    1
   121    95    99    1
   122    96    97    1
   123    96   111    1
   124    96   112    1
   125    97    98    1
   126    97   113    1
   127    97   114    1
   128    98    99    1
   129    98   115    1
   130    98   116    1
   131    99   117    1
   132    99   118    1
@<TRIPOS>SUBSTRUCTURE
     1 RES1      118 GROUP             0 ****  ****    0  
