@<TRIPOS>MOLECULE
am_c3_9H2O_c0_0_nunpairedes_0_charge_3 Charge: 3 Unpaired_Electrons: 6 XTB_Unpaired_Electrons: 0 XTB_Charge: 3
   433   441     1     0     0
SMALL
NoCharges
****
Generated from Architector

@<TRIPOS>ATOM
     1 Eu1      -0.0404   -0.2224    0.1131   Eu        1 RES1   0.0000
     2 C1       -7.7358    1.8573    7.1892   C.3       1 RES1   0.0000
     3 C2       -6.6317    2.8806    6.9660   C.3       1 RES1   0.0000
     4 C3       -7.1927    4.1922    6.4142   C.3       1 RES1   0.0000
     5 C4       -6.0909    5.2271    6.1614   C.3       1 RES1   0.0000
     6 C5       -5.5701    5.2596    4.7249   C.3       1 RES1   0.0000
     7 C6       -4.2064    5.9427    4.6723   C.3       1 RES1   0.0000
     8 C7       -3.6130    5.9457    3.2570   C.3       1 RES1   0.0000
     9 C8       -2.3483    5.0915    3.1364   C.3       1 RES1   0.0000
    10 N1       -1.6972    5.1890    1.8362   N.am      1 RES1   0.0000
    11 C9       -1.4044    6.5411    1.3581   C.3       1 RES1   0.0000
    12 C10      -0.4952    7.3493    2.2967   C.3       1 RES1   0.0000
    13 C11      -1.0536    8.7341    2.6275   C.3       1 RES1   0.0000
    14 C12      -0.3678    9.4506    3.7960   C.3       1 RES1   0.0000
    15 C13      -0.6208    8.8199    5.1731   C.3       1 RES1   0.0000
    16 C14       0.2712    7.6710    5.6726   C.3       1 RES1   0.0000
    17 C15       1.6581    8.0626    6.1941   C.3       1 RES1   0.0000
    18 C16       2.6613    8.5251    5.1430   C.3       1 RES1   0.0000
    19 C17      -1.4974    4.1721    0.9987   C.2       1 RES1   0.0000
    20 O1       -0.8646    4.2850   -0.0586   O.2       1 RES1   0.0000
    21 C18      -2.0587    2.7984    1.3490   C.3       1 RES1   0.0000
    22 O2       -1.7322    1.8339    0.3456   O.3       1 RES1   0.0000
    23 C19      -2.5406    1.9497   -0.8331   C.3       1 RES1   0.0000
    24 C20      -1.6393    1.2254   -1.8150   C.2       1 RES1   0.0000
    25 O3       -1.4298    0.0184   -1.5677   O.2       1 RES1   0.0000
    26 N2       -0.9815    1.8617   -2.7668   N.am      1 RES1   0.0000
    27 C21      -0.8861    3.3001   -3.0176   C.3       1 RES1   0.0000
    28 C22       0.5503    3.6174   -3.3476   C.ar      1 RES1   0.0000
    29 C23       1.0587    3.1679   -4.5580   C.ar      1 RES1   0.0000
    30 C24       2.4037    3.3264   -4.8442   C.ar      1 RES1   0.0000
    31 C25       3.2561    3.8679   -3.8950   C.ar      1 RES1   0.0000
    32 C26       2.7598    4.3396   -2.6853   C.ar      1 RES1   0.0000
    33 C27       3.6928    4.9428   -1.6570   C.3       1 RES1   0.0000
    34 N3        4.2547    3.9370   -0.7383   N.am      1 RES1   0.0000
    35 C28       4.0426    3.9991    0.5977   C.2       1 RES1   0.0000
    36 O4        3.2675    4.8139    1.0774   O.2       1 RES1   0.0000
    37 C29       4.7233    2.9358    1.4907   C.3       1 RES1   0.0000
    38 O5        4.0177    1.6969    1.5229   O.3       1 RES1   0.0000
    39 C30       3.2323    1.3434    2.6583   C.3       1 RES1   0.0000
    40 C31       3.8718    0.5504    3.8097   C.2       1 RES1   0.0000
    41 O6        5.0745    0.5135    3.9715   O.2       1 RES1   0.0000
    42 N4        3.0046   -0.0771    4.6461   N.am      1 RES1   0.0000
    43 C32       1.5470   -0.0233    4.6121   C.3       1 RES1   0.0000
    44 C33       0.8821   -1.3922    4.8036   C.3       1 RES1   0.0000
    45 C34      -0.6417   -1.3257    4.6811   C.3       1 RES1   0.0000
    46 C35      -1.2602   -2.7182    4.8599   C.3       1 RES1   0.0000
    47 C36      -2.7123   -2.7530    5.3544   C.3       1 RES1   0.0000
    48 C37      -3.7164   -1.9921    4.4757   C.3       1 RES1   0.0000
    49 C38      -5.0577   -2.7099    4.2939   C.3       1 RES1   0.0000
    50 C39      -5.9663   -1.9091    3.3678   C.3       1 RES1   0.0000
    51 C40       3.5817   -0.5672    5.9025   C.3       1 RES1   0.0000
    52 C41       3.7709   -2.0836    6.0403   C.3       1 RES1   0.0000
    53 C42       4.5870   -2.7175    4.9190   C.3       1 RES1   0.0000
    54 C43       6.0765   -2.4158    5.0429   C.3       1 RES1   0.0000
    55 C44       6.9079   -3.2612    4.0833   C.3       1 RES1   0.0000
    56 C45       8.3966   -2.9458    4.2176   C.3       1 RES1   0.0000
    57 C46       9.2743   -3.6781    3.2010   C.3       1 RES1   0.0000
    58 C47       9.1712   -3.1088    1.7923   C.3       1 RES1   0.0000
    59 C48       1.3897    4.2649   -2.4487   C.ar      1 RES1   0.0000
    60 H1       -7.3339    0.9395    7.6097   H         1 RES1   0.0000
    61 H2       -8.2347    1.6289    6.2496   H         1 RES1   0.0000
    62 H3       -8.4755    2.2548    7.8774   H         1 RES1   0.0000
    63 H4       -5.8881    2.4660    6.2752   H         1 RES1   0.0000
    64 H5       -6.1236    3.0866    7.9124   H         1 RES1   0.0000
    65 H6       -7.9010    4.5866    7.1447   H         1 RES1   0.0000
    66 H7       -7.7498    3.9949    5.4940   H         1 RES1   0.0000
    67 H8       -5.2575    5.0099    6.8361   H         1 RES1   0.0000
    68 H9       -6.4515    6.2242    6.4125   H         1 RES1   0.0000
    69 H10      -6.2741    5.8081    4.0916   H         1 RES1   0.0000
    70 H11      -5.4845    4.2536    4.3125   H         1 RES1   0.0000
    71 H12      -3.5271    5.4412    5.3661   H         1 RES1   0.0000
    72 H13      -4.3326    6.9654    5.0339   H         1 RES1   0.0000
    73 H14      -3.3785    6.9668    2.9688   H         1 RES1   0.0000
    74 H15      -4.3469    5.5522    2.5598   H         1 RES1   0.0000
    75 H16      -2.6035    4.0595    3.3476   H         1 RES1   0.0000
    76 H17      -1.6286    5.4238    3.8928   H         1 RES1   0.0000
    77 H18      -2.3501    7.0722    1.2148   H         1 RES1   0.0000
    78 H19      -0.9496    6.4313    0.3741   H         1 RES1   0.0000
    79 H20       0.5017    7.4422    1.8645   H         1 RES1   0.0000
    80 H21      -0.4115    6.8222    3.2409   H         1 RES1   0.0000
    81 H22      -2.1050    8.6102    2.8909   H         1 RES1   0.0000
    82 H23      -0.9936    9.3700    1.7412   H         1 RES1   0.0000
    83 H24      -0.7968   10.4538    3.8358   H         1 RES1   0.0000
    84 H25       0.6944    9.5754    3.6088   H         1 RES1   0.0000
    85 H26      -1.6554    8.4663    5.1825   H         1 RES1   0.0000
    86 H27      -0.5533    9.6114    5.9212   H         1 RES1   0.0000
    87 H28       0.3927    6.8864    4.9229   H         1 RES1   0.0000
    88 H29      -0.2543    7.2086    6.5162   H         1 RES1   0.0000
    89 H30       2.0735    7.1853    6.7007   H         1 RES1   0.0000
    90 H31       1.5441    8.8470    6.9431   H         1 RES1   0.0000
    91 H32       2.6659    7.8611    4.2806   H         1 RES1   0.0000
    92 H33       3.6587    8.5299    5.5751   H         1 RES1   0.0000
    93 H34       2.4453    9.5358    4.8126   H         1 RES1   0.0000
    94 H35      -3.1392    2.8928    1.4665   H         1 RES1   0.0000
    95 H36      -1.6319    2.3700    2.2464   H         1 RES1   0.0000
    96 H37      -2.7579    2.9981   -1.0504   H         1 RES1   0.0000
    97 H38      -3.4776    1.3814   -0.7207   H         1 RES1   0.0000
    98 H39      -0.3277    1.2767   -3.2876   H         1 RES1   0.0000
    99 H40      -1.2021    3.8530   -2.1338   H         1 RES1   0.0000
   100 H41      -1.5220    3.5661   -3.8652   H         1 RES1   0.0000
   101 H42       0.3990    2.7095   -5.2823   H         1 RES1   0.0000
   102 H43       2.7823    3.0267   -5.8088   H         1 RES1   0.0000
   103 H44       4.3098    3.9511   -4.1165   H         1 RES1   0.0000
   104 H45       3.1646    5.6705   -1.0360   H         1 RES1   0.0000
   105 H46       4.5180    5.4493   -2.1635   H         1 RES1   0.0000
   106 H47       5.0048    3.3709   -1.1086   H         1 RES1   0.0000
   107 H48       4.8234    3.3658    2.4891   H         1 RES1   0.0000
   108 H49       5.7250    2.7175    1.1078   H         1 RES1   0.0000
   109 H50       2.4778    0.6842    2.2386   H         1 RES1   0.0000
   110 H51       2.7744    2.2183    3.1175   H         1 RES1   0.0000
   111 H52       1.1924    0.3722    3.6628   H         1 RES1   0.0000
   112 H53       1.2018    0.6479    5.4100   H         1 RES1   0.0000
   113 H54       1.1010   -1.7694    5.8009   H         1 RES1   0.0000
   114 H55       1.2851   -2.0887    4.0643   H         1 RES1   0.0000
   115 H56      -0.9274   -0.8957    3.7140   H         1 RES1   0.0000
   116 H57      -1.0090   -0.6724    5.4722   H         1 RES1   0.0000
   117 H58      -0.6638   -3.2657    5.5933   H         1 RES1   0.0000
   118 H59      -1.1865   -3.2553    3.9119   H         1 RES1   0.0000
   119 H60      -2.7499   -2.3635    6.3735   H         1 RES1   0.0000
   120 H61      -3.0091   -3.8033    5.4084   H         1 RES1   0.0000
   121 H62      -3.2820   -1.7998    3.4921   H         1 RES1   0.0000
   122 H63      -3.9214   -1.0176    4.9222   H         1 RES1   0.0000
   123 H64      -5.5441   -2.8341    5.2637   H         1 RES1   0.0000
   124 H65      -4.9079   -3.7085    3.8737   H         1 RES1   0.0000
   125 H66      -6.1965   -0.9457    3.8159   H         1 RES1   0.0000
   126 H67      -6.8977   -2.4342    3.1807   H         1 RES1   0.0000
   127 H68      -5.4745   -1.7369    2.4123   H         1 RES1   0.0000
   128 H69       2.9441   -0.2128    6.7187   H         1 RES1   0.0000
   129 H70       4.5631   -0.0938    5.9836   H         1 RES1   0.0000
   130 H71       2.8149   -2.5979    6.1242   H         1 RES1   0.0000
   131 H72       4.2928   -2.2445    6.9846   H         1 RES1   0.0000
   132 H73       4.2184   -2.3652    3.9522   H         1 RES1   0.0000
   133 H74       4.4388   -3.7986    4.9549   H         1 RES1   0.0000
   134 H75       6.3980   -2.6201    6.0656   H         1 RES1   0.0000
   135 H76       6.2561   -1.3598    4.8402   H         1 RES1   0.0000
   136 H77       6.5720   -3.0742    3.0608   H         1 RES1   0.0000
   137 H78       6.7445   -4.3212    4.2961   H         1 RES1   0.0000
   138 H79       8.7137   -3.2302    5.2225   H         1 RES1   0.0000
   139 H80       8.5501   -1.8670    4.1217   H         1 RES1   0.0000
   140 H81       9.0057   -4.7360    3.1849   H         1 RES1   0.0000
   141 H82      10.3127   -3.6086    3.5264   H         1 RES1   0.0000
   142 H83       9.8509   -3.6302    1.1255   H         1 RES1   0.0000
   143 H84       8.1628   -3.2156    1.4003   H         1 RES1   0.0000
   144 H85       9.4355   -2.0552    1.7892   H         1 RES1   0.0000
   145 H86       0.9704    4.7208   -1.5662   H         1 RES1   0.0000
   146 C49       7.4604    2.6718    5.3859   C.3       1 RES1   0.0000
   147 C50       7.3238    2.7314    3.8682   C.3       1 RES1   0.0000
   148 C51       8.5816    2.2162    3.1679   C.3       1 RES1   0.0000
   149 C52       8.5398    2.3106    1.6308   C.3       1 RES1   0.0000
   150 C53       8.7183    0.9755    0.8969   C.3       1 RES1   0.0000
   151 C54       7.4386    0.2847    0.3971   C.3       1 RES1   0.0000
   152 C55       6.5130   -0.2897    1.4731   C.3       1 RES1   0.0000
   153 C56       5.4225   -1.3154    1.0505   C.3       1 RES1   0.0000
   154 N5        4.6183   -0.9673   -0.1270   N.am      1 RES1   0.0000
   155 C57       5.2754   -1.0867   -1.4363   C.3       1 RES1   0.0000
   156 C58       6.3740   -2.1601   -1.6322   C.3       1 RES1   0.0000
   157 C59       5.9803   -3.6072   -1.9652   C.3       1 RES1   0.0000
   158 C60       5.6683   -4.5391   -0.7840   C.3       1 RES1   0.0000
   159 C61       4.1904   -4.5937   -0.4083   C.3       1 RES1   0.0000
   160 C62       3.8382   -5.6984    0.5913   C.3       1 RES1   0.0000
   161 C63       4.2857   -5.4241    2.0249   C.3       1 RES1   0.0000
   162 C64       3.6724   -6.4312    2.9899   C.3       1 RES1   0.0000
   163 C65       3.3724   -0.4719   -0.0478   C.2       1 RES1   0.0000
   164 O7        2.4995   -0.8359    0.7687   O.2       1 RES1   0.0000
   165 C66       2.9339    0.6293   -1.0443   C.3       1 RES1   0.0000
   166 O8        1.5875    1.0544   -0.7638   O.3       1 RES1   0.0000
   167 C67       1.3903    2.3270   -0.1410   C.3       1 RES1   0.0000
   168 C68       0.9573    2.2973    1.3370   C.2       1 RES1   0.0000
   169 O9        0.4087    1.2684    1.7861   O.2       1 RES1   0.0000
   170 N6        1.1894    3.4466    1.9322   N.am      1 RES1   0.0000
   171 C69       1.2008    4.0743    3.2567   C.3       1 RES1   0.0000
   172 C70       0.6854    3.4484    4.5216   C.ar      1 RES1   0.0000
   173 C71       1.3376    3.7700    5.7096   C.ar      1 RES1   0.0000
   174 C72       0.7476    3.4493    6.9223   C.ar      1 RES1   0.0000
   175 C73      -0.5123    2.8737    6.9651   C.ar      1 RES1   0.0000
   176 C74      -1.1600    2.5114    5.7890   C.ar      1 RES1   0.0000
   177 C75      -2.4899    1.7947    5.8536   C.3       1 RES1   0.0000
   178 N7       -3.5295    2.1850    4.9145   N.am      1 RES1   0.0000
   179 C76      -3.7828    1.5228    3.7703   C.2       1 RES1   0.0000
   180 O10      -3.0173    0.7238    3.2647   O.2       1 RES1   0.0000
   181 C77      -5.1233    1.8882    3.0940   C.3       1 RES1   0.0000
   182 O11      -4.9049    3.0802    2.3719   O.3       1 RES1   0.0000
   183 C78      -5.9099    3.4568    1.4489   C.3       1 RES1   0.0000
   184 C79      -5.2184    4.4888    0.5301   C.2       1 RES1   0.0000
   185 O12      -3.9981    4.5379    0.5255   O.2       1 RES1   0.0000
   186 N8       -5.9505    5.4440   -0.0911   N.am      1 RES1   0.0000
   187 C80      -7.0294    5.1953   -1.0244   C.3       1 RES1   0.0000
   188 C81      -6.6324    5.5370   -2.4869   C.3       1 RES1   0.0000
   189 C82      -5.1693    5.2937   -2.8947   C.3       1 RES1   0.0000
   190 C83      -4.9498    5.7883   -4.3296   C.3       1 RES1   0.0000
   191 C84      -3.5081    5.6335   -4.8341   C.3       1 RES1   0.0000
   192 C85      -2.6523    6.9036   -4.7978   C.3       1 RES1   0.0000
   193 C86      -2.0722    7.2826   -3.4350   C.3       1 RES1   0.0000
   194 C87      -1.1069    8.4577   -3.5785   C.3       1 RES1   0.0000
   195 C88      -5.3507    6.7761   -0.0983   C.3       1 RES1   0.0000
   196 C89      -5.9429    7.6324    1.0217   C.3       1 RES1   0.0000
   197 C90      -5.4240    9.0602    0.8671   C.3       1 RES1   0.0000
   198 C91      -5.6989    9.9492    2.0779   C.3       1 RES1   0.0000
   199 C92      -4.6633    9.7310    3.1801   C.3       1 RES1   0.0000
   200 C93      -4.9395   10.5271    4.4636   C.3       1 RES1   0.0000
   201 C94      -5.6133    9.7148    5.5723   C.3       1 RES1   0.0000
   202 C95      -6.9864    9.1748    5.1944   C.3       1 RES1   0.0000
   203 C96      -0.5189    2.7595    4.5866   C.ar      1 RES1   0.0000
   204 H87       6.5441    3.0139    5.8614   H         1 RES1   0.0000
   205 H88       8.2815    3.2940    5.7317   H         1 RES1   0.0000
   206 H89       7.6404    1.6472    5.7002   H         1 RES1   0.0000
   207 H90       7.1215    3.7617    3.5574   H         1 RES1   0.0000
   208 H91       6.4813    2.1026    3.5829   H         1 RES1   0.0000
   209 H92       8.7296    1.1796    3.4727   H         1 RES1   0.0000
   210 H93       9.4377    2.7838    3.5347   H         1 RES1   0.0000
   211 H94       9.3300    2.9850    1.3006   H         1 RES1   0.0000
   212 H95       7.6044    2.7722    1.3119   H         1 RES1   0.0000
   213 H96       9.2817    0.2871    1.5263   H         1 RES1   0.0000
   214 H97       9.3255    1.1500    0.0056   H         1 RES1   0.0000
   215 H98       7.7836   -0.5136   -0.2552   H         1 RES1   0.0000
   216 H99       6.8786    0.9968   -0.2178   H         1 RES1   0.0000
   217 H100      6.0293    0.5247    2.0036   H         1 RES1   0.0000
   218 H101      7.1223   -0.8223    2.2065   H         1 RES1   0.0000
   219 H102      4.7394   -1.4079    1.8950   H         1 RES1   0.0000
   220 H103      5.8916   -2.2825    0.8693   H         1 RES1   0.0000
   221 H104      5.7267   -0.1246   -1.6917   H         1 RES1   0.0000
   222 H105      4.4945   -1.3039   -2.1700   H         1 RES1   0.0000
   223 H106      7.0685   -2.1952   -0.7976   H         1 RES1   0.0000
   224 H107      6.9443   -1.7865   -2.4875   H         1 RES1   0.0000
   225 H108      6.8487   -4.0270   -2.4771   H         1 RES1   0.0000
   226 H109      5.1569   -3.6191   -2.6837   H         1 RES1   0.0000
   227 H110      6.2680   -4.2588    0.0811   H         1 RES1   0.0000
   228 H111      5.9754   -5.5459   -1.0655   H         1 RES1   0.0000
   229 H112      3.6287   -4.7968   -1.3256   H         1 RES1   0.0000
   230 H113      3.8786   -3.6266   -0.0016   H         1 RES1   0.0000
   231 H114      4.2782   -6.6361    0.2508   H         1 RES1   0.0000
   232 H115      2.7520   -5.8358    0.5904   H         1 RES1   0.0000
   233 H116      3.9914   -4.4119    2.3166   H         1 RES1   0.0000
   234 H117      5.3716   -5.4863    2.0879   H         1 RES1   0.0000
   235 H118      2.5882   -6.3409    3.0114   H         1 RES1   0.0000
   236 H119      4.0466   -6.2743    3.9963   H         1 RES1   0.0000
   237 H120      3.9216   -7.4448    2.6910   H         1 RES1   0.0000
   238 H121      2.9179    0.2850   -2.0821   H         1 RES1   0.0000
   239 H122      3.6269    1.4666   -0.9542   H         1 RES1   0.0000
   240 H123      0.5632    2.8301   -0.6670   H         1 RES1   0.0000
   241 H124      2.2853    2.9286   -0.2422   H         1 RES1   0.0000
   242 H125      1.6362    4.1514    1.3389   H         1 RES1   0.0000
   243 H126      0.6315    5.0020    3.1182   H         1 RES1   0.0000
   244 H127      2.2370    4.4032    3.4143   H         1 RES1   0.0000
   245 H128      2.2850    4.2951    5.7018   H         1 RES1   0.0000
   246 H129      1.2662    3.6777    7.8420   H         1 RES1   0.0000
   247 H130     -0.9800    2.6803    7.9188   H         1 RES1   0.0000
   248 H131     -2.8874    1.9235    6.8595   H         1 RES1   0.0000
   249 H132     -2.3047    0.7316    5.6803   H         1 RES1   0.0000
   250 H133     -4.1911    2.8856    5.2212   H         1 RES1   0.0000
   251 H134     -5.9219    2.0155    3.8411   H         1 RES1   0.0000
   252 H135     -5.3987    1.0751    2.4080   H         1 RES1   0.0000
   253 H136     -6.7518    3.9339    1.9688   H         1 RES1   0.0000
   254 H137     -6.2787    2.5731    0.9236   H         1 RES1   0.0000
   255 H138     -7.9031    5.7983   -0.7543   H         1 RES1   0.0000
   256 H139     -7.3127    4.1448   -0.9542   H         1 RES1   0.0000
   257 H140     -6.8712    6.5844   -2.6860   H         1 RES1   0.0000
   258 H141     -7.2743    4.9434   -3.1421   H         1 RES1   0.0000
   259 H142     -4.9307    4.2290   -2.8257   H         1 RES1   0.0000
   260 H143     -4.4761    5.8163   -2.2353   H         1 RES1   0.0000
   261 H144     -5.2378    6.8386   -4.3854   H         1 RES1   0.0000
   262 H145     -5.6230    5.2399   -4.9933   H         1 RES1   0.0000
   263 H146     -3.5446    5.3046   -5.8729   H         1 RES1   0.0000
   264 H147     -3.0111    4.8514   -4.2578   H         1 RES1   0.0000
   265 H148     -3.2382    7.7418   -5.1765   H         1 RES1   0.0000
   266 H149     -1.8118    6.7668   -5.4826   H         1 RES1   0.0000
   267 H150     -1.5388    6.4267   -3.0085   H         1 RES1   0.0000
   268 H151     -2.8713    7.5585   -2.7441   H         1 RES1   0.0000
   269 H152     -0.2902    8.1998   -4.2506   H         1 RES1   0.0000
   270 H153     -0.6841    8.7408   -2.6169   H         1 RES1   0.0000
   271 H154     -1.6221    9.3215   -3.9909   H         1 RES1   0.0000
   272 H155     -5.5198    7.2769   -1.0488   H         1 RES1   0.0000
   273 H156     -4.2740    6.6639    0.0512   H         1 RES1   0.0000
   274 H157     -5.6651    7.2229    1.9941   H         1 RES1   0.0000
   275 H158     -7.0327    7.6210    0.9551   H         1 RES1   0.0000
   276 H159     -5.8813    9.4989   -0.0192   H         1 RES1   0.0000
   277 H160     -4.3447    9.0285    0.6972   H         1 RES1   0.0000
   278 H161     -6.7005    9.7594    2.4587   H         1 RES1   0.0000
   279 H162     -5.6542   10.9944    1.7691   H         1 RES1   0.0000
   280 H163     -3.6920   10.0320    2.7803   H         1 RES1   0.0000
   281 H164     -4.6088    8.6686    3.4267   H         1 RES1   0.0000
   282 H165     -5.5614   11.3904    4.2231   H         1 RES1   0.0000
   283 H166     -3.9930   10.9069    4.8588   H         1 RES1   0.0000
   284 H167     -5.7178   10.3594    6.4469   H         1 RES1   0.0000
   285 H168     -4.9564    8.8866    5.8577   H         1 RES1   0.0000
   286 H169     -7.6392    9.9893    4.8933   H         1 RES1   0.0000
   287 H170     -7.4401    8.6776    6.0477   H         1 RES1   0.0000
   288 H171     -6.9184    8.4590    4.3792   H         1 RES1   0.0000
   289 H172     -0.9549    2.3810    3.6859   H         1 RES1   0.0000
   290 C97       0.7814   -7.4490   -2.1328   C.3       1 RES1   0.0000
   291 C98      -0.7068   -7.7152   -2.3437   C.3       1 RES1   0.0000
   292 C99      -1.5268   -6.4983   -2.7976   C.3       1 RES1   0.0000
   293 C100     -1.6315   -6.2976   -4.3149   C.3       1 RES1   0.0000
   294 C101     -0.3368   -5.9962   -5.0702   C.3       1 RES1   0.0000
   295 C102      0.3721   -4.7779   -4.4884   C.3       1 RES1   0.0000
   296 C103      1.6006   -4.3494   -5.2842   C.3       1 RES1   0.0000
   297 C104      2.4477   -3.3180   -4.5274   C.3       1 RES1   0.0000
   298 N9        1.7273   -2.1075   -4.1424   N.am      1 RES1   0.0000
   299 C105      1.4117   -1.1872   -5.2325   C.3       1 RES1   0.0000
   300 C106      2.6600   -0.6023   -5.9060   C.3       1 RES1   0.0000
   301 C107      3.5935    0.0875   -4.9110   C.3       1 RES1   0.0000
   302 C108      4.9238    0.4905   -5.5443   C.3       1 RES1   0.0000
   303 C109      5.8293    1.2506   -4.5650   C.3       1 RES1   0.0000
   304 C110      7.2856    0.7966   -4.6595   C.3       1 RES1   0.0000
   305 C111      8.1704    1.4108   -3.5752   C.3       1 RES1   0.0000
   306 C112      9.6049    0.9025   -3.6551   C.3       1 RES1   0.0000
   307 C113      1.3532   -1.8055   -2.9020   C.2       1 RES1   0.0000
   308 O13       0.8642   -0.7163   -2.5607   O.2       1 RES1   0.0000
   309 C114      1.5474   -2.8542   -1.8051   C.3       1 RES1   0.0000
   310 O14       0.7511   -2.4326   -0.7022   O.3       1 RES1   0.0000
   311 C115      0.6743   -3.3927    0.3523   C.3       1 RES1   0.0000
   312 C116     -0.6755   -3.0901    1.0039   C.2       1 RES1   0.0000
   313 O15      -0.9911   -1.8978    1.1871   O.2       1 RES1   0.0000
   314 N10      -1.4693   -4.1057    1.2589   N.am      1 RES1   0.0000
   315 C117     -2.8835   -3.9751    1.5830   C.3       1 RES1   0.0000
   316 C118     -3.6322   -4.9967    0.7667   C.ar      1 RES1   0.0000
   317 C119     -3.4476   -6.3462    1.0517   C.ar      1 RES1   0.0000
   318 C120     -4.0682   -7.3059    0.2731   C.ar      1 RES1   0.0000
   319 C121     -4.8835   -6.9279   -0.7760   C.ar      1 RES1   0.0000
   320 C122     -5.0986   -5.5822   -1.0544   C.ar      1 RES1   0.0000
   321 C123     -6.0071   -5.1804   -2.1892   C.3       1 RES1   0.0000
   322 N11      -5.5567   -5.7448   -3.4435   N.am      1 RES1   0.0000
   323 C124     -4.9458   -5.1348   -4.4735   C.2       1 RES1   0.0000
   324 O16      -4.5391   -5.7501   -5.4367   O.2       1 RES1   0.0000
   325 C125     -4.7761   -3.6154   -4.3811   C.3       1 RES1   0.0000
   326 O17      -6.0346   -3.0326   -4.1174   O.3       1 RES1   0.0000
   327 C126     -6.2606   -1.7870   -4.7083   C.3       1 RES1   0.0000
   328 C127     -5.5951   -0.6579   -3.9201   C.2       1 RES1   0.0000
   329 O18      -4.7780   -0.8801   -3.0386   O.2       1 RES1   0.0000
   330 N12      -6.0207    0.5909   -4.2035   N.am      1 RES1   0.0000
   331 C128     -6.7441    0.9628   -5.4027   C.3       1 RES1   0.0000
   332 C129     -5.7932    1.3032   -6.5578   C.3       1 RES1   0.0000
   333 C130     -6.5439    1.5939   -7.8596   C.3       1 RES1   0.0000
   334 C131     -7.2946    0.3838   -8.4458   C.3       1 RES1   0.0000
   335 C132     -8.7978    0.5914   -8.6741   C.3       1 RES1   0.0000
   336 C133     -9.6878    0.4321   -7.4307   C.3       1 RES1   0.0000
   337 C134     -9.9565    1.7221   -6.6459   C.3       1 RES1   0.0000
   338 C135    -10.4368    1.4319   -5.2265   C.3       1 RES1   0.0000
   339 C136     -5.5944    1.6721   -3.3341   C.3       1 RES1   0.0000
   340 C137     -6.1536    1.5021   -1.9182   C.3       1 RES1   0.0000
   341 C138     -7.6768    1.3422   -1.8478   C.3       1 RES1   0.0000
   342 C139     -8.1059    1.4134   -0.3842   C.3       1 RES1   0.0000
   343 C140     -9.5371    1.0214   -0.0312   C.3       1 RES1   0.0000
   344 C141     -9.7565    1.3404    1.4531   C.3       1 RES1   0.0000
   345 C142    -11.0568    0.8067    2.0549   C.3       1 RES1   0.0000
   346 C143    -11.0450   -0.7059    2.2281   C.3       1 RES1   0.0000
   347 C144     -4.4559   -4.6214   -0.2842   C.ar      1 RES1   0.0000
   348 H173      1.2588   -8.3336   -1.7206   H         1 RES1   0.0000
   349 H174      0.9407   -6.6269   -1.4316   H         1 RES1   0.0000
   350 H175      1.2803   -7.2121   -3.0669   H         1 RES1   0.0000
   351 H176     -1.1229   -8.0840   -1.4016   H         1 RES1   0.0000
   352 H177     -0.8211   -8.5116   -3.0791   H         1 RES1   0.0000
   353 H178     -1.1462   -5.5896   -2.3172   H         1 RES1   0.0000
   354 H179     -2.5495   -6.6295   -2.4335   H         1 RES1   0.0000
   355 H180     -2.3232   -5.4726   -4.4911   H         1 RES1   0.0000
   356 H181     -2.0860   -7.1870   -4.7494   H         1 RES1   0.0000
   357 H182     -0.5907   -5.8154   -6.1164   H         1 RES1   0.0000
   358 H183      0.3335   -6.8548   -5.0373   H         1 RES1   0.0000
   359 H184      0.6907   -5.0380   -3.4787   H         1 RES1   0.0000
   360 H185     -0.3409   -3.9517   -4.4231   H         1 RES1   0.0000
   361 H186      1.2924   -3.9762   -6.2605   H         1 RES1   0.0000
   362 H187      2.2422   -5.2117   -5.4717   H         1 RES1   0.0000
   363 H188      3.2865   -3.0154   -5.1576   H         1 RES1   0.0000
   364 H189      2.8735   -3.7733   -3.6341   H         1 RES1   0.0000
   365 H190      0.7930   -0.3929   -4.8068   H         1 RES1   0.0000
   366 H191      0.8148   -1.7241   -5.9761   H         1 RES1   0.0000
   367 H192      2.3318    0.1122   -6.6623   H         1 RES1   0.0000
   368 H193      3.2058   -1.3842   -6.4380   H         1 RES1   0.0000
   369 H194      3.8022   -0.5939   -4.0796   H         1 RES1   0.0000
   370 H195      3.0929    0.9703   -4.5076   H         1 RES1   0.0000
   371 H196      4.7387    1.1044   -6.4239   H         1 RES1   0.0000
   372 H197      5.4303   -0.4151   -5.8823   H         1 RES1   0.0000
   373 H198      5.4714    1.0999   -3.5409   H         1 RES1   0.0000
   374 H199      5.7812    2.3204   -4.7666   H         1 RES1   0.0000
   375 H200      7.6835    1.0646   -5.6393   H         1 RES1   0.0000
   376 H201      7.3276   -0.2925   -4.5737   H         1 RES1   0.0000
   377 H202      7.7593    1.1654   -2.5905   H         1 RES1   0.0000
   378 H203      8.1670    2.4984   -3.6767   H         1 RES1   0.0000
   379 H204      9.6376   -0.1807   -3.5662   H         1 RES1   0.0000
   380 H205     10.2040    1.3290   -2.8554   H         1 RES1   0.0000
   381 H206     10.0543    1.1788   -4.6040   H         1 RES1   0.0000
   382 H207      2.6006   -2.9163   -1.5013   H         1 RES1   0.0000
   383 H208      1.1944   -3.8302   -2.1535   H         1 RES1   0.0000
   384 H209      1.5103   -3.2438    1.0548   H         1 RES1   0.0000
   385 H210      0.6997   -4.4115   -0.0522   H         1 RES1   0.0000
   386 H211     -1.1588   -5.0539    1.0940   H         1 RES1   0.0000
   387 H212     -3.1870   -2.9547    1.3397   H         1 RES1   0.0000
   388 H213     -3.0255   -4.1489    2.6531   H         1 RES1   0.0000
   389 H214     -2.8297   -6.6475    1.8868   H         1 RES1   0.0000
   390 H215     -3.9273   -8.3502    0.5012   H         1 RES1   0.0000
   391 H216     -5.3704   -7.6848   -1.3710   H         1 RES1   0.0000
   392 H217     -6.0477   -4.0965   -2.2810   H         1 RES1   0.0000
   393 H218     -7.0206   -5.5419   -1.9840   H         1 RES1   0.0000
   394 H219     -5.6796   -6.7401   -3.5765   H         1 RES1   0.0000
   395 H220     -4.3838   -3.2757   -5.3485   H         1 RES1   0.0000
   396 H221     -4.0474   -3.3577   -3.5969   H         1 RES1   0.0000
   397 H222     -7.3455   -1.6555   -4.6731   H         1 RES1   0.0000
   398 H223     -5.9236   -1.7817   -5.7547   H         1 RES1   0.0000
   399 H224     -7.3738    1.8244   -5.1674   H         1 RES1   0.0000
   400 H225     -7.4013    0.1523   -5.7065   H         1 RES1   0.0000
   401 H226     -5.1051    0.4663   -6.7105   H         1 RES1   0.0000
   402 H227     -5.1921    2.1768   -6.2826   H         1 RES1   0.0000
   403 H228     -5.8102    1.9500   -8.5835   H         1 RES1   0.0000
   404 H229     -7.2365    2.4169   -7.6893   H         1 RES1   0.0000
   405 H230     -7.1524   -0.4955   -7.8150   H         1 RES1   0.0000
   406 H231     -6.8529    0.1429   -9.4125   H         1 RES1   0.0000
   407 H232     -9.1162   -0.1515   -9.4078   H         1 RES1   0.0000
   408 H233     -8.9584    1.5726   -9.1211   H         1 RES1   0.0000
   409 H234     -9.2407   -0.3136   -6.7672   H         1 RES1   0.0000
   410 H235    -10.6553    0.0309   -7.7407   H         1 RES1   0.0000
   411 H236    -10.7163    2.3035   -7.1722   H         1 RES1   0.0000
   412 H237     -9.0556    2.3366   -6.6035   H         1 RES1   0.0000
   413 H238    -11.3161    0.7943   -5.2418   H         1 RES1   0.0000
   414 H239    -10.6944    2.3567   -4.7171   H         1 RES1   0.0000
   415 H240     -9.6637    0.9285   -4.6481   H         1 RES1   0.0000
   416 H241     -5.9517    2.6051   -3.7727   H         1 RES1   0.0000
   417 H242     -4.4950    1.6990   -3.2851   H         1 RES1   0.0000
   418 H243     -5.8432    2.3773   -1.3403   H         1 RES1   0.0000
   419 H244     -5.6927    0.6143   -1.4815   H         1 RES1   0.0000
   420 H245     -7.9667    0.3854   -2.2827   H         1 RES1   0.0000
   421 H246     -8.1719    2.1339   -2.4129   H         1 RES1   0.0000
   422 H247     -7.9767    2.4458   -0.0520   H         1 RES1   0.0000
   423 H248     -7.4383    0.7732    0.2021   H         1 RES1   0.0000
   424 H249     -9.6913   -0.0408   -0.2175   H         1 RES1   0.0000
   425 H250    -10.2493    1.5848   -0.6355   H         1 RES1   0.0000
   426 H251     -9.7305    2.4278    1.5752   H         1 RES1   0.0000
   427 H252     -8.9186    0.9276    2.0261   H         1 RES1   0.0000
   428 H253    -11.9027    1.1011    1.4325   H         1 RES1   0.0000
   429 H254    -11.1912    1.2725    3.0348   H         1 RES1   0.0000
   430 H255    -10.9948   -1.2103    1.2679   H         1 RES1   0.0000
   431 H256    -11.9486   -1.0308    2.7327   H         1 RES1   0.0000
   432 H257    -10.1908   -1.0137    2.8273   H         1 RES1   0.0000
   433 H258     -4.6046   -3.5741   -0.5091   H         1 RES1   0.0000
@<TRIPOS>BOND
     1     1    20    1
     2     1    22    1
     3     1    25    1
     4     1   164    1
     5     1   166    1
     6     1   169    1
     7     1   308    1
     8     1   310    1
     9     1   313    1
    10     2     3    1
    11     2    60    1
    12     2    61    1
    13     2    62    1
    14     3     4    1
    15     3    63    1
    16     3    64    1
    17     4     5    1
    18     4    65    1
    19     4    66    1
    20     5     6    1
    21     5    67    1
    22     5    68    1
    23     6     7    1
    24     6    69    1
    25     6    70    1
    26     7     8    1
    27     7    71    1
    28     7    72    1
    29     8     9    1
    30     8    73    1
    31     8    74    1
    32     9    10    1
    33     9    75    1
    34     9    76    1
    35    10    11    1
    36    10    19    1
    37    11    12    1
    38    11    77    1
    39    11    78    1
    40    12    13    1
    41    12    79    1
    42    12    80    1
    43    13    14    1
    44    13    81    1
    45    13    82    1
    46    14    15    1
    47    14    83    1
    48    14    84    1
    49    15    16    1
    50    15    85    1
    51    15    86    1
    52    16    17    1
    53    16    87    1
    54    16    88    1
    55    17    18    1
    56    17    89    1
    57    17    90    1
    58    18    91    1
    59    18    92    1
    60    18    93    1
    61    19    20    2
    62    19    21    1
    63    21    22    1
    64    21    94    1
    65    21    95    1
    66    22    23    1
    67    23    24    1
    68    23    96    1
    69    23    97    1
    70    24    25    2
    71    24    26    1
    72    26    27    1
    73    26    98    1
    74    27    28    1
    75    27    99    1
    76    27   100    1
    77    28    29    1
    78    28    59    2
    79    29    30    2
    80    29   101    1
    81    30    31    1
    82    30   102    1
    83    31    32    2
    84    31   103    1
    85    32    33    1
    86    32    59    1
    87    33    34    1
    88    33   104    1
    89    33   105    1
    90    34    35    1
    91    34   106    1
    92    35    36    2
    93    35    37    1
    94    37    38    1
    95    37   107    1
    96    37   108    1
    97    38    39    1
    98    39    40    1
    99    39   109    1
   100    39   110    1
   101    40    41    2
   102    40    42    1
   103    42    43    1
   104    42    51    1
   105    43    44    1
   106    43   111    1
   107    43   112    1
   108    44    45    1
   109    44   113    1
   110    44   114    1
   111    45    46    1
   112    45   115    1
   113    45   116    1
   114    46    47    1
   115    46   117    1
   116    46   118    1
   117    47    48    1
   118    47   119    1
   119    47   120    1
   120    48    49    1
   121    48   121    1
   122    48   122    1
   123    49    50    1
   124    49   123    1
   125    49   124    1
   126    50   125    1
   127    50   126    1
   128    50   127    1
   129    51    52    1
   130    51   128    1
   131    51   129    1
   132    52    53    1
   133    52   130    1
   134    52   131    1
   135    53    54    1
   136    53   132    1
   137    53   133    1
   138    54    55    1
   139    54   134    1
   140    54   135    1
   141    55    56    1
   142    55   136    1
   143    55   137    1
   144    56    57    1
   145    56   138    1
   146    56   139    1
   147    57    58    1
   148    57   140    1
   149    57   141    1
   150    58   142    1
   151    58   143    1
   152    58   144    1
   153    59   145    1
   154   146   147    1
   155   146   204    1
   156   146   205    1
   157   146   206    1
   158   147   148    1
   159   147   207    1
   160   147   208    1
   161   148   149    1
   162   148   209    1
   163   148   210    1
   164   149   150    1
   165   149   211    1
   166   149   212    1
   167   150   151    1
   168   150   213    1
   169   150   214    1
   170   151   152    1
   171   151   215    1
   172   151   216    1
   173   152   153    1
   174   152   217    1
   175   152   218    1
   176   153   154    1
   177   153   219    1
   178   153   220    1
   179   154   155    1
   180   154   163    1
   181   155   156    1
   182   155   221    1
   183   155   222    1
   184   156   157    1
   185   156   223    1
   186   156   224    1
   187   157   158    1
   188   157   225    1
   189   157   226    1
   190   158   159    1
   191   158   227    1
   192   158   228    1
   193   159   160    1
   194   159   229    1
   195   159   230    1
   196   160   161    1
   197   160   231    1
   198   160   232    1
   199   161   162    1
   200   161   233    1
   201   161   234    1
   202   162   235    1
   203   162   236    1
   204   162   237    1
   205   163   164    2
   206   163   165    1
   207   165   166    1
   208   165   238    1
   209   165   239    1
   210   166   167    1
   211   167   168    1
   212   167   240    1
   213   167   241    1
   214   168   169    2
   215   168   170    1
   216   170   171    1
   217   170   242    1
   218   171   172    1
   219   171   243    1
   220   171   244    1
   221   172   173    1
   222   172   203    2
   223   173   174    2
   224   173   245    1
   225   174   175    1
   226   174   246    1
   227   175   176    2
   228   175   247    1
   229   176   177    1
   230   176   203    1
   231   177   178    1
   232   177   248    1
   233   177   249    1
   234   178   179    1
   235   178   250    1
   236   179   180    2
   237   179   181    1
   238   181   182    1
   239   181   251    1
   240   181   252    1
   241   182   183    1
   242   183   184    1
   243   183   253    1
   244   183   254    1
   245   184   185    2
   246   184   186    1
   247   186   187    1
   248   186   195    1
   249   187   188    1
   250   187   255    1
   251   187   256    1
   252   188   189    1
   253   188   257    1
   254   188   258    1
   255   189   190    1
   256   189   259    1
   257   189   260    1
   258   190   191    1
   259   190   261    1
   260   190   262    1
   261   191   192    1
   262   191   263    1
   263   191   264    1
   264   192   193    1
   265   192   265    1
   266   192   266    1
   267   193   194    1
   268   193   267    1
   269   193   268    1
   270   194   269    1
   271   194   270    1
   272   194   271    1
   273   195   196    1
   274   195   272    1
   275   195   273    1
   276   196   197    1
   277   196   274    1
   278   196   275    1
   279   197   198    1
   280   197   276    1
   281   197   277    1
   282   198   199    1
   283   198   278    1
   284   198   279    1
   285   199   200    1
   286   199   280    1
   287   199   281    1
   288   200   201    1
   289   200   282    1
   290   200   283    1
   291   201   202    1
   292   201   284    1
   293   201   285    1
   294   202   286    1
   295   202   287    1
   296   202   288    1
   297   203   289    1
   298   290   291    1
   299   290   348    1
   300   290   349    1
   301   290   350    1
   302   291   292    1
   303   291   351    1
   304   291   352    1
   305   292   293    1
   306   292   353    1
   307   292   354    1
   308   293   294    1
   309   293   355    1
   310   293   356    1
   311   294   295    1
   312   294   357    1
   313   294   358    1
   314   295   296    1
   315   295   359    1
   316   295   360    1
   317   296   297    1
   318   296   361    1
   319   296   362    1
   320   297   298    1
   321   297   363    1
   322   297   364    1
   323   298   299    1
   324   298   307    1
   325   299   300    1
   326   299   365    1
   327   299   366    1
   328   300   301    1
   329   300   367    1
   330   300   368    1
   331   301   302    1
   332   301   369    1
   333   301   370    1
   334   302   303    1
   335   302   371    1
   336   302   372    1
   337   303   304    1
   338   303   373    1
   339   303   374    1
   340   304   305    1
   341   304   375    1
   342   304   376    1
   343   305   306    1
   344   305   377    1
   345   305   378    1
   346   306   379    1
   347   306   380    1
   348   306   381    1
   349   307   308    2
   350   307   309    1
   351   309   310    1
   352   309   382    1
   353   309   383    1
   354   310   311    1
   355   311   312    1
   356   311   384    1
   357   311   385    1
   358   312   313    2
   359   312   314    1
   360   314   315    1
   361   314   386    1
   362   315   316    1
   363   315   387    1
   364   315   388    1
   365   316   317    1
   366   316   347    2
   367   317   318    2
   368   317   389    1
   369   318   319    1
   370   318   390    1
   371   319   320    2
   372   319   391    1
   373   320   321    1
   374   320   347    1
   375   321   322    1
   376   321   392    1
   377   321   393    1
   378   322   323    1
   379   322   394    1
   380   323   324    2
   381   323   325    1
   382   325   326    1
   383   325   395    1
   384   325   396    1
   385   326   327    1
   386   327   328    1
   387   327   397    1
   388   327   398    1
   389   328   329    2
   390   328   330    1
   391   330   331    1
   392   330   339    1
   393   331   332    1
   394   331   399    1
   395   331   400    1
   396   332   333    1
   397   332   401    1
   398   332   402    1
   399   333   334    1
   400   333   403    1
   401   333   404    1
   402   334   335    1
   403   334   405    1
   404   334   406    1
   405   335   336    1
   406   335   407    1
   407   335   408    1
   408   336   337    1
   409   336   409    1
   410   336   410    1
   411   337   338    1
   412   337   411    1
   413   337   412    1
   414   338   413    1
   415   338   414    1
   416   338   415    1
   417   339   340    1
   418   339   416    1
   419   339   417    1
   420   340   341    1
   421   340   418    1
   422   340   419    1
   423   341   342    1
   424   341   420    1
   425   341   421    1
   426   342   343    1
   427   342   422    1
   428   342   423    1
   429   343   344    1
   430   343   424    1
   431   343   425    1
   432   344   345    1
   433   344   426    1
   434   344   427    1
   435   345   346    1
   436   345   428    1
   437   345   429    1
   438   346   430    1
   439   346   431    1
   440   346   432    1
   441   347   433    1
@<TRIPOS>SUBSTRUCTURE
     1 RES1      433 GROUP             0 ****  ****    0  
