@<TRIPOS>MOLECULE
cn9_YICLED_0_nunpairedes_0_charge_3 Charge: 3 Unpaired_Electrons: 6 XTB_Unpaired_Electrons: 0 XTB_Charge: 3
   265   270     1     0     0
SMALL
NoCharges
****
Generated from Architector

@<TRIPOS>ATOM
     1 Eu1       0.1223    0.4010    0.1234   Eu        1 RES1   0.0000
     2 C1       -2.9594   -8.2831    2.0538   C.3       1 RES1   0.0000
     3 C2       -4.1017   -8.9443    2.8178   C.3       1 RES1   0.0000
     4 C3       -5.4333   -8.1943    2.7259   C.3       1 RES1   0.0000
     5 C4       -5.4456   -6.8437    3.4536   C.3       1 RES1   0.0000
     6 C5       -5.1249   -5.6637    2.5382   C.3       1 RES1   0.0000
     7 C6       -5.0545   -4.3535    3.3156   C.3       1 RES1   0.0000
     8 C7       -4.6899   -3.1644    2.4238   C.3       1 RES1   0.0000
     9 C8       -4.2281   -1.9916    3.2898   C.3       1 RES1   0.0000
    10 N1       -3.7272   -0.8286    2.5683   N.am      1 RES1   0.0000
    11 C9       -4.6319    0.3144    2.5258   C.3       1 RES1   0.0000
    12 C10      -5.8671    0.0062    1.6718   C.3       1 RES1   0.0000
    13 C11      -6.8366    1.1873    1.6270   C.3       1 RES1   0.0000
    14 C12      -7.6778    1.3318    2.9009   C.3       1 RES1   0.0000
    15 C13      -9.0127    0.5763    2.8808   C.3       1 RES1   0.0000
    16 C14      -8.9187   -0.9584    2.9118   C.3       1 RES1   0.0000
    17 C15      -8.9975   -1.6103    1.5283   C.3       1 RES1   0.0000
    18 C16      -8.8884   -3.1287    1.6081   C.3       1 RES1   0.0000
    19 C17      -2.5377   -0.7728    1.9840   C.2       1 RES1   0.0000
    20 O1       -2.0429    0.2644    1.4960   O.2       1 RES1   0.0000
    21 C18      -1.7319   -2.0659    1.8405   C.3       1 RES1   0.0000
    22 O2       -0.3472   -1.8076    1.6353   O.3       1 RES1   0.0000
    23 C19       0.4165   -1.7565    2.8473   C.3       1 RES1   0.0000
    24 P1        0.7328    0.0365    3.3747   P.3       1 RES1   0.0000
    25 O3        0.4953    0.9582    2.2192   O.2       1 RES1   0.0000
    26 C20       2.4447    0.1221    4.0152   C.3       1 RES1   0.0000
    27 C21       2.6593    1.2987    4.9684   C.3       1 RES1   0.0000
    28 C22       2.5610    2.6546    4.2656   C.3       1 RES1   0.0000
    29 C23       3.8491    3.0012    3.5304   C.3       1 RES1   0.0000
    30 C24      -0.4676    0.2244    4.7484   C.3       1 RES1   0.0000
    31 C25      -0.9530    1.6535    4.9805   C.3       1 RES1   0.0000
    32 C26      -1.8356    1.7424    6.2237   C.3       1 RES1   0.0000
    33 C27      -3.1689    1.0296    6.0530   C.3       1 RES1   0.0000
    34 H1       -2.1114   -8.9600    1.9832   H         1 RES1   0.0000
    35 H2       -2.6221   -7.3782    2.5558   H         1 RES1   0.0000
    36 H3       -3.2757   -8.0323    1.0432   H         1 RES1   0.0000
    37 H4       -3.8184   -9.0506    3.8664   H         1 RES1   0.0000
    38 H5       -4.2484   -9.9490    2.4197   H         1 RES1   0.0000
    39 H6       -6.2011   -8.8368    3.1573   H         1 RES1   0.0000
    40 H7       -5.6900   -8.0417    1.6765   H         1 RES1   0.0000
    41 H8       -4.7247   -6.8767    4.2710   H         1 RES1   0.0000
    42 H9       -6.4266   -6.6780    3.8984   H         1 RES1   0.0000
    43 H10      -5.8876   -5.5940    1.7624   H         1 RES1   0.0000
    44 H11      -4.1700   -5.8370    2.0434   H         1 RES1   0.0000
    45 H12      -4.3023   -4.4535    4.1008   H         1 RES1   0.0000
    46 H13      -6.0124   -4.1682    3.7996   H         1 RES1   0.0000
    47 H14      -5.5495   -2.8751    1.8212   H         1 RES1   0.0000
    48 H15      -3.9014   -3.4634    1.7345   H         1 RES1   0.0000
    49 H16      -3.4663   -2.3375    3.9919   H         1 RES1   0.0000
    50 H17      -5.0696   -1.6553    3.8953   H         1 RES1   0.0000
    51 H18      -4.0761    1.1660    2.1318   H         1 RES1   0.0000
    52 H19      -4.9411    0.5479    3.5481   H         1 RES1   0.0000
    53 H20      -6.3830   -0.8502    2.0963   H         1 RES1   0.0000
    54 H21      -5.5515   -0.2628    0.6594   H         1 RES1   0.0000
    55 H22      -7.5155    1.0580    0.7857   H         1 RES1   0.0000
    56 H23      -6.2697    2.1039    1.4523   H         1 RES1   0.0000
    57 H24      -7.9130    2.3859    3.0382   H         1 RES1   0.0000
    58 H25      -7.1051    1.0175    3.7740   H         1 RES1   0.0000
    59 H26      -9.5857    0.8799    2.0036   H         1 RES1   0.0000
    60 H27      -9.5770    0.9042    3.7543   H         1 RES1   0.0000
    61 H28      -9.7474   -1.3520    3.5038   H         1 RES1   0.0000
    62 H29      -8.0003   -1.2621    3.4250   H         1 RES1   0.0000
    63 H30      -8.2145   -1.2236    0.8720   H         1 RES1   0.0000
    64 H31      -9.9555   -1.3524    1.0741   H         1 RES1   0.0000
    65 H32      -7.9606   -3.4311    2.0908   H         1 RES1   0.0000
    66 H33      -8.9170   -3.5653    0.6130   H         1 RES1   0.0000
    67 H34      -9.7161   -3.5370    2.1805   H         1 RES1   0.0000
    68 H35      -2.0730   -2.5528    0.9205   H         1 RES1   0.0000
    69 H36      -1.8756   -2.7513    2.6779   H         1 RES1   0.0000
    70 H37       1.3563   -2.2641    2.6481   H         1 RES1   0.0000
    71 H38      -0.0910   -2.2997    3.6517   H         1 RES1   0.0000
    72 H39       3.1036    0.2139    3.1447   H         1 RES1   0.0000
    73 H40       2.6581   -0.8147    4.5377   H         1 RES1   0.0000
    74 H41       3.6524    1.2019    5.4124   H         1 RES1   0.0000
    75 H42       1.9419    1.2441    5.7879   H         1 RES1   0.0000
    76 H43       2.3691    3.4297    5.0095   H         1 RES1   0.0000
    77 H44       1.7283    2.6409    3.5559   H         1 RES1   0.0000
    78 H45       4.6839    3.0558    4.2255   H         1 RES1   0.0000
    79 H46       3.7554    3.9582    3.0252   H         1 RES1   0.0000
    80 H47       4.0741    2.2462    2.7824   H         1 RES1   0.0000
    81 H48      -0.0003   -0.1748    5.6512   H         1 RES1   0.0000
    82 H49      -1.3267   -0.4067    4.5108   H         1 RES1   0.0000
    83 H50      -1.5079    1.9785    4.1009   H         1 RES1   0.0000
    84 H51      -0.1086    2.3265    5.0988   H         1 RES1   0.0000
    85 H52      -2.0265    2.7914    6.4429   H         1 RES1   0.0000
    86 H53      -1.3034    1.3223    7.0778   H         1 RES1   0.0000
    87 H54      -3.6985    1.4366    5.1943   H         1 RES1   0.0000
    88 H55      -3.7839    1.1799    6.9344   H         1 RES1   0.0000
    89 H56      -3.0390   -0.0426    5.9170   H         1 RES1   0.0000
    90 C28      -6.0125   -5.9471   -3.2734   C.3       1 RES1   0.0000
    91 C29      -6.4911   -6.4915   -4.6142   C.3       1 RES1   0.0000
    92 C30      -5.4212   -6.4950   -5.7082   C.3       1 RES1   0.0000
    93 C31      -4.9903   -5.0970   -6.1708   C.3       1 RES1   0.0000
    94 C32      -3.7402   -4.5841   -5.4546   C.3       1 RES1   0.0000
    95 C33      -3.4461   -3.1279   -5.8042   C.3       1 RES1   0.0000
    96 C34      -2.2436   -2.5704   -5.0372   C.3       1 RES1   0.0000
    97 C35      -2.2589   -1.0421   -5.1138   C.3       1 RES1   0.0000
    98 N2       -1.2058   -0.3539   -4.3746   N.am      1 RES1   0.0000
    99 C36      -0.1004    0.1849   -5.1590   C.3       1 RES1   0.0000
   100 C37       0.8233   -0.9489   -5.6158   C.3       1 RES1   0.0000
   101 C38       2.1495   -0.4240   -6.1689   C.3       1 RES1   0.0000
   102 C39       2.0610    0.0845   -7.6124   C.3       1 RES1   0.0000
   103 C40       2.3233   -0.9865   -8.6778   C.3       1 RES1   0.0000
   104 C41       1.2633   -2.0904   -8.7902   C.3       1 RES1   0.0000
   105 C42       1.5919   -3.3523   -7.9886   C.3       1 RES1   0.0000
   106 C43       0.4724   -4.3843   -8.0730   C.3       1 RES1   0.0000
   107 C44      -1.1591   -0.2689   -3.0560   C.2       1 RES1   0.0000
   108 O4       -0.3063    0.3834   -2.4206   O.2       1 RES1   0.0000
   109 C45      -2.2059   -1.0039   -2.2179   C.3       1 RES1   0.0000
   110 O5       -2.3357   -0.3574   -0.9633   O.3       1 RES1   0.0000
   111 C46      -3.2088    0.7770   -0.9914   C.3       1 RES1   0.0000
   112 P2       -2.3057    2.4401   -0.9500   P.3       1 RES1   0.0000
   113 O6       -0.8969    2.2651   -0.4756   O.2       1 RES1   0.0000
   114 C47      -3.3637    3.4192    0.1801   C.3       1 RES1   0.0000
   115 C48      -3.0014    4.8993    0.3225   C.3       1 RES1   0.0000
   116 C49      -1.6084    5.1164    0.9135   C.3       1 RES1   0.0000
   117 C50      -1.5025    4.6364    2.3585   C.3       1 RES1   0.0000
   118 C51      -2.4679    3.0261   -2.6833   C.3       1 RES1   0.0000
   119 C52      -1.5903    4.2149   -3.0790   C.3       1 RES1   0.0000
   120 C53      -1.9377    4.7165   -4.4837   C.3       1 RES1   0.0000
   121 C54      -1.5687    3.7263   -5.5812   C.3       1 RES1   0.0000
   122 H57      -6.7470   -6.1537   -2.4990   H         1 RES1   0.0000
   123 H58      -5.8682   -4.8696   -3.3156   H         1 RES1   0.0000
   124 H59      -5.0764   -6.4208   -2.9845   H         1 RES1   0.0000
   125 H60      -7.3506   -5.9105   -4.9513   H         1 RES1   0.0000
   126 H61      -6.8321   -7.5166   -4.4704   H         1 RES1   0.0000
   127 H62      -5.8270   -7.0383   -6.5609   H         1 RES1   0.0000
   128 H63      -4.5472   -7.0471   -5.3599   H         1 RES1   0.0000
   129 H64      -5.8131   -4.4006   -6.0048   H         1 RES1   0.0000
   130 H65      -4.7916   -5.1095   -7.2429   H         1 RES1   0.0000
   131 H66      -2.8864   -5.2057   -5.7266   H         1 RES1   0.0000
   132 H67      -3.8780   -4.6686   -4.3767   H         1 RES1   0.0000
   133 H68      -4.3271   -2.5292   -5.5650   H         1 RES1   0.0000
   134 H69      -3.2701   -3.0389   -6.8752   H         1 RES1   0.0000
   135 H70      -1.3186   -2.9666   -5.4541   H         1 RES1   0.0000
   136 H71      -2.2993   -2.9018   -4.0009   H         1 RES1   0.0000
   137 H72      -3.2339   -0.6827   -4.7729   H         1 RES1   0.0000
   138 H73      -2.1627   -0.7489   -6.1578   H         1 RES1   0.0000
   139 H74       0.4347    0.8978   -4.5282   H         1 RES1   0.0000
   140 H75      -0.5034    0.7285   -6.0148   H         1 RES1   0.0000
   141 H76       0.3151   -1.5294   -6.3819   H         1 RES1   0.0000
   142 H77       1.0067   -1.6089   -4.7612   H         1 RES1   0.0000
   143 H78       2.8924   -1.2198   -6.1374   H         1 RES1   0.0000
   144 H79       2.5059    0.3787   -5.5179   H         1 RES1   0.0000
   145 H80       2.8138    0.8624   -7.7458   H         1 RES1   0.0000
   146 H81       1.0884    0.5474   -7.7887   H         1 RES1   0.0000
   147 H82       3.2972   -1.4415   -8.4940   H         1 RES1   0.0000
   148 H83       2.3915   -0.4691   -9.6338   H         1 RES1   0.0000
   149 H84       1.1723   -2.3852   -9.8355   H         1 RES1   0.0000
   150 H85       0.2877   -1.6949   -8.4947   H         1 RES1   0.0000
   151 H86       1.7808   -3.1127   -6.9403   H         1 RES1   0.0000
   152 H87       2.5059   -3.7957   -8.3860   H         1 RES1   0.0000
   153 H88      -0.4699   -3.9706   -7.7147   H         1 RES1   0.0000
   154 H89       0.7120   -5.2615   -7.4751   H         1 RES1   0.0000
   155 H90       0.3306   -4.7052   -9.1012   H         1 RES1   0.0000
   156 H91      -1.8272   -2.0089   -1.9989   H         1 RES1   0.0000
   157 H92      -3.1742   -1.0881   -2.7196   H         1 RES1   0.0000
   158 H93      -3.8406    0.7072   -0.1034   H         1 RES1   0.0000
   159 H94      -3.8579    0.7389   -1.8715   H         1 RES1   0.0000
   160 H95      -3.2781    2.9358    1.1567   H         1 RES1   0.0000
   161 H96      -4.3926    3.3188   -0.1751   H         1 RES1   0.0000
   162 H97      -3.7434    5.3625    0.9785   H         1 RES1   0.0000
   163 H98      -3.0747    5.4021   -0.6436   H         1 RES1   0.0000
   164 H99      -1.3839    6.1835    0.8766   H         1 RES1   0.0000
   165 H100     -0.8685    4.5901    0.3068   H         1 RES1   0.0000
   166 H101     -2.3231    5.0304    2.9561   H         1 RES1   0.0000
   167 H102     -0.5687    4.9759    2.7993   H         1 RES1   0.0000
   168 H103     -1.5121    3.5482    2.4028   H         1 RES1   0.0000
   169 H104     -3.5204    3.2786   -2.8269   H         1 RES1   0.0000
   170 H105     -2.2249    2.1754   -3.3244   H         1 RES1   0.0000
   171 H106     -0.5429    3.9145   -3.0430   H         1 RES1   0.0000
   172 H107     -1.7184    5.0340   -2.3726   H         1 RES1   0.0000
   173 H108     -1.4014    5.6492   -4.6585   H         1 RES1   0.0000
   174 H109     -3.0050    4.9388   -4.5375   H         1 RES1   0.0000
   175 H110     -0.5149    3.4617   -5.5153   H         1 RES1   0.0000
   176 H111     -1.7439    4.1783   -6.5525   H         1 RES1   0.0000
   177 H112     -2.1694    2.8203   -5.5198   H         1 RES1   0.0000
   178 C55       0.9811   -8.1245   -4.0311   C.3       1 RES1   0.0000
   179 C56       1.7915   -9.4106   -3.9148   C.3       1 RES1   0.0000
   180 C57       2.2481   -9.7425   -2.4921   C.3       1 RES1   0.0000
   181 C58       3.2882   -8.7696   -1.9217   C.3       1 RES1   0.0000
   182 C59       2.6633   -7.6398   -1.1038   C.3       1 RES1   0.0000
   183 C60       3.6768   -6.5588   -0.7375   C.3       1 RES1   0.0000
   184 C61       3.0139   -5.3842   -0.0155   C.3       1 RES1   0.0000
   185 C62       3.9846   -4.2058    0.0838   C.3       1 RES1   0.0000
   186 N3        3.4738   -3.0406    0.7965   N.am      1 RES1   0.0000
   187 C63       3.9507   -2.8823    2.1651   C.3       1 RES1   0.0000
   188 C64       3.4271   -4.0157    3.0580   C.3       1 RES1   0.0000
   189 C65       3.5836   -3.7010    4.5458   C.3       1 RES1   0.0000
   190 C66       5.0052   -3.9164    5.0758   C.3       1 RES1   0.0000
   191 C67       5.2150   -5.2870    5.7270   C.3       1 RES1   0.0000
   192 C68       5.1189   -6.4920    4.7824   C.3       1 RES1   0.0000
   193 C69       3.7229   -7.1116    4.6836   C.3       1 RES1   0.0000
   194 C70       3.7245   -8.3564    3.8029   C.3       1 RES1   0.0000
   195 C71       2.5801   -2.1952    0.2947   C.2       1 RES1   0.0000
   196 O7        2.1737   -1.1624    0.8677   O.2       1 RES1   0.0000
   197 C72       1.9619   -2.4900   -1.0709   C.3       1 RES1   0.0000
   198 O8        1.4251   -1.2944   -1.6122   O.3       1 RES1   0.0000
   199 C73       2.3718   -0.5162   -2.3523   C.3       1 RES1   0.0000
   200 P3        2.9678    1.0352   -1.4531   P.3       1 RES1   0.0000
   201 O9        2.0349    1.3709   -0.3295   O.2       1 RES1   0.0000
   202 C74       2.9351    2.2760   -2.7997   C.3       1 RES1   0.0000
   203 C75       3.6183    3.6109   -2.4909   C.3       1 RES1   0.0000
   204 C76       3.1432    4.2608   -1.1920   C.3       1 RES1   0.0000
   205 C77       1.6678    4.6423   -1.2297   C.3       1 RES1   0.0000
   206 C78       4.6601    0.5867   -0.9096   C.3       1 RES1   0.0000
   207 C79       5.3039    1.6079    0.0280   C.3       1 RES1   0.0000
   208 C80       6.6490    1.1361    0.5836   C.3       1 RES1   0.0000
   209 C81       6.5290   -0.0699    1.5062   C.3       1 RES1   0.0000
   210 H113      0.5172   -8.0584   -5.0123   H         1 RES1   0.0000
   211 H114      1.6132   -7.2481   -3.9036   H         1 RES1   0.0000
   212 H115      0.1903   -8.1058   -3.2838   H         1 RES1   0.0000
   213 H116      2.6632   -9.3446   -4.5672   H         1 RES1   0.0000
   214 H117      1.1808  -10.2383   -4.2760   H         1 RES1   0.0000
   215 H118      2.6760  -10.7446   -2.5120   H         1 RES1   0.0000
   216 H119      1.3806   -9.7756   -1.8311   H         1 RES1   0.0000
   217 H120      3.8637   -8.3454   -2.7448   H         1 RES1   0.0000
   218 H121      3.9884   -9.3125   -1.2860   H         1 RES1   0.0000
   219 H122      2.2271   -8.0533   -0.1936   H         1 RES1   0.0000
   220 H123      1.8554   -7.1834   -1.6741   H         1 RES1   0.0000
   221 H124      4.1555   -6.1954   -1.6484   H         1 RES1   0.0000
   222 H125      4.4532   -6.9861   -0.1045   H         1 RES1   0.0000
   223 H126      2.6986   -5.7024    0.9766   H         1 RES1   0.0000
   224 H127      2.1181   -5.0930   -0.5645   H         1 RES1   0.0000
   225 H128      4.3022   -3.9172   -0.9210   H         1 RES1   0.0000
   226 H129      4.8781   -4.5346    0.6140   H         1 RES1   0.0000
   227 H130      3.6110   -1.9111    2.5256   H         1 RES1   0.0000
   228 H131      5.0438   -2.8731    2.1605   H         1 RES1   0.0000
   229 H132      3.9666   -4.9324    2.8282   H         1 RES1   0.0000
   230 H133      2.3697   -4.1807    2.8296   H         1 RES1   0.0000
   231 H134      2.9108   -4.3359    5.1196   H         1 RES1   0.0000
   232 H135      3.2739   -2.6690    4.7203   H         1 RES1   0.0000
   233 H136      5.2142   -3.1599    5.8327   H         1 RES1   0.0000
   234 H137      5.7299   -3.7759    4.2727   H         1 RES1   0.0000
   235 H138      4.4975   -5.4090    6.5394   H         1 RES1   0.0000
   236 H139      6.2054   -5.2775    6.1801   H         1 RES1   0.0000
   237 H140      5.7902   -7.2698    5.1475   H         1 RES1   0.0000
   238 H141      5.4787   -6.2120    3.7886   H         1 RES1   0.0000
   239 H142      2.9989   -6.3990    4.2841   H         1 RES1   0.0000
   240 H143      3.3869   -7.3906    5.6835   H         1 RES1   0.0000
   241 H144      4.0819   -8.1239    2.8005   H         1 RES1   0.0000
   242 H145      2.7216   -8.7711    3.7230   H         1 RES1   0.0000
   243 H146      4.3731   -9.1190    4.2255   H         1 RES1   0.0000
   244 H147      1.1085   -3.1617   -0.9214   H         1 RES1   0.0000
   245 H148      2.6670   -2.9559   -1.7660   H         1 RES1   0.0000
   246 H149      1.8616   -0.1988   -3.2641   H         1 RES1   0.0000
   247 H150      3.2343   -1.1269   -2.6361   H         1 RES1   0.0000
   248 H151      1.8701    2.4352   -3.0022   H         1 RES1   0.0000
   249 H152      3.3996    1.8239   -3.6785   H         1 RES1   0.0000
   250 H153      3.4157    4.2897   -3.3242   H         1 RES1   0.0000
   251 H154      4.7002    3.4709   -2.4521   H         1 RES1   0.0000
   252 H155      3.7394    5.1591   -1.0240   H         1 RES1   0.0000
   253 H156      3.3109    3.5817   -0.3530   H         1 RES1   0.0000
   254 H157      1.4365    5.1810   -2.1473   H         1 RES1   0.0000
   255 H158      1.4312    5.2891   -0.3886   H         1 RES1   0.0000
   256 H159      1.0415    3.7515   -1.1591   H         1 RES1   0.0000
   257 H160      5.2703    0.4415   -1.8022   H         1 RES1   0.0000
   258 H161      4.5578   -0.3685   -0.3867   H         1 RES1   0.0000
   259 H162      4.6155    1.8024    0.8517   H         1 RES1   0.0000
   260 H163      5.4608    2.5484   -0.4961   H         1 RES1   0.0000
   261 H164      7.0875    1.9633    1.1424   H         1 RES1   0.0000
   262 H165      7.3244    0.9025   -0.2411   H         1 RES1   0.0000
   263 H166      5.7991    0.1218    2.2910   H         1 RES1   0.0000
   264 H167      7.4876   -0.2670    1.9757   H         1 RES1   0.0000
   265 H168      6.2356   -0.9630    0.9568   H         1 RES1   0.0000
@<TRIPOS>BOND
     1     1    20    1
     2     1    22    1
     3     1    25    1
     4     1   108    1
     5     1   110    1
     6     1   113    1
     7     1   196    1
     8     1   198    1
     9     1   201    1
    10     2     3    1
    11     2    34    1
    12     2    35    1
    13     2    36    1
    14     3     4    1
    15     3    37    1
    16     3    38    1
    17     4     5    1
    18     4    39    1
    19     4    40    1
    20     5     6    1
    21     5    41    1
    22     5    42    1
    23     6     7    1
    24     6    43    1
    25     6    44    1
    26     7     8    1
    27     7    45    1
    28     7    46    1
    29     8     9    1
    30     8    47    1
    31     8    48    1
    32     9    10    1
    33     9    49    1
    34     9    50    1
    35    10    11    1
    36    10    19    1
    37    11    12    1
    38    11    51    1
    39    11    52    1
    40    12    13    1
    41    12    53    1
    42    12    54    1
    43    13    14    1
    44    13    55    1
    45    13    56    1
    46    14    15    1
    47    14    57    1
    48    14    58    1
    49    15    16    1
    50    15    59    1
    51    15    60    1
    52    16    17    1
    53    16    61    1
    54    16    62    1
    55    17    18    1
    56    17    63    1
    57    17    64    1
    58    18    65    1
    59    18    66    1
    60    18    67    1
    61    19    20    2
    62    19    21    1
    63    21    22    1
    64    21    68    1
    65    21    69    1
    66    22    23    1
    67    23    24    1
    68    23    70    1
    69    23    71    1
    70    24    25    2
    71    24    26    1
    72    24    30    1
    73    26    27    1
    74    26    72    1
    75    26    73    1
    76    27    28    1
    77    27    74    1
    78    27    75    1
    79    28    29    1
    80    28    76    1
    81    28    77    1
    82    29    78    1
    83    29    79    1
    84    29    80    1
    85    30    31    1
    86    30    81    1
    87    30    82    1
    88    31    32    1
    89    31    83    1
    90    31    84    1
    91    32    33    1
    92    32    85    1
    93    32    86    1
    94    33    87    1
    95    33    88    1
    96    33    89    1
    97    90    91    1
    98    90   122    1
    99    90   123    1
   100    90   124    1
   101    91    92    1
   102    91   125    1
   103    91   126    1
   104    92    93    1
   105    92   127    1
   106    92   128    1
   107    93    94    1
   108    93   129    1
   109    93   130    1
   110    94    95    1
   111    94   131    1
   112    94   132    1
   113    95    96    1
   114    95   133    1
   115    95   134    1
   116    96    97    1
   117    96   135    1
   118    96   136    1
   119    97    98    1
   120    97   137    1
   121    97   138    1
   122    98    99    1
   123    98   107    1
   124    99   100    1
   125    99   139    1
   126    99   140    1
   127   100   101    1
   128   100   141    1
   129   100   142    1
   130   101   102    1
   131   101   143    1
   132   101   144    1
   133   102   103    1
   134   102   145    1
   135   102   146    1
   136   103   104    1
   137   103   147    1
   138   103   148    1
   139   104   105    1
   140   104   149    1
   141   104   150    1
   142   105   106    1
   143   105   151    1
   144   105   152    1
   145   106   153    1
   146   106   154    1
   147   106   155    1
   148   107   108    2
   149   107   109    1
   150   109   110    1
   151   109   156    1
   152   109   157    1
   153   110   111    1
   154   111   112    1
   155   111   158    1
   156   111   159    1
   157   112   113    2
   158   112   114    1
   159   112   118    1
   160   114   115    1
   161   114   160    1
   162   114   161    1
   163   115   116    1
   164   115   162    1
   165   115   163    1
   166   116   117    1
   167   116   164    1
   168   116   165    1
   169   117   166    1
   170   117   167    1
   171   117   168    1
   172   118   119    1
   173   118   169    1
   174   118   170    1
   175   119   120    1
   176   119   171    1
   177   119   172    1
   178   120   121    1
   179   120   173    1
   180   120   174    1
   181   121   175    1
   182   121   176    1
   183   121   177    1
   184   178   179    1
   185   178   210    1
   186   178   211    1
   187   178   212    1
   188   179   180    1
   189   179   213    1
   190   179   214    1
   191   180   181    1
   192   180   215    1
   193   180   216    1
   194   181   182    1
   195   181   217    1
   196   181   218    1
   197   182   183    1
   198   182   219    1
   199   182   220    1
   200   183   184    1
   201   183   221    1
   202   183   222    1
   203   184   185    1
   204   184   223    1
   205   184   224    1
   206   185   186    1
   207   185   225    1
   208   185   226    1
   209   186   187    1
   210   186   195    1
   211   187   188    1
   212   187   227    1
   213   187   228    1
   214   188   189    1
   215   188   229    1
   216   188   230    1
   217   189   190    1
   218   189   231    1
   219   189   232    1
   220   190   191    1
   221   190   233    1
   222   190   234    1
   223   191   192    1
   224   191   235    1
   225   191   236    1
   226   192   193    1
   227   192   237    1
   228   192   238    1
   229   193   194    1
   230   193   239    1
   231   193   240    1
   232   194   241    1
   233   194   242    1
   234   194   243    1
   235   195   196    2
   236   195   197    1
   237   197   198    1
   238   197   244    1
   239   197   245    1
   240   198   199    1
   241   199   200    1
   242   199   246    1
   243   199   247    1
   244   200   201    2
   245   200   202    1
   246   200   206    1
   247   202   203    1
   248   202   248    1
   249   202   249    1
   250   203   204    1
   251   203   250    1
   252   203   251    1
   253   204   205    1
   254   204   252    1
   255   204   253    1
   256   205   254    1
   257   205   255    1
   258   205   256    1
   259   206   207    1
   260   206   257    1
   261   206   258    1
   262   207   208    1
   263   207   259    1
   264   207   260    1
   265   208   209    1
   266   208   261    1
   267   208   262    1
   268   209   263    1
   269   209   264    1
   270   209   265    1
@<TRIPOS>SUBSTRUCTURE
     1 RES1      265 GROUP             0 ****  ****    0  
