@<TRIPOS>MOLECULE
cn9_YICLED_0_nunpairedes_0_charge_3 Charge: 3 Unpaired_Electrons: 6 XTB_Unpaired_Electrons: 0 XTB_Charge: 3
   205   210     1     0     0
SMALL
NoCharges
****
Generated from Architector

@<TRIPOS>ATOM
     1 Eu1       0.1422   -0.0834   -0.2230   Eu        1 RES1   0.0000
     2 C1        6.2356    4.2138    1.4812   C.3       1 RES1   0.0000
     3 C2        5.0517    3.6119    2.2280   C.3       1 RES1   0.0000
     4 C3        3.6987    4.0166    1.6447   C.3       1 RES1   0.0000
     5 C4        3.4717    3.5976    0.1890   C.3       1 RES1   0.0000
     6 C5        3.3693    2.0880   -0.0519   C.3       1 RES1   0.0000
     7 C6        3.3809    1.7428   -1.5398   C.3       1 RES1   0.0000
     8 O1        2.7084    0.4964   -1.7842   O.3       1 RES1   0.0000
     9 C7        3.5334   -0.4367   -2.4720   C.3       1 RES1   0.0000
    10 C8        2.8177   -1.7787   -2.5649   C.3       1 RES1   0.0000
    11 C9        2.9558   -2.6690   -1.2982   C.3       1 RES1   0.0000
    12 C10       3.2276   -1.7967   -0.0630   C.2       1 RES1   0.0000
    13 O2        2.3469   -1.0136    0.3556   O.2       1 RES1   0.0000
    14 N1        4.4167   -1.8830    0.5379   N.am      1 RES1   0.0000
    15 C11       4.7218   -1.0324    1.6760   C.3       1 RES1   0.0000
    16 C12       5.4800   -2.8296    0.2153   C.3       1 RES1   0.0000
    17 C13       5.2788   -4.1647    0.9464   C.3       1 RES1   0.0000
    18 C14       6.3388   -5.2256    0.6230   C.3       1 RES1   0.0000
    19 C15       6.3602   -5.6792   -0.8325   C.3       1 RES1   0.0000
    20 C16       1.5826   -3.3237   -1.1235   C.2       1 RES1   0.0000
    21 O3        0.6257   -2.5614   -0.9330   O.2       1 RES1   0.0000
    22 N2        1.4226   -4.6405   -1.2465   N.am      1 RES1   0.0000
    23 C17       2.4775   -5.6177   -1.3991   C.3       1 RES1   0.0000
    24 C18       0.0753   -5.2092   -1.2054   C.3       1 RES1   0.0000
    25 C19      -0.1962   -6.2192   -2.3258   C.3       1 RES1   0.0000
    26 C20      -0.1063   -5.6476   -3.7437   C.3       1 RES1   0.0000
    27 C21      -1.3545   -4.8751   -4.1496   C.3       1 RES1   0.0000
    28 H1        7.1622    3.9637    1.9897   H         1 RES1   0.0000
    29 H2        6.1589    5.2974    1.4469   H         1 RES1   0.0000
    30 H3        6.3002    3.8403    0.4615   H         1 RES1   0.0000
    31 H4        5.0846    3.9513    3.2652   H         1 RES1   0.0000
    32 H5        5.1362    2.5223    2.2341   H         1 RES1   0.0000
    33 H6        3.6146    5.1038    1.6894   H         1 RES1   0.0000
    34 H7        2.9082    3.6136    2.2826   H         1 RES1   0.0000
    35 H8        4.2774    4.0111   -0.4223   H         1 RES1   0.0000
    36 H9        2.5352    4.0521   -0.1379   H         1 RES1   0.0000
    37 H10       2.4133    1.7069    0.3344   H         1 RES1   0.0000
    38 H11       4.1900    1.5769    0.4528   H         1 RES1   0.0000
    39 H12       4.4117    1.6928   -1.9015   H         1 RES1   0.0000
    40 H13       2.8481    2.5082   -2.1004   H         1 RES1   0.0000
    41 H14       4.4930   -0.5434   -1.9444   H         1 RES1   0.0000
    42 H15       3.7385   -0.0658   -3.4864   H         1 RES1   0.0000
    43 H16       3.1953   -2.3288   -3.4288   H         1 RES1   0.0000
    44 H17       1.7592   -1.5469   -2.7382   H         1 RES1   0.0000
    45 H18       3.7390   -3.3995   -1.4599   H         1 RES1   0.0000
    46 H19       3.8948   -0.3586    1.8719   H         1 RES1   0.0000
    47 H20       5.6162   -0.4441    1.4674   H         1 RES1   0.0000
    48 H21       4.9062   -1.6330    2.5659   H         1 RES1   0.0000
    49 H22       6.4252   -2.3952    0.5471   H         1 RES1   0.0000
    50 H23       5.5517   -2.9556   -0.8650   H         1 RES1   0.0000
    51 H24       4.2835   -4.5572    0.7229   H         1 RES1   0.0000
    52 H25       5.3179   -3.9731    2.0218   H         1 RES1   0.0000
    53 H26       6.1344   -6.0909    1.2584   H         1 RES1   0.0000
    54 H27       7.3243   -4.8421    0.8921   H         1 RES1   0.0000
    55 H28       5.4067   -6.1108   -1.1316   H         1 RES1   0.0000
    56 H29       7.1213   -6.4429   -0.9633   H         1 RES1   0.0000
    57 H30       6.6035   -4.8582   -1.5026   H         1 RES1   0.0000
    58 H31       3.4207   -5.2587   -1.0054   H         1 RES1   0.0000
    59 H32       2.6110   -5.8855   -2.4479   H         1 RES1   0.0000
    60 H33       2.1977   -6.5160   -0.8490   H         1 RES1   0.0000
    61 H34      -0.6346   -4.3838   -1.2605   H         1 RES1   0.0000
    62 H35      -0.0593   -5.7113   -0.2416   H         1 RES1   0.0000
    63 H36      -1.2009   -6.6190   -2.1687   H         1 RES1   0.0000
    64 H37       0.4907   -7.0606   -2.2411   H         1 RES1   0.0000
    65 H38       0.0189   -6.4779   -4.4401   H         1 RES1   0.0000
    66 H39       0.7703   -5.0020   -3.8384   H         1 RES1   0.0000
    67 H40      -2.2127   -5.5429   -4.1749   H         1 RES1   0.0000
    68 H41      -1.2242   -4.4675   -5.1499   H         1 RES1   0.0000
    69 H42      -1.5496   -4.0631   -3.4486   H         1 RES1   0.0000
    70 C22      -3.6757   -2.1668    6.5199   C.3       1 RES1   0.0000
    71 C23      -2.2862   -1.7661    6.0428   C.3       1 RES1   0.0000
    72 C24      -2.0136   -0.2600    6.1432   C.3       1 RES1   0.0000
    73 C25      -2.9237    0.6688    5.3252   C.3       1 RES1   0.0000
    74 C26      -2.5752    0.8587    3.8410   C.3       1 RES1   0.0000
    75 C27      -2.5320   -0.4476    3.0493   C.3       1 RES1   0.0000
    76 O4       -2.6113   -0.2519    1.6200   O.3       1 RES1   0.0000
    77 C28      -3.8465   -0.7189    1.0893   C.3       1 RES1   0.0000
    78 C29      -3.8823   -0.7324   -0.4424   C.3       1 RES1   0.0000
    79 C30      -3.0935   -1.8544   -1.1839   C.3       1 RES1   0.0000
    80 C31      -2.3648   -2.6045   -0.0628   C.2       1 RES1   0.0000
    81 O5       -1.3555   -2.1240    0.4704   O.2       1 RES1   0.0000
    82 N3       -2.9671   -3.7051    0.4016   N.am      1 RES1   0.0000
    83 C32      -2.3877   -4.3959    1.5370   C.3       1 RES1   0.0000
    84 C33      -4.2026   -4.3124   -0.0884   C.3       1 RES1   0.0000
    85 C34      -3.9140   -5.3936   -1.1356   C.3       1 RES1   0.0000
    86 C35      -5.1740   -5.9712   -1.7869   C.3       1 RES1   0.0000
    87 C36      -5.6989   -5.1138   -2.9303   C.3       1 RES1   0.0000
    88 C37      -2.1059   -1.3166   -2.2277   C.2       1 RES1   0.0000
    89 O6       -0.9946   -0.8791   -1.8800   O.2       1 RES1   0.0000
    90 N4       -2.3894   -1.3757   -3.5331   N.am      1 RES1   0.0000
    91 C38      -3.6464   -1.7553   -4.1346   C.3       1 RES1   0.0000
    92 C39      -1.2594   -1.1814   -4.4564   C.3       1 RES1   0.0000
    93 C40      -1.5463   -0.4621   -5.7665   C.3       1 RES1   0.0000
    94 C41      -1.9620    1.0001   -5.6228   C.3       1 RES1   0.0000
    95 C42      -0.9401    1.8395   -4.8637   C.3       1 RES1   0.0000
    96 H43      -3.7708   -3.2495    6.5414   H         1 RES1   0.0000
    97 H44      -3.8513   -1.7935    7.5244   H         1 RES1   0.0000
    98 H45      -4.4526   -1.7789    5.8659   H         1 RES1   0.0000
    99 H46      -1.5540   -2.2670    6.6792   H         1 RES1   0.0000
   100 H47      -2.1318   -2.1268    5.0249   H         1 RES1   0.0000
   101 H48      -2.1366    0.0200    7.1924   H         1 RES1   0.0000
   102 H49      -0.9663   -0.0715    5.8871   H         1 RES1   0.0000
   103 H50      -3.9546    0.3273    5.4170   H         1 RES1   0.0000
   104 H51      -2.8765    1.6603    5.7840   H         1 RES1   0.0000
   105 H52      -3.3315    1.5165    3.3999   H         1 RES1   0.0000
   106 H53      -1.6081    1.3606    3.7610   H         1 RES1   0.0000
   107 H54      -1.5950   -0.9701    3.2476   H         1 RES1   0.0000
   108 H55      -3.3553   -1.0871    3.3742   H         1 RES1   0.0000
   109 H56      -4.0641   -1.7167    1.4887   H         1 RES1   0.0000
   110 H57      -4.6546   -0.0527    1.4254   H         1 RES1   0.0000
   111 H58      -4.9372   -0.8296   -0.7007   H         1 RES1   0.0000
   112 H59      -3.5166    0.2334   -0.7767   H         1 RES1   0.0000
   113 H60      -3.7807   -2.5308   -1.6858   H         1 RES1   0.0000
   114 H61      -1.3722   -4.0407    1.6923   H         1 RES1   0.0000
   115 H62      -2.9752   -4.2079    2.4386   H         1 RES1   0.0000
   116 H63      -2.3805   -5.4661    1.3472   H         1 RES1   0.0000
   117 H64      -4.6975   -4.7671    0.7730   H         1 RES1   0.0000
   118 H65      -4.8883   -3.5576   -0.4761   H         1 RES1   0.0000
   119 H66      -3.2691   -4.9782   -1.9127   H         1 RES1   0.0000
   120 H67      -3.3731   -6.2045   -0.6471   H         1 RES1   0.0000
   121 H68      -4.9304   -6.9575   -2.1839   H         1 RES1   0.0000
   122 H69      -5.9518   -6.1043   -1.0349   H         1 RES1   0.0000
   123 H70      -4.9441   -5.0111   -3.7070   H         1 RES1   0.0000
   124 H71      -6.5703   -5.5863   -3.3712   H         1 RES1   0.0000
   125 H72      -5.9933   -4.1236   -2.5915   H         1 RES1   0.0000
   126 H73      -4.4327   -1.8673   -3.3960   H         1 RES1   0.0000
   127 H74      -3.9707   -0.9813   -4.8303   H         1 RES1   0.0000
   128 H75      -3.5334   -2.6875   -4.6912   H         1 RES1   0.0000
   129 H76      -0.4824   -0.6389   -3.9170   H         1 RES1   0.0000
   130 H77      -0.8671   -2.1735   -4.6917   H         1 RES1   0.0000
   131 H78      -0.6168   -0.5011   -6.3391   H         1 RES1   0.0000
   132 H79      -2.2983   -0.9989   -6.3422   H         1 RES1   0.0000
   133 H80      -2.0691    1.4138   -6.6269   H         1 RES1   0.0000
   134 H81      -2.9364    1.0681   -5.1371   H         1 RES1   0.0000
   135 H82       0.0460    1.6968   -5.2988   H         1 RES1   0.0000
   136 H83      -1.1912    2.8948   -4.9466   H         1 RES1   0.0000
   137 H84      -0.8986    1.5805   -3.8043   H         1 RES1   0.0000
   138 C43       0.5575   -4.7645    4.9069   C.3       1 RES1   0.0000
   139 C44       0.6306   -3.7709    3.7543   C.3       1 RES1   0.0000
   140 C45       1.0309   -2.3881    4.2558   C.3       1 RES1   0.0000
   141 C46       1.1541   -1.3286    3.1529   C.3       1 RES1   0.0000
   142 C47       1.1817    0.0669    3.7812   C.3       1 RES1   0.0000
   143 C48       1.5368    1.2078    2.8357   C.3       1 RES1   0.0000
   144 O7        0.5222    1.4252    1.8274   O.3       1 RES1   0.0000
   145 C49       0.0531    2.7869    1.7910   C.3       1 RES1   0.0000
   146 C50      -1.3737    2.8288    1.2288   C.3       1 RES1   0.0000
   147 C51      -1.6156    3.5000   -0.1451   C.3       1 RES1   0.0000
   148 C52      -0.3384    3.7850   -0.9908   C.2       1 RES1   0.0000
   149 O8        0.4436    2.8448   -1.1752   O.2       1 RES1   0.0000
   150 N5       -0.2335    5.0209   -1.4899   N.am      1 RES1   0.0000
   151 C53      -1.1838    6.0724   -1.1234   C.3       1 RES1   0.0000
   152 C54       0.6916    5.5720   -2.5067   C.3       1 RES1   0.0000
   153 C55       1.9648    4.8628   -2.9427   C.3       1 RES1   0.0000
   154 C56       1.7978    3.8659   -4.0869   C.3       1 RES1   0.0000
   155 C57       3.1369    3.5606   -4.7503   C.3       1 RES1   0.0000
   156 C58      -2.3435    2.5173   -1.0617   C.2       1 RES1   0.0000
   157 O9       -1.7875    1.4236   -1.2706   O.2       1 RES1   0.0000
   158 N6       -3.4995    2.8600   -1.6350   N.am      1 RES1   0.0000
   159 C59      -4.2642    4.0364   -1.2764   C.3       1 RES1   0.0000
   160 C60      -3.9084    2.1818   -2.8754   C.3       1 RES1   0.0000
   161 C61      -5.3981    1.9807   -3.1657   C.3       1 RES1   0.0000
   162 C62      -6.0960    0.9304   -2.3070   C.3       1 RES1   0.0000
   163 C63      -7.5520    0.7234   -2.7149   C.3       1 RES1   0.0000
   164 H85       0.2182   -5.7399    4.5697   H         1 RES1   0.0000
   165 H86      -0.1354   -4.4032    5.6624   H         1 RES1   0.0000
   166 H87       1.5298   -4.8886    5.3740   H         1 RES1   0.0000
   167 H88      -0.3524   -3.7001    3.2902   H         1 RES1   0.0000
   168 H89       1.3358   -4.1179    2.9951   H         1 RES1   0.0000
   169 H90       1.9875   -2.4630    4.7766   H         1 RES1   0.0000
   170 H91       0.2899   -2.0680    4.9897   H         1 RES1   0.0000
   171 H92       0.3178   -1.4049    2.4309   H         1 RES1   0.0000
   172 H93       2.0777   -1.5082    2.6015   H         1 RES1   0.0000
   173 H94       1.9204    0.0716    4.5862   H         1 RES1   0.0000
   174 H95       0.2095    0.2858    4.2233   H         1 RES1   0.0000
   175 H96       2.4948    1.0088    2.3476   H         1 RES1   0.0000
   176 H97       1.6517    2.1193    3.4291   H         1 RES1   0.0000
   177 H98       0.7414    3.4047    1.2017   H         1 RES1   0.0000
   178 H99       0.0398    3.1782    2.8142   H         1 RES1   0.0000
   179 H100     -1.9965    3.3581    1.9525   H         1 RES1   0.0000
   180 H101     -1.7295    1.7870    1.1942   H         1 RES1   0.0000
   181 H102     -2.1950    4.3956    0.0142   H         1 RES1   0.0000
   182 H103     -2.1417    5.9304   -1.6230   H         1 RES1   0.0000
   183 H104     -0.8048    7.0357   -1.4509   H         1 RES1   0.0000
   184 H105     -1.3144    6.1406   -0.0441   H         1 RES1   0.0000
   185 H106      1.0050    6.5381   -2.1023   H         1 RES1   0.0000
   186 H107      0.0804    5.7634   -3.3963   H         1 RES1   0.0000
   187 H108      2.4433    4.3997   -2.0860   H         1 RES1   0.0000
   188 H109      2.6316    5.6552   -3.2917   H         1 RES1   0.0000
   189 H110      1.1381    4.2957   -4.8425   H         1 RES1   0.0000
   190 H111      1.3353    2.9513   -3.7131   H         1 RES1   0.0000
   191 H112      3.5493    4.4614   -5.1984   H         1 RES1   0.0000
   192 H113      3.0149    2.8204   -5.5365   H         1 RES1   0.0000
   193 H114      3.8566    3.1839   -4.0286   H         1 RES1   0.0000
   194 H115     -3.9631    4.9067   -1.8602   H         1 RES1   0.0000
   195 H116     -4.1824    4.2458   -0.2141   H         1 RES1   0.0000
   196 H117     -5.3106    3.8319   -1.4867   H         1 RES1   0.0000
   197 H118     -3.4079    1.2125   -2.8745   H         1 RES1   0.0000
   198 H119     -3.4994    2.7853   -3.6944   H         1 RES1   0.0000
   199 H120     -5.4490    1.6515   -4.2066   H         1 RES1   0.0000
   200 H121     -5.9456    2.9205   -3.1171   H         1 RES1   0.0000
   201 H122     -6.0453    1.2089   -1.2515   H         1 RES1   0.0000
   202 H123     -5.5717   -0.0169   -2.4405   H         1 RES1   0.0000
   203 H124     -8.1271    1.6401   -2.6183   H         1 RES1   0.0000
   204 H125     -8.0177   -0.0315   -2.0843   H         1 RES1   0.0000
   205 H126     -7.6133    0.3886   -3.7481   H         1 RES1   0.0000
@<TRIPOS>BOND
     1     1     8    1
     2     1    13    1
     3     1    21    1
     4     1    76    1
     5     1    81    1
     6     1    89    1
     7     1   144    1
     8     1   149    1
     9     1   157    1
    10     2     3    1
    11     2    28    1
    12     2    29    1
    13     2    30    1
    14     3     4    1
    15     3    31    1
    16     3    32    1
    17     4     5    1
    18     4    33    1
    19     4    34    1
    20     5     6    1
    21     5    35    1
    22     5    36    1
    23     6     7    1
    24     6    37    1
    25     6    38    1
    26     7     8    1
    27     7    39    1
    28     7    40    1
    29     8     9    1
    30     9    10    1
    31     9    41    1
    32     9    42    1
    33    10    11    1
    34    10    43    1
    35    10    44    1
    36    11    12    1
    37    11    20    1
    38    11    45    1
    39    12    13    2
    40    12    14    1
    41    14    15    1
    42    14    16    1
    43    15    46    1
    44    15    47    1
    45    15    48    1
    46    16    17    1
    47    16    49    1
    48    16    50    1
    49    17    18    1
    50    17    51    1
    51    17    52    1
    52    18    19    1
    53    18    53    1
    54    18    54    1
    55    19    55    1
    56    19    56    1
    57    19    57    1
    58    20    21    2
    59    20    22    1
    60    22    23    1
    61    22    24    1
    62    23    58    1
    63    23    59    1
    64    23    60    1
    65    24    25    1
    66    24    61    1
    67    24    62    1
    68    25    26    1
    69    25    63    1
    70    25    64    1
    71    26    27    1
    72    26    65    1
    73    26    66    1
    74    27    67    1
    75    27    68    1
    76    27    69    1
    77    70    71    1
    78    70    96    1
    79    70    97    1
    80    70    98    1
    81    71    72    1
    82    71    99    1
    83    71   100    1
    84    72    73    1
    85    72   101    1
    86    72   102    1
    87    73    74    1
    88    73   103    1
    89    73   104    1
    90    74    75    1
    91    74   105    1
    92    74   106    1
    93    75    76    1
    94    75   107    1
    95    75   108    1
    96    76    77    1
    97    77    78    1
    98    77   109    1
    99    77   110    1
   100    78    79    1
   101    78   111    1
   102    78   112    1
   103    79    80    1
   104    79    88    1
   105    79   113    1
   106    80    81    2
   107    80    82    1
   108    82    83    1
   109    82    84    1
   110    83   114    1
   111    83   115    1
   112    83   116    1
   113    84    85    1
   114    84   117    1
   115    84   118    1
   116    85    86    1
   117    85   119    1
   118    85   120    1
   119    86    87    1
   120    86   121    1
   121    86   122    1
   122    87   123    1
   123    87   124    1
   124    87   125    1
   125    88    89    2
   126    88    90    1
   127    90    91    1
   128    90    92    1
   129    91   126    1
   130    91   127    1
   131    91   128    1
   132    92    93    1
   133    92   129    1
   134    92   130    1
   135    93    94    1
   136    93   131    1
   137    93   132    1
   138    94    95    1
   139    94   133    1
   140    94   134    1
   141    95   135    1
   142    95   136    1
   143    95   137    1
   144   138   139    1
   145   138   164    1
   146   138   165    1
   147   138   166    1
   148   139   140    1
   149   139   167    1
   150   139   168    1
   151   140   141    1
   152   140   169    1
   153   140   170    1
   154   141   142    1
   155   141   171    1
   156   141   172    1
   157   142   143    1
   158   142   173    1
   159   142   174    1
   160   143   144    1
   161   143   175    1
   162   143   176    1
   163   144   145    1
   164   145   146    1
   165   145   177    1
   166   145   178    1
   167   146   147    1
   168   146   179    1
   169   146   180    1
   170   147   148    1
   171   147   156    1
   172   147   181    1
   173   148   149    2
   174   148   150    1
   175   150   151    1
   176   150   152    1
   177   151   182    1
   178   151   183    1
   179   151   184    1
   180   152   153    1
   181   152   185    1
   182   152   186    1
   183   153   154    1
   184   153   187    1
   185   153   188    1
   186   154   155    1
   187   154   189    1
   188   154   190    1
   189   155   191    1
   190   155   192    1
   191   155   193    1
   192   156   157    2
   193   156   158    1
   194   158   159    1
   195   158   160    1
   196   159   194    1
   197   159   195    1
   198   159   196    1
   199   160   161    1
   200   160   197    1
   201   160   198    1
   202   161   162    1
   203   161   199    1
   204   161   200    1
   205   162   163    1
   206   162   201    1
   207   162   202    1
   208   163   203    1
   209   163   204    1
   210   163   205    1
@<TRIPOS>SUBSTRUCTURE
     1 RES1      205 GROUP             0 ****  ****    0  
