@<TRIPOS>MOLECULE
capped_square_antiprismatic_0_nunpairedes_0_charge_1 Charge: 1 Unpaired_Electrons: 6 XTB_Unpaired_Electrons: 0 XTB_Charge: 1
    64    72     1     0     0
SMALL
NoCharges
****
Generated from Architector

@<TRIPOS>ATOM
     1 Eu1       0.0336    1.2172    0.6289   Eu        1 RES1   0.0000
     2 C1        0.9703   -0.1398    6.8949   C.3       1 RES1   0.0000
     3 C2        0.6387    1.2469    6.3425   C.3       1 RES1   0.0000
     4 C3        0.8320    2.2844    7.4608   C.3       1 RES1   0.0000
     5 C4        1.5999    1.5869    5.1928   C.3       1 RES1   0.0000
     6 C5       -0.8638    1.3100    5.9560   C.3       1 RES1   0.0000
     7 C6       -1.3118    0.9016    4.5985   C.ar      1 RES1   0.0000
     8 C7       -2.5131    1.2119    3.9643   C.ar      1 RES1   0.0000
     9 C8       -2.3841    0.7492    2.6499   C.ar      1 RES1   0.0000
    10 C9       -3.1311    1.1546    1.4410   C.ar      1 RES1   0.0000
    11 C10      -4.4813    1.0539    1.1239   C.ar      1 RES1   0.0000
    12 C11      -4.9521    1.7353    0.0065   C.ar      1 RES1   0.0000
    13 C12      -4.0998    2.5546   -0.7238   C.ar      1 RES1   0.0000
    14 C13      -2.7604    2.5629   -0.3755   C.ar      1 RES1   0.0000
    15 C14      -1.6420    3.4088   -0.8437   C.ar      1 RES1   0.0000
    16 C15      -0.4467    2.9199   -1.4555   C.ar      1 RES1   0.0000
    17 C16       0.4888    3.9498   -1.2649   C.ar      1 RES1   0.0000
    18 C17       1.8931    3.9401   -1.7651   C.3       1 RES1   0.0000
    19 C18       2.8303    5.1469   -1.5604   C.3       1 RES1   0.0000
    20 C19       3.2181    5.3107   -0.0909   C.3       1 RES1   0.0000
    21 C20       4.0950    4.8256   -2.3671   C.3       1 RES1   0.0000
    22 C21       2.2507    6.4579   -2.0943   C.3       1 RES1   0.0000
    23 N1       -0.1625    4.9043   -0.5753   N.ar      1 RES1   0.0000
    24 N2       -1.4200    4.5872   -0.2872   N.ar      1 RES1   0.0000
    25 N3       -2.2865    1.8230    0.6393   N.ar      1 RES1   0.0000
    26 N4       -1.1728    0.1764    2.4862   N.ar      1 RES1   0.0000
    27 N5       -0.5708    0.2477    3.6893   N.ar      1 RES1   0.0000
    28 H1        2.0049   -0.1749    7.2236   H         1 RES1   0.0000
    29 H2        0.8187   -0.9210    6.1531   H         1 RES1   0.0000
    30 H3        0.3491   -0.3646    7.7575   H         1 RES1   0.0000
    31 H4        1.8306    2.2142    7.8886   H         1 RES1   0.0000
    32 H5        0.1077    2.1261    8.2583   H         1 RES1   0.0000
    33 H6        0.7059    3.2945    7.0718   H         1 RES1   0.0000
    34 H7        2.5369    1.9631    5.5991   H         1 RES1   0.0000
    35 H8        1.1890    2.3544    4.5369   H         1 RES1   0.0000
    36 H9        1.8623    0.7114    4.6000   H         1 RES1   0.0000
    37 H10      -1.2008    2.3421    6.0937   H         1 RES1   0.0000
    38 H11      -1.4157    0.7109    6.6860   H         1 RES1   0.0000
    39 H12      -3.3535    1.7213    4.3899   H         1 RES1   0.0000
    40 H13      -5.1433    0.4460    1.7183   H         1 RES1   0.0000
    41 H14      -5.9930    1.6690   -0.2722   H         1 RES1   0.0000
    42 H15      -4.4637    3.1635   -1.5370   H         1 RES1   0.0000
    43 H16      -0.3761    2.0994   -2.1713   H         1 RES1   0.0000
    44 H17       1.8385    3.7253   -2.8366   H         1 RES1   0.0000
    45 H18       2.3721    3.0693   -1.3005   H         1 RES1   0.0000
    46 H19       3.6731    4.4026    0.2972   H         1 RES1   0.0000
    47 H20       2.3639    5.5527    0.5368   H         1 RES1   0.0000
    48 H21       3.9456    6.1128    0.0120   H         1 RES1   0.0000
    49 H22       4.5383    3.8887   -2.0395   H         1 RES1   0.0000
    50 H23       4.8337    5.6131   -2.2441   H         1 RES1   0.0000
    51 H24       3.8613    4.7369   -3.4256   H         1 RES1   0.0000
    52 H25       1.3876    6.8059   -1.5342   H         1 RES1   0.0000
    53 H26       1.9579    6.3661   -3.1366   H         1 RES1   0.0000
    54 H27       3.0149    7.2285   -2.0207   H         1 RES1   0.0000
    55 H28       0.1942    5.7862   -0.2403   H         1 RES1   0.0000
    56 H29       0.3090   -0.2315    3.8626   H         1 RES1   0.0000
    57 N6        0.8636   -0.3040   -1.1266   N.3       1 RES1   0.0000
    58 O1        1.2565   -1.0086   -1.9890   O.2       1 RES1   0.0000
    59 O2        1.4644    0.7493   -0.8156   O.co2     1 RES1   0.0000
    60 O3       -0.1901   -0.5288   -0.4941   O.co2     1 RES1   0.0000
    61 N7        1.6880    2.3276    1.8712   N.3       1 RES1   0.0000
    62 O4        2.6828    2.9672    1.9127   O.2       1 RES1   0.0000
    63 O5        0.5653    2.8740    1.7594   O.co2     1 RES1   0.0000
    64 O6        1.6887    1.0883    1.9462   O.co2     1 RES1   0.0000
@<TRIPOS>BOND
     1     1    23    1
     2     1    24    1
     3     1    25    1
     4     1    26    1
     5     1    27    1
     6     1    59    1
     7     1    60    1
     8     1    63    1
     9     1    64    1
    10     2     3    1
    11     2    28    1
    12     2    29    1
    13     2    30    1
    14     3     4    1
    15     3     5    1
    16     3     6    1
    17     4    31    1
    18     4    32    1
    19     4    33    1
    20     5    34    1
    21     5    35    1
    22     5    36    1
    23     6     7    1
    24     6    37    1
    25     6    38    1
    26     7     8    2
    27     7    27    1
    28     8     9    1
    29     8    39    1
    30     9    10    1
    31     9    26    2
    32    10    11    1
    33    10    25    2
    34    11    12    2
    35    11    40    1
    36    12    13    1
    37    12    41    1
    38    13    14    2
    39    13    42    1
    40    14    15    1
    41    14    25    1
    42    15    16    1
    43    15    24    2
    44    16    17    2
    45    16    43    1
    46    17    18    1
    47    17    23    1
    48    18    19    1
    49    18    44    1
    50    18    45    1
    51    19    20    1
    52    19    21    1
    53    19    22    1
    54    20    46    1
    55    20    47    1
    56    20    48    1
    57    21    49    1
    58    21    50    1
    59    21    51    1
    60    22    52    1
    61    22    53    1
    62    22    54    1
    63    23    24    1
    64    23    55    1
    65    26    27    1
    66    27    56    1
    67    57    58    2
    68    57    59    1
    69    57    60    1
    70    61    62    2
    71    61    63    1
    72    61    64    1
@<TRIPOS>SUBSTRUCTURE
     1 RES1       64 GROUP             0 ****  ****    0  
