@<TRIPOS>MOLECULE
tri_tri_mer_capped_0_nunpairedes_0_charge_3 Charge: 3 Unpaired_Electrons: 6 XTB_Unpaired_Electrons: 0 XTB_Charge: 3
   382   390     1     0     0
SMALL
NoCharges
****
Generated from Architector

@<TRIPOS>ATOM
     1 Eu1      -0.0026   -0.1174    0.0034   Eu        1 RES1   0.0000
     2 C1        0.3880    3.8292    6.3579   C.3       1 RES1   0.0000
     3 C2        1.3842    3.2972    7.3825   C.3       1 RES1   0.0000
     4 C3        0.7547    2.6230    8.6006   C.3       1 RES1   0.0000
     5 C4        0.1225    1.2526    8.3379   C.3       1 RES1   0.0000
     6 C5       -1.3635    1.3341    7.9817   C.3       1 RES1   0.0000
     7 C6       -2.0456   -0.0293    7.7993   C.3       1 RES1   0.0000
     8 C7       -2.1496   -0.5382    6.3575   C.3       1 RES1   0.0000
     9 C8       -0.8247   -1.0326    5.7768   C.3       1 RES1   0.0000
    10 N1       -0.9209   -1.3999    4.3687   N.am      1 RES1   0.0000
    11 C9       -1.6143   -2.6660    4.1351   C.3       1 RES1   0.0000
    12 C10      -0.6991   -3.8409    3.8025   C.3       1 RES1   0.0000
    13 C11       0.2603   -4.2807    4.9142   C.3       1 RES1   0.0000
    14 C12      -0.3001   -5.1987    6.0123   C.3       1 RES1   0.0000
    15 C13      -1.0951   -4.5235    7.1327   C.3       1 RES1   0.0000
    16 C14      -1.0898   -5.3257    8.4384   C.3       1 RES1   0.0000
    17 C15      -1.6150   -6.7574    8.3391   C.3       1 RES1   0.0000
    18 C16      -3.0854   -6.8256    7.9433   C.3       1 RES1   0.0000
    19 C17      -0.5037   -0.6867    3.3195   C.2       1 RES1   0.0000
    20 O1       -0.5212   -1.1568    2.1626   O.2       1 RES1   0.0000
    21 C18      -0.1140    0.7799    3.5446   C.3       1 RES1   0.0000
    22 N2        0.6670    1.3727    2.4424   N.4       1 RES1   0.0000
    23 C19       2.1110    1.2016    2.7193   C.3       1 RES1   0.0000
    24 C20       2.6687   -0.0363    2.0385   C.2       1 RES1   0.0000
    25 O2        1.9527   -0.6037    1.1940   O.2       1 RES1   0.0000
    26 N3        3.8820   -0.4975    2.3384   N.am      1 RES1   0.0000
    27 C21       4.3356   -1.7191    1.6693   C.3       1 RES1   0.0000
    28 C22       3.5902   -2.9881    2.0730   C.3       1 RES1   0.0000
    29 C23       3.9688   -3.5844    3.4262   C.3       1 RES1   0.0000
    30 C24       3.5587   -5.0586    3.4318   C.3       1 RES1   0.0000
    31 C25       3.6145   -5.7256    4.8043   C.3       1 RES1   0.0000
    32 C26       5.0244   -6.1015    5.2530   C.3       1 RES1   0.0000
    33 C27       5.0127   -7.0868    6.4221   C.3       1 RES1   0.0000
    34 C28       4.3708   -6.5140    7.6802   C.3       1 RES1   0.0000
    35 C29       4.9522    0.2607    2.9680   C.3       1 RES1   0.0000
    36 C30       5.9348    0.7764    1.8923   C.3       1 RES1   0.0000
    37 C31       7.4117    0.5125    2.1739   C.3       1 RES1   0.0000
    38 C32       8.2643    1.3826    1.2493   C.3       1 RES1   0.0000
    39 C33       9.7629    1.1625    1.4595   C.3       1 RES1   0.0000
    40 C34      10.3496    0.1159    0.5118   C.3       1 RES1   0.0000
    41 C35      10.6564    0.6881   -0.8714   C.3       1 RES1   0.0000
    42 C36      11.2614   -0.3569   -1.7974   C.3       1 RES1   0.0000
    43 C37       0.4256    2.8505    2.3040   C.3       1 RES1   0.0000
    44 C38      -0.9658    3.3674    2.5576   C.ar      1 RES1   0.0000
    45 C39      -2.0637    2.8262    1.9009   C.ar      1 RES1   0.0000
    46 C40      -3.3161    3.3944    2.0522   C.ar      1 RES1   0.0000
    47 C41      -3.4976    4.4947    2.8773   C.ar      1 RES1   0.0000
    48 C42      -2.4126    5.0292    3.5523   C.ar      1 RES1   0.0000
    49 C43      -1.1550    4.4749    3.3770   C.ar      1 RES1   0.0000
    50 H1        0.8961    4.5086    5.6746   H         1 RES1   0.0000
    51 H2       -0.4012    4.3859    6.8569   H         1 RES1   0.0000
    52 H3       -0.0700    3.0323    5.7731   H         1 RES1   0.0000
    53 H4        1.9725    4.1425    7.7414   H         1 RES1   0.0000
    54 H5        2.0763    2.6009    6.8993   H         1 RES1   0.0000
    55 H6        0.0080    3.2906    9.0301   H         1 RES1   0.0000
    56 H7        1.5402    2.4969    9.3449   H         1 RES1   0.0000
    57 H8        0.1989    0.6559    9.2484   H         1 RES1   0.0000
    58 H9        0.6983    0.7330    7.5673   H         1 RES1   0.0000
    59 H10      -1.5258    1.9442    7.0923   H         1 RES1   0.0000
    60 H11      -1.8552    1.8445    8.8132   H         1 RES1   0.0000
    61 H12      -3.0657    0.0598    8.1769   H         1 RES1   0.0000
    62 H13      -1.5437   -0.7745    8.4173   H         1 RES1   0.0000
    63 H14      -2.5512    0.2489    5.7255   H         1 RES1   0.0000
    64 H15      -2.8664   -1.3615    6.3527   H         1 RES1   0.0000
    65 H16      -0.5343   -1.9280    6.3303   H         1 RES1   0.0000
    66 H17      -0.0465   -0.2903    5.9276   H         1 RES1   0.0000
    67 H18      -2.3098   -2.5078    3.3060   H         1 RES1   0.0000
    68 H19      -2.1837   -2.8987    5.0315   H         1 RES1   0.0000
    69 H20      -0.1184   -3.5698    2.9176   H         1 RES1   0.0000
    70 H21      -1.3320   -4.6872    3.5314   H         1 RES1   0.0000
    71 H22       0.7294   -3.4039    5.3656   H         1 RES1   0.0000
    72 H23       1.0480   -4.8484    4.4201   H         1 RES1   0.0000
    73 H24       0.5635   -5.6855    6.4727   H         1 RES1   0.0000
    74 H25      -0.9010   -5.9823    5.5454   H         1 RES1   0.0000
    75 H26      -2.1259   -4.3479    6.8226   H         1 RES1   0.0000
    76 H27      -0.6406   -3.5581    7.3716   H         1 RES1   0.0000
    77 H28      -1.6937   -4.7870    9.1711   H         1 RES1   0.0000
    78 H29      -0.0678   -5.3606    8.8202   H         1 RES1   0.0000
    79 H30      -1.4947   -7.2328    9.3157   H         1 RES1   0.0000
    80 H31      -1.0138   -7.3240    7.6265   H         1 RES1   0.0000
    81 H32      -3.6831   -6.2239    8.6246   H         1 RES1   0.0000
    82 H33      -3.4474   -7.8504    7.9888   H         1 RES1   0.0000
    83 H34      -3.2394   -6.4603    6.9291   H         1 RES1   0.0000
    84 H35       0.4197    0.9056    4.4957   H         1 RES1   0.0000
    85 H36      -1.0633    1.3253    3.6162   H         1 RES1   0.0000
    86 H37       2.2994    1.1416    3.8006   H         1 RES1   0.0000
    87 H38       2.6409    2.0747    2.3272   H         1 RES1   0.0000
    88 H39       5.3910   -1.8436    1.9074   H         1 RES1   0.0000
    89 H40       4.2181   -1.5859    0.5882   H         1 RES1   0.0000
    90 H41       3.8373   -3.7348    1.3191   H         1 RES1   0.0000
    91 H42       2.5156   -2.8116    2.0151   H         1 RES1   0.0000
    92 H43       3.4718   -3.0490    4.2368   H         1 RES1   0.0000
    93 H44       5.0460   -3.5050    3.5737   H         1 RES1   0.0000
    94 H45       4.1985   -5.6086    2.7379   H         1 RES1   0.0000
    95 H46       2.5380   -5.1267    3.0436   H         1 RES1   0.0000
    96 H47       3.0200   -6.6399    4.7609   H         1 RES1   0.0000
    97 H48       3.1574   -5.0667    5.5432   H         1 RES1   0.0000
    98 H49       5.5793   -5.2076    5.5419   H         1 RES1   0.0000
    99 H50       5.5494   -6.5656    4.4161   H         1 RES1   0.0000
   100 H51       6.0410   -7.3727    6.6473   H         1 RES1   0.0000
   101 H52       4.4801   -7.9918    6.1228   H         1 RES1   0.0000
   102 H53       4.8536   -5.5804    7.9615   H         1 RES1   0.0000
   103 H54       4.4716   -7.2106    8.5082   H         1 RES1   0.0000
   104 H55       3.3099   -6.3261    7.5300   H         1 RES1   0.0000
   105 H56       5.4698   -0.3966    3.6701   H         1 RES1   0.0000
   106 H57       4.5427    1.0895    3.5421   H         1 RES1   0.0000
   107 H58       5.8259    1.8532    1.7732   H         1 RES1   0.0000
   108 H59       5.6818    0.3282    0.9293   H         1 RES1   0.0000
   109 H60       7.6492   -0.5431    2.0287   H         1 RES1   0.0000
   110 H61       7.6437    0.7732    3.2076   H         1 RES1   0.0000
   111 H62       8.0135    2.4254    1.4479   H         1 RES1   0.0000
   112 H63       8.0032    1.1840    0.2074   H         1 RES1   0.0000
   113 H64       9.9290    0.8597    2.4938   H         1 RES1   0.0000
   114 H65      10.2904    2.1045    1.3144   H         1 RES1   0.0000
   115 H66       9.6546   -0.7236    0.4219   H         1 RES1   0.0000
   116 H67      11.2745   -0.2717    0.9387   H         1 RES1   0.0000
   117 H68      11.3554    1.5172   -0.7588   H         1 RES1   0.0000
   118 H69       9.7478    1.0945   -1.3204   H         1 RES1   0.0000
   119 H70      12.2444   -0.6511   -1.4457   H         1 RES1   0.0000
   120 H71      11.3666    0.0410   -2.8018   H         1 RES1   0.0000
   121 H72      10.6376   -1.2458   -1.8391   H         1 RES1   0.0000
   122 H73       0.6935    3.1139    1.2676   H         1 RES1   0.0000
   123 H74       1.0892    3.4032    2.9826   H         1 RES1   0.0000
   124 H75      -1.9159    1.9715    1.2555   H         1 RES1   0.0000
   125 H76      -4.1486    3.0094    1.4806   H         1 RES1   0.0000
   126 H77      -4.4704    4.9584    2.9545   H         1 RES1   0.0000
   127 H78      -2.5328    5.8845    4.2000   H         1 RES1   0.0000
   128 H79      -0.3163    4.9388    3.8664   H         1 RES1   0.0000
   129 C44       5.4358    3.2741   -3.7873   C.3       1 RES1   0.0000
   130 C45       6.7811    2.8208   -4.3422   C.3       1 RES1   0.0000
   131 C46       7.5109    1.8208   -3.4454   C.3       1 RES1   0.0000
   132 C47       6.8369    0.4502   -3.3935   C.3       1 RES1   0.0000
   133 C48       7.7116   -0.5963   -2.7069   C.3       1 RES1   0.0000
   134 C49       7.0965   -1.9962   -2.7030   C.3       1 RES1   0.0000
   135 C50       5.8321   -2.0965   -1.8290   C.3       1 RES1   0.0000
   136 C51       4.5609   -2.2953   -2.6628   C.3       1 RES1   0.0000
   137 N4        3.3477   -2.3973   -1.8607   N.am      1 RES1   0.0000
   138 C52       3.0877   -3.7057   -1.2575   C.3       1 RES1   0.0000
   139 C53       2.4523   -4.7853   -2.1391   C.3       1 RES1   0.0000
   140 C54       3.2964   -5.4647   -3.2238   C.3       1 RES1   0.0000
   141 C55       4.2877   -6.5309   -2.7506   C.3       1 RES1   0.0000
   142 C56       5.5753   -6.0260   -2.0987   C.3       1 RES1   0.0000
   143 C57       6.6913   -7.0716   -2.1817   C.3       1 RES1   0.0000
   144 C58       6.3471   -8.4146   -1.5365   C.3       1 RES1   0.0000
   145 C59       6.0479   -8.3126   -0.0446   C.3       1 RES1   0.0000
   146 C60       2.5350   -1.3754   -1.5871   C.2       1 RES1   0.0000
   147 O3        1.4374   -1.5421   -1.0216   O.2       1 RES1   0.0000
   148 C61       2.9634    0.0037   -2.1089   C.3       1 RES1   0.0000
   149 N5        2.3384    1.2179   -1.5092   N.4       1 RES1   0.0000
   150 C62       1.8519    2.0487   -2.6264   C.3       1 RES1   0.0000
   151 C63       0.7419    1.3369   -3.3923   C.2       1 RES1   0.0000
   152 O4        0.0982    0.4799   -2.7689   O.2       1 RES1   0.0000
   153 N6        0.5101    1.6515   -4.6723   N.am      1 RES1   0.0000
   154 C64      -0.7049    1.2148   -5.3793   C.3       1 RES1   0.0000
   155 C65      -1.1347   -0.2476   -5.3010   C.3       1 RES1   0.0000
   156 C66      -0.8861   -1.1295   -6.5254   C.3       1 RES1   0.0000
   157 C67      -2.0323   -2.1457   -6.6383   C.3       1 RES1   0.0000
   158 C68      -1.6168   -3.4920   -7.2156   C.3       1 RES1   0.0000
   159 C69      -1.1327   -3.4407   -8.6595   C.3       1 RES1   0.0000
   160 C70      -1.0318   -4.8425   -9.2613   C.3       1 RES1   0.0000
   161 C71      -0.0236   -5.7347   -8.5432   C.3       1 RES1   0.0000
   162 C72       1.1614    2.7748   -5.3392   C.3       1 RES1   0.0000
   163 C73       0.4051    4.1027   -5.1477   C.3       1 RES1   0.0000
   164 C74      -0.7065    4.3101   -6.1824   C.3       1 RES1   0.0000
   165 C75      -1.4452    5.6418   -6.0554   C.3       1 RES1   0.0000
   166 C76      -2.3186    5.9189   -7.2845   C.3       1 RES1   0.0000
   167 C77      -3.4893    4.9492   -7.5313   C.3       1 RES1   0.0000
   168 C78      -4.8684    5.5134   -7.1782   C.3       1 RES1   0.0000
   169 C79      -5.1225    5.5659   -5.6796   C.3       1 RES1   0.0000
   170 C80       3.4312    1.9494   -0.8013   C.3       1 RES1   0.0000
   171 C81       3.2719    3.3562   -0.2464   C.ar      1 RES1   0.0000
   172 C82       3.8060    3.5984    1.0203   C.ar      1 RES1   0.0000
   173 C83       3.8456    4.8588    1.5881   C.ar      1 RES1   0.0000
   174 C84       3.3284    5.9412    0.9002   C.ar      1 RES1   0.0000
   175 C85       2.8575    5.7415   -0.3849   C.ar      1 RES1   0.0000
   176 C86       2.8616    4.4792   -0.9615   C.ar      1 RES1   0.0000
   177 H80       5.0366    4.0904   -4.3845   H         1 RES1   0.0000
   178 H81       5.5433    3.6291   -2.7632   H         1 RES1   0.0000
   179 H82       4.7185    2.4534   -3.8103   H         1 RES1   0.0000
   180 H83       7.4154    3.6967   -4.4688   H         1 RES1   0.0000
   181 H84       6.6318    2.3767   -5.3278   H         1 RES1   0.0000
   182 H85       7.5947    2.2298   -2.4351   H         1 RES1   0.0000
   183 H86       8.5227    1.6929   -3.8310   H         1 RES1   0.0000
   184 H87       6.6293    0.1180   -4.4129   H         1 RES1   0.0000
   185 H88       5.8817    0.5351   -2.8671   H         1 RES1   0.0000
   186 H89       7.9134   -0.2938   -1.6769   H         1 RES1   0.0000
   187 H90       8.6692   -0.6396   -3.2265   H         1 RES1   0.0000
   188 H91       7.8455   -2.6958   -2.3306   H         1 RES1   0.0000
   189 H92       6.8727   -2.2920   -3.7294   H         1 RES1   0.0000
   190 H93       5.7513   -1.2037   -1.2040   H         1 RES1   0.0000
   191 H94       5.9306   -2.9483   -1.1550   H         1 RES1   0.0000
   192 H95       4.6730   -3.2384   -3.1951   H         1 RES1   0.0000
   193 H96       4.4507   -1.5174   -3.4187   H         1 RES1   0.0000
   194 H97       2.4003   -3.5215   -0.4282   H         1 RES1   0.0000
   195 H98       4.0371   -4.0762   -0.8734   H         1 RES1   0.0000
   196 H99       1.5619   -4.3610   -2.5932   H         1 RES1   0.0000
   197 H100      2.1197   -5.5673   -1.4549   H         1 RES1   0.0000
   198 H101      3.8116   -4.7306   -3.8415   H         1 RES1   0.0000
   199 H102      2.5879   -5.9738   -3.8797   H         1 RES1   0.0000
   200 H103      4.5795   -7.1107   -3.6290   H         1 RES1   0.0000
   201 H104      3.7707   -7.2130   -2.0751   H         1 RES1   0.0000
   202 H105      5.4100   -5.7693   -1.0507   H         1 RES1   0.0000
   203 H106      5.9234   -5.1297   -2.6187   H         1 RES1   0.0000
   204 H107      7.5895   -6.6688   -1.7083   H         1 RES1   0.0000
   205 H108      6.9255   -7.2445   -3.2341   H         1 RES1   0.0000
   206 H109      7.1944   -9.0870   -1.6811   H         1 RES1   0.0000
   207 H110      5.4920   -8.8579   -2.0482   H         1 RES1   0.0000
   208 H111      6.8547   -7.7951    0.4709   H         1 RES1   0.0000
   209 H112      5.9515   -9.3062    0.3860   H         1 RES1   0.0000
   210 H113      5.1161   -7.7789    0.1378   H         1 RES1   0.0000
   211 H114      2.7150   -0.0202   -3.1768   H         1 RES1   0.0000
   212 H115      4.0501    0.0945   -2.0286   H         1 RES1   0.0000
   213 H116      2.7051    2.3337   -3.2564   H         1 RES1   0.0000
   214 H117      1.3857    2.9500   -2.2227   H         1 RES1   0.0000
   215 H118     -0.5614    1.4689   -6.4293   H         1 RES1   0.0000
   216 H119     -1.5217    1.8264   -4.9833   H         1 RES1   0.0000
   217 H120     -2.2148   -0.2321   -5.1540   H         1 RES1   0.0000
   218 H121     -0.6905   -0.7177   -4.4343   H         1 RES1   0.0000
   219 H122      0.0610   -1.6551   -6.4134   H         1 RES1   0.0000
   220 H123     -0.8307   -0.5327   -7.4357   H         1 RES1   0.0000
   221 H124     -2.8325   -1.7177   -7.2437   H         1 RES1   0.0000
   222 H125     -2.4418   -2.3400   -5.6410   H         1 RES1   0.0000
   223 H126     -2.4686   -4.1721   -7.1490   H         1 RES1   0.0000
   224 H127     -0.8258   -3.9012   -6.5921   H         1 RES1   0.0000
   225 H128     -0.1545   -2.9566   -8.7021   H         1 RES1   0.0000
   226 H129     -1.8274   -2.8488   -9.2584   H         1 RES1   0.0000
   227 H130     -0.7446   -4.7549  -10.3092   H         1 RES1   0.0000
   228 H131     -2.0161   -5.3139   -9.2272   H         1 RES1   0.0000
   229 H132      0.9343   -5.2251   -8.4450   H         1 RES1   0.0000
   230 H133      0.1324   -6.6512   -9.1078   H         1 RES1   0.0000
   231 H134     -0.3832   -6.0040   -7.5519   H         1 RES1   0.0000
   232 H135      1.2102    2.5567   -6.4072   H         1 RES1   0.0000
   233 H136      2.1905    2.8787   -4.9976   H         1 RES1   0.0000
   234 H137      1.1248    4.9162   -5.2550   H         1 RES1   0.0000
   235 H138      0.0072    4.1432   -4.1290   H         1 RES1   0.0000
   236 H139     -1.4485    3.5165   -6.1196   H         1 RES1   0.0000
   237 H140     -0.2512    4.2567   -7.1727   H         1 RES1   0.0000
   238 H141     -0.7228    6.4564   -5.9729   H         1 RES1   0.0000
   239 H142     -2.0482    5.6346   -5.1448   H         1 RES1   0.0000
   240 H143     -1.6641    5.9063   -8.1588   H         1 RES1   0.0000
   241 H144     -2.7104    6.9321   -7.1995   H         1 RES1   0.0000
   242 H145     -3.3437    4.0193   -6.9777   H         1 RES1   0.0000
   243 H146     -3.5000    4.6947   -8.5921   H         1 RES1   0.0000
   244 H147     -5.6343    4.8907   -7.6457   H         1 RES1   0.0000
   245 H148     -4.9605    6.5150   -7.5979   H         1 RES1   0.0000
   246 H149     -5.1052    4.5625   -5.2592   H         1 RES1   0.0000
   247 H150     -6.0926    6.0056   -5.4670   H         1 RES1   0.0000
   248 H151     -4.3662    6.1692   -5.1920   H         1 RES1   0.0000
   249 H152      4.2924    2.0232   -1.4853   H         1 RES1   0.0000
   250 H153      3.7325    1.2968    0.0224   H         1 RES1   0.0000
   251 H154      4.2708    2.7867    1.5553   H         1 RES1   0.0000
   252 H155      4.3028    5.0000    2.5587   H         1 RES1   0.0000
   253 H156      3.3255    6.9260    1.3407   H         1 RES1   0.0000
   254 H157      2.5031    6.5781   -0.9665   H         1 RES1   0.0000
   255 H158      2.5687    4.4255   -1.9942   H         1 RES1   0.0000
   256 C87      -5.4310   -2.7892   -3.4867   C.3       1 RES1   0.0000
   257 C88      -6.8673   -2.4485   -3.1040   C.3       1 RES1   0.0000
   258 C89      -7.6087   -1.5753   -4.1181   C.3       1 RES1   0.0000
   259 C90      -7.1738   -0.1050   -4.1385   C.3       1 RES1   0.0000
   260 C91      -6.1461    0.2022   -5.2291   C.3       1 RES1   0.0000
   261 C92      -5.5954    1.6301   -5.1477   C.3       1 RES1   0.0000
   262 C93      -4.2548    1.7540   -4.4198   C.3       1 RES1   0.0000
   263 C94      -4.3523    1.6702   -2.8937   C.3       1 RES1   0.0000
   264 N7       -3.0765    1.9133   -2.2257   N.am      1 RES1   0.0000
   265 C95      -2.5704    3.2855   -2.4320   C.3       1 RES1   0.0000
   266 C96      -2.1767    4.1623   -1.2392   C.3       1 RES1   0.0000
   267 C97      -3.2997    5.0111   -0.6290   C.3       1 RES1   0.0000
   268 C98      -3.3832    6.4603   -1.1155   C.3       1 RES1   0.0000
   269 C99      -3.9977    6.6223   -2.5032   C.3       1 RES1   0.0000
   270 C100     -4.5553    8.0273   -2.7488   C.3       1 RES1   0.0000
   271 C101     -3.5089    9.1410   -2.8003   C.3       1 RES1   0.0000
   272 C102     -2.5104    8.9740   -3.9414   C.3       1 RES1   0.0000
   273 C103     -2.2955    0.9827   -1.6621   C.2       1 RES1   0.0000
   274 O5       -1.3114    1.3264   -0.9825   O.2       1 RES1   0.0000
   275 C104     -2.6031   -0.5007   -1.9834   C.3       1 RES1   0.0000
   276 N8       -1.8651   -1.5966   -1.2839   N.4       1 RES1   0.0000
   277 C105     -2.7284   -2.1301   -0.1888   C.3       1 RES1   0.0000
   278 C106     -3.2600   -1.0433    0.7255   C.2       1 RES1   0.0000
   279 O6       -2.5388   -0.0493    0.9165   O.2       1 RES1   0.0000
   280 N9       -4.4855   -1.1542    1.2435   N.am      1 RES1   0.0000
   281 C107     -5.0175   -0.0057    1.9806   C.3       1 RES1   0.0000
   282 C108     -4.3345    0.3162    3.3107   C.3       1 RES1   0.0000
   283 C109     -5.1713    1.3590    4.0543   C.3       1 RES1   0.0000
   284 C110     -4.4736    1.9442    5.2822   C.3       1 RES1   0.0000
   285 C111     -4.9988    3.3273    5.6551   C.3       1 RES1   0.0000
   286 C112     -6.4945    3.3719    5.9376   C.3       1 RES1   0.0000
   287 C113     -6.9437    4.7728    6.3513   C.3       1 RES1   0.0000
   288 C114     -6.8490    5.7989    5.2254   C.3       1 RES1   0.0000
   289 C115     -5.3334   -2.3382    1.1402   C.3       1 RES1   0.0000
   290 C116     -5.0854   -3.4059    2.2164   C.3       1 RES1   0.0000
   291 C117     -5.7648   -3.0584    3.5436   C.3       1 RES1   0.0000
   292 C118     -5.8939   -4.2340    4.5127   C.3       1 RES1   0.0000
   293 C119     -6.8050   -3.8788    5.6931   C.3       1 RES1   0.0000
   294 C120     -6.1784   -2.9665    6.7512   C.3       1 RES1   0.0000
   295 C121     -5.1413   -3.6901    7.6085   C.3       1 RES1   0.0000
   296 C122     -4.6682   -2.8627    8.7967   C.3       1 RES1   0.0000
   297 C123     -1.7934   -2.7879   -2.2023   C.3       1 RES1   0.0000
   298 C124     -0.6642   -3.1145   -3.1589   C.ar      1 RES1   0.0000
   299 C125      0.4066   -2.3125   -3.5074   C.ar      1 RES1   0.0000
   300 C126      1.3355   -2.7310   -4.4535   C.ar      1 RES1   0.0000
   301 C127      1.2087   -3.9578   -5.0758   C.ar      1 RES1   0.0000
   302 C128      0.1614   -4.7930   -4.7011   C.ar      1 RES1   0.0000
   303 C129     -0.7499   -4.3766   -3.7509   C.ar      1 RES1   0.0000
   304 H159     -5.0323   -3.5364   -2.8003   H         1 RES1   0.0000
   305 H160     -5.3986   -3.2083   -4.4889   H         1 RES1   0.0000
   306 H161     -4.7927   -1.9074   -3.4622   H         1 RES1   0.0000
   307 H162     -7.4153   -3.3858   -3.0061   H         1 RES1   0.0000
   308 H163     -6.8829   -1.9530   -2.1278   H         1 RES1   0.0000
   309 H164     -7.4923   -2.0012   -5.1153   H         1 RES1   0.0000
   310 H165     -8.6696   -1.6173   -3.8715   H         1 RES1   0.0000
   311 H166     -8.0464    0.5188   -4.3391   H         1 RES1   0.0000
   312 H167     -6.7999    0.1795   -3.1511   H         1 RES1   0.0000
   313 H168     -5.3228   -0.5143   -5.2071   H         1 RES1   0.0000
   314 H169     -6.6478    0.0781   -6.1900   H         1 RES1   0.0000
   315 H170     -5.4387    2.0038   -6.1601   H         1 RES1   0.0000
   316 H171     -6.3354    2.2764   -4.6744   H         1 RES1   0.0000
   317 H172     -3.5946    0.9701   -4.7874   H         1 RES1   0.0000
   318 H173     -3.8139    2.7155   -4.6868   H         1 RES1   0.0000
   319 H174     -5.0514    2.4370   -2.5468   H         1 RES1   0.0000
   320 H175     -4.7580    0.7066   -2.5971   H         1 RES1   0.0000
   321 H176     -1.6938    3.1821   -3.0768   H         1 RES1   0.0000
   322 H177     -3.3452    3.8159   -2.9785   H         1 RES1   0.0000
   323 H178     -1.7347    3.5391   -0.4657   H         1 RES1   0.0000
   324 H179     -1.3959    4.8365   -1.5985   H         1 RES1   0.0000
   325 H180     -4.2654    4.5282   -0.7847   H         1 RES1   0.0000
   326 H181     -3.1261    5.0572    0.4441   H         1 RES1   0.0000
   327 H182     -4.0086    7.0052   -0.4050   H         1 RES1   0.0000
   328 H183     -2.3881    6.9087   -1.0870   H         1 RES1   0.0000
   329 H184     -3.2544    6.3853   -3.2655   H         1 RES1   0.0000
   330 H185     -4.8310    5.9214   -2.6052   H         1 RES1   0.0000
   331 H186     -5.1040    8.0247   -3.6932   H         1 RES1   0.0000
   332 H187     -5.2716    8.2593   -1.9573   H         1 RES1   0.0000
   333 H188     -4.0345   10.0890   -2.9311   H         1 RES1   0.0000
   334 H189     -2.9754    9.1935   -1.8495   H         1 RES1   0.0000
   335 H190     -3.0325    8.7949   -4.8792   H         1 RES1   0.0000
   336 H191     -1.9117    9.8744   -4.0536   H         1 RES1   0.0000
   337 H192     -1.8327    8.1423   -3.7564   H         1 RES1   0.0000
   338 H193     -3.6770   -0.6793   -1.8611   H         1 RES1   0.0000
   339 H194     -2.3651   -0.5869   -3.0462   H         1 RES1   0.0000
   340 H195     -3.5710   -2.6752   -0.6331   H         1 RES1   0.0000
   341 H196     -2.1257   -2.8271    0.4055   H         1 RES1   0.0000
   342 H197     -4.9265    0.8697    1.3299   H         1 RES1   0.0000
   343 H198     -6.0754   -0.1880    2.1642   H         1 RES1   0.0000
   344 H199     -3.3348    0.7025    3.1133   H         1 RES1   0.0000
   345 H200     -4.2292   -0.5836    3.9161   H         1 RES1   0.0000
   346 H201     -5.3988    2.1709    3.3637   H         1 RES1   0.0000
   347 H202     -6.1166    0.9096    4.3577   H         1 RES1   0.0000
   348 H203     -4.5910    1.2731    6.1338   H         1 RES1   0.0000
   349 H204     -3.4064    2.0528    5.0681   H         1 RES1   0.0000
   350 H205     -4.4579    3.6826    6.5339   H         1 RES1   0.0000
   351 H206     -4.7737    4.0123    4.8426   H         1 RES1   0.0000
   352 H207     -7.0545    3.0687    5.0511   H         1 RES1   0.0000
   353 H208     -6.7303    2.6693    6.7380   H         1 RES1   0.0000
   354 H209     -7.9787    4.7215    6.6899   H         1 RES1   0.0000
   355 H210     -6.3353    5.1071    7.1932   H         1 RES1   0.0000
   356 H211     -7.3423    5.4292    4.3275   H         1 RES1   0.0000
   357 H212     -7.3392    6.7220    5.5246   H         1 RES1   0.0000
   358 H213     -5.8128    6.0337    4.9870   H         1 RES1   0.0000
   359 H214     -6.3690   -2.0126    1.2372   H         1 RES1   0.0000
   360 H215     -5.2341   -2.7887    0.1503   H         1 RES1   0.0000
   361 H216     -5.5036   -4.3459    1.8509   H         1 RES1   0.0000
   362 H217     -4.0113   -3.5496    2.3442   H         1 RES1   0.0000
   363 H218     -5.2262   -2.2504    4.0372   H         1 RES1   0.0000
   364 H219     -6.7742   -2.7005    3.3268   H         1 RES1   0.0000
   365 H220     -6.3325   -5.0839    3.9851   H         1 RES1   0.0000
   366 H221     -4.9098   -4.5380    4.8736   H         1 RES1   0.0000
   367 H222     -7.7063   -3.4022    5.3019   H         1 RES1   0.0000
   368 H223     -7.1181   -4.8007    6.1818   H         1 RES1   0.0000
   369 H224     -5.7267   -2.0904    6.2780   H         1 RES1   0.0000
   370 H225     -6.9744   -2.6047    7.4048   H         1 RES1   0.0000
   371 H226     -5.5837   -4.6159    7.9787   H         1 RES1   0.0000
   372 H227     -4.2808   -3.9612    6.9922   H         1 RES1   0.0000
   373 H228     -5.4933   -2.6648    9.4744   H         1 RES1   0.0000
   374 H229     -3.8993   -3.3986    9.3469   H         1 RES1   0.0000
   375 H230     -4.2550   -1.9101    8.4746   H         1 RES1   0.0000
   376 H231     -1.8438   -3.6798   -1.5704   H         1 RES1   0.0000
   377 H232     -2.7086   -2.7819   -2.8131   H         1 RES1   0.0000
   378 H233      0.5154   -1.3608   -3.0287   H         1 RES1   0.0000
   379 H234      2.1695   -2.0864   -4.7000   H         1 RES1   0.0000
   380 H235      1.9083   -4.2682   -5.8369   H         1 RES1   0.0000
   381 H236      0.0579   -5.7714   -5.1475   H         1 RES1   0.0000
   382 H237     -1.5443   -5.0535   -3.4771   H         1 RES1   0.0000
@<TRIPOS>BOND
     1     1    20    1
     2     1    22    1
     3     1    25    1
     4     1   147    1
     5     1   149    1
     6     1   152    1
     7     1   274    1
     8     1   276    1
     9     1   279    1
    10     2     3    1
    11     2    50    1
    12     2    51    1
    13     2    52    1
    14     3     4    1
    15     3    53    1
    16     3    54    1
    17     4     5    1
    18     4    55    1
    19     4    56    1
    20     5     6    1
    21     5    57    1
    22     5    58    1
    23     6     7    1
    24     6    59    1
    25     6    60    1
    26     7     8    1
    27     7    61    1
    28     7    62    1
    29     8     9    1
    30     8    63    1
    31     8    64    1
    32     9    10    1
    33     9    65    1
    34     9    66    1
    35    10    11    1
    36    10    19    1
    37    11    12    1
    38    11    67    1
    39    11    68    1
    40    12    13    1
    41    12    69    1
    42    12    70    1
    43    13    14    1
    44    13    71    1
    45    13    72    1
    46    14    15    1
    47    14    73    1
    48    14    74    1
    49    15    16    1
    50    15    75    1
    51    15    76    1
    52    16    17    1
    53    16    77    1
    54    16    78    1
    55    17    18    1
    56    17    79    1
    57    17    80    1
    58    18    81    1
    59    18    82    1
    60    18    83    1
    61    19    20    2
    62    19    21    1
    63    21    22    1
    64    21    84    1
    65    21    85    1
    66    22    23    1
    67    22    43    1
    68    23    24    1
    69    23    86    1
    70    23    87    1
    71    24    25    2
    72    24    26    1
    73    26    27    1
    74    26    35    1
    75    27    28    1
    76    27    88    1
    77    27    89    1
    78    28    29    1
    79    28    90    1
    80    28    91    1
    81    29    30    1
    82    29    92    1
    83    29    93    1
    84    30    31    1
    85    30    94    1
    86    30    95    1
    87    31    32    1
    88    31    96    1
    89    31    97    1
    90    32    33    1
    91    32    98    1
    92    32    99    1
    93    33    34    1
    94    33   100    1
    95    33   101    1
    96    34   102    1
    97    34   103    1
    98    34   104    1
    99    35    36    1
   100    35   105    1
   101    35   106    1
   102    36    37    1
   103    36   107    1
   104    36   108    1
   105    37    38    1
   106    37   109    1
   107    37   110    1
   108    38    39    1
   109    38   111    1
   110    38   112    1
   111    39    40    1
   112    39   113    1
   113    39   114    1
   114    40    41    1
   115    40   115    1
   116    40   116    1
   117    41    42    1
   118    41   117    1
   119    41   118    1
   120    42   119    1
   121    42   120    1
   122    42   121    1
   123    43    44    1
   124    43   122    1
   125    43   123    1
   126    44    45    1
   127    44    49    2
   128    45    46    2
   129    45   124    1
   130    46    47    1
   131    46   125    1
   132    47    48    2
   133    47   126    1
   134    48    49    1
   135    48   127    1
   136    49   128    1
   137   129   130    1
   138   129   177    1
   139   129   178    1
   140   129   179    1
   141   130   131    1
   142   130   180    1
   143   130   181    1
   144   131   132    1
   145   131   182    1
   146   131   183    1
   147   132   133    1
   148   132   184    1
   149   132   185    1
   150   133   134    1
   151   133   186    1
   152   133   187    1
   153   134   135    1
   154   134   188    1
   155   134   189    1
   156   135   136    1
   157   135   190    1
   158   135   191    1
   159   136   137    1
   160   136   192    1
   161   136   193    1
   162   137   138    1
   163   137   146    1
   164   138   139    1
   165   138   194    1
   166   138   195    1
   167   139   140    1
   168   139   196    1
   169   139   197    1
   170   140   141    1
   171   140   198    1
   172   140   199    1
   173   141   142    1
   174   141   200    1
   175   141   201    1
   176   142   143    1
   177   142   202    1
   178   142   203    1
   179   143   144    1
   180   143   204    1
   181   143   205    1
   182   144   145    1
   183   144   206    1
   184   144   207    1
   185   145   208    1
   186   145   209    1
   187   145   210    1
   188   146   147    2
   189   146   148    1
   190   148   149    1
   191   148   211    1
   192   148   212    1
   193   149   150    1
   194   149   170    1
   195   150   151    1
   196   150   213    1
   197   150   214    1
   198   151   152    2
   199   151   153    1
   200   153   154    1
   201   153   162    1
   202   154   155    1
   203   154   215    1
   204   154   216    1
   205   155   156    1
   206   155   217    1
   207   155   218    1
   208   156   157    1
   209   156   219    1
   210   156   220    1
   211   157   158    1
   212   157   221    1
   213   157   222    1
   214   158   159    1
   215   158   223    1
   216   158   224    1
   217   159   160    1
   218   159   225    1
   219   159   226    1
   220   160   161    1
   221   160   227    1
   222   160   228    1
   223   161   229    1
   224   161   230    1
   225   161   231    1
   226   162   163    1
   227   162   232    1
   228   162   233    1
   229   163   164    1
   230   163   234    1
   231   163   235    1
   232   164   165    1
   233   164   236    1
   234   164   237    1
   235   165   166    1
   236   165   238    1
   237   165   239    1
   238   166   167    1
   239   166   240    1
   240   166   241    1
   241   167   168    1
   242   167   242    1
   243   167   243    1
   244   168   169    1
   245   168   244    1
   246   168   245    1
   247   169   246    1
   248   169   247    1
   249   169   248    1
   250   170   171    1
   251   170   249    1
   252   170   250    1
   253   171   172    1
   254   171   176    2
   255   172   173    2
   256   172   251    1
   257   173   174    1
   258   173   252    1
   259   174   175    2
   260   174   253    1
   261   175   176    1
   262   175   254    1
   263   176   255    1
   264   256   257    1
   265   256   304    1
   266   256   305    1
   267   256   306    1
   268   257   258    1
   269   257   307    1
   270   257   308    1
   271   258   259    1
   272   258   309    1
   273   258   310    1
   274   259   260    1
   275   259   311    1
   276   259   312    1
   277   260   261    1
   278   260   313    1
   279   260   314    1
   280   261   262    1
   281   261   315    1
   282   261   316    1
   283   262   263    1
   284   262   317    1
   285   262   318    1
   286   263   264    1
   287   263   319    1
   288   263   320    1
   289   264   265    1
   290   264   273    1
   291   265   266    1
   292   265   321    1
   293   265   322    1
   294   266   267    1
   295   266   323    1
   296   266   324    1
   297   267   268    1
   298   267   325    1
   299   267   326    1
   300   268   269    1
   301   268   327    1
   302   268   328    1
   303   269   270    1
   304   269   329    1
   305   269   330    1
   306   270   271    1
   307   270   331    1
   308   270   332    1
   309   271   272    1
   310   271   333    1
   311   271   334    1
   312   272   335    1
   313   272   336    1
   314   272   337    1
   315   273   274    2
   316   273   275    1
   317   275   276    1
   318   275   338    1
   319   275   339    1
   320   276   277    1
   321   276   297    1
   322   277   278    1
   323   277   340    1
   324   277   341    1
   325   278   279    2
   326   278   280    1
   327   280   281    1
   328   280   289    1
   329   281   282    1
   330   281   342    1
   331   281   343    1
   332   282   283    1
   333   282   344    1
   334   282   345    1
   335   283   284    1
   336   283   346    1
   337   283   347    1
   338   284   285    1
   339   284   348    1
   340   284   349    1
   341   285   286    1
   342   285   350    1
   343   285   351    1
   344   286   287    1
   345   286   352    1
   346   286   353    1
   347   287   288    1
   348   287   354    1
   349   287   355    1
   350   288   356    1
   351   288   357    1
   352   288   358    1
   353   289   290    1
   354   289   359    1
   355   289   360    1
   356   290   291    1
   357   290   361    1
   358   290   362    1
   359   291   292    1
   360   291   363    1
   361   291   364    1
   362   292   293    1
   363   292   365    1
   364   292   366    1
   365   293   294    1
   366   293   367    1
   367   293   368    1
   368   294   295    1
   369   294   369    1
   370   294   370    1
   371   295   296    1
   372   295   371    1
   373   295   372    1
   374   296   373    1
   375   296   374    1
   376   296   375    1
   377   297   298    1
   378   297   376    1
   379   297   377    1
   380   298   299    1
   381   298   303    2
   382   299   300    2
   383   299   378    1
   384   300   301    1
   385   300   379    1
   386   301   302    2
   387   301   380    1
   388   302   303    1
   389   302   381    1
   390   303   382    1
@<TRIPOS>SUBSTRUCTURE
     1 RES1      382 GROUP             0 ****  ****    0  
