@<TRIPOS>MOLECULE
am_c3_9H2O_c0_0_nunpairedes_0_charge_3 Charge: 3 Unpaired_Electrons: 6 XTB_Unpaired_Electrons: 0 XTB_Charge: 3
   433   441     1     0     0
SMALL
NoCharges
****
Generated from Architector

@<TRIPOS>ATOM
     1 Eu1       0.0493   -0.0049   -0.0556   Eu        1 RES1   0.0000
     2 C1      -11.9539    2.6649   -2.6185   C.3       1 RES1   0.0000
     3 C2      -11.0243    2.4993   -3.8122   C.3       1 RES1   0.0000
     4 C3       -9.6274    2.0538   -3.3909   C.3       1 RES1   0.0000
     5 C4       -8.7376    1.8503   -4.6120   C.3       1 RES1   0.0000
     6 C5       -7.3786    1.2738   -4.2477   C.3       1 RES1   0.0000
     7 C6       -6.4971    2.2630   -3.4902   C.3       1 RES1   0.0000
     8 C7       -5.1245    1.6303   -3.2857   C.3       1 RES1   0.0000
     9 C8       -4.0682    2.6570   -2.8802   C.3       1 RES1   0.0000
    10 N1       -2.7200    2.1109   -2.8490   N.am      1 RES1   0.0000
    11 C9       -1.8554    2.2046   -4.0250   C.3       1 RES1   0.0000
    12 C10      -2.5432    1.8916   -5.3536   C.3       1 RES1   0.0000
    13 C11      -2.7971    0.4106   -5.6500   C.3       1 RES1   0.0000
    14 C12      -3.5211    0.2723   -6.9948   C.3       1 RES1   0.0000
    15 C13      -4.1609   -1.0951   -7.2378   C.3       1 RES1   0.0000
    16 C14      -5.4751   -1.2824   -6.4821   C.3       1 RES1   0.0000
    17 C15      -6.1440   -2.6204   -6.8017   C.3       1 RES1   0.0000
    18 C16      -7.5327   -2.7174   -6.1795   C.3       1 RES1   0.0000
    19 C17      -2.2101    1.5477   -1.7651   C.2       1 RES1   0.0000
    20 O1       -0.9975    1.2913   -1.6512   O.2       1 RES1   0.0000
    21 C18      -3.1232    1.1890   -0.6006   C.3       1 RES1   0.0000
    22 O2       -2.4483    0.1666    0.1231   O.3       1 RES1   0.0000
    23 C19      -3.2651   -0.8495    0.6722   C.3       1 RES1   0.0000
    24 C20      -2.2712   -1.8216    1.3147   C.2       1 RES1   0.0000
    25 O3       -1.0650   -1.5435    1.3354   O.2       1 RES1   0.0000
    26 N2       -2.7503   -2.9411    1.8300   N.am      1 RES1   0.0000
    27 C21      -1.8724   -3.9931    2.3328   C.3       1 RES1   0.0000
    28 C22      -1.5797   -5.0034    1.2508   C.ar      1 RES1   0.0000
    29 C23      -0.2838   -5.2844    0.8560   C.ar      1 RES1   0.0000
    30 C24      -0.0509   -6.2262   -0.1340   C.ar      1 RES1   0.0000
    31 C25      -1.1049   -6.8842   -0.7344   C.ar      1 RES1   0.0000
    32 C26      -2.4117   -6.6110   -0.3548   C.ar      1 RES1   0.0000
    33 C27      -3.5588   -7.3515   -0.9833   C.3       1 RES1   0.0000
    34 N3       -4.8386   -6.7686   -0.6811   N.am      1 RES1   0.0000
    35 C28      -5.6820   -7.3634    0.1975   C.2       1 RES1   0.0000
    36 O4       -5.4302   -8.4231    0.7137   O.2       1 RES1   0.0000
    37 C29      -6.9664   -6.5956    0.4525   C.3       1 RES1   0.0000
    38 O5       -6.6831   -5.2123    0.5763   O.3       1 RES1   0.0000
    39 C30      -7.7355   -4.5287    1.2355   C.3       1 RES1   0.0000
    40 C31      -7.6028   -2.9952    1.2885   C.2       1 RES1   0.0000
    41 O6       -7.6073   -2.4369    2.3662   O.2       1 RES1   0.0000
    42 N4       -7.5659   -2.3316    0.1070   N.am      1 RES1   0.0000
    43 C32      -7.0742   -2.9837   -1.0972   C.3       1 RES1   0.0000
    44 C33      -8.0976   -3.7560   -1.9358   C.3       1 RES1   0.0000
    45 C34      -7.3772   -4.7311   -2.8702   C.3       1 RES1   0.0000
    46 C35      -8.3500   -5.6624   -3.5898   C.3       1 RES1   0.0000
    47 C36      -7.6680   -6.7982   -4.3608   C.3       1 RES1   0.0000
    48 C37      -7.0097   -7.8468   -3.4584   C.3       1 RES1   0.0000
    49 C38      -6.5393   -9.0824   -4.2308   C.3       1 RES1   0.0000
    50 C39      -5.8913  -10.0986   -3.2965   C.3       1 RES1   0.0000
    51 C40      -7.7896   -0.8898   -0.0318   C.3       1 RES1   0.0000
    52 C41      -8.3729   -0.1247    1.1578   C.3       1 RES1   0.0000
    53 C42      -8.8329    1.2697    0.7213   C.3       1 RES1   0.0000
    54 C43      -9.4814    2.0830    1.8519   C.3       1 RES1   0.0000
    55 C44      -8.5812    3.0760    2.6021   C.3       1 RES1   0.0000
    56 C45      -7.7295    2.4759    3.7242   C.3       1 RES1   0.0000
    57 C46      -7.2546    3.5284    4.7332   C.3       1 RES1   0.0000
    58 C47      -6.3381    4.5895    4.1344   C.3       1 RES1   0.0000
    59 C48      -2.6330   -5.6693    0.6369   C.ar      1 RES1   0.0000
    60 H1      -12.9346    2.9849   -2.9556   H         1 RES1   0.0000
    61 H2      -11.5629    3.4102   -1.9290   H         1 RES1   0.0000
    62 H3      -12.0608    1.7221   -2.0856   H         1 RES1   0.0000
    63 H4      -10.9418    3.4441   -4.3548   H         1 RES1   0.0000
    64 H5      -11.4352    1.7559   -4.4996   H         1 RES1   0.0000
    65 H6       -9.6931    1.1122   -2.8361   H         1 RES1   0.0000
    66 H7       -9.1936    2.8051   -2.7247   H         1 RES1   0.0000
    67 H8       -8.6006    2.8024   -5.1276   H         1 RES1   0.0000
    68 H9       -9.2419    1.1704   -5.3020   H         1 RES1   0.0000
    69 H10      -6.8610    0.9922   -5.1642   H         1 RES1   0.0000
    70 H11      -7.5203    0.3676   -3.6547   H         1 RES1   0.0000
    71 H12      -6.9514    2.5304   -2.5348   H         1 RES1   0.0000
    72 H13      -6.4034    3.1747   -4.0848   H         1 RES1   0.0000
    73 H14      -4.8245    1.1769   -4.2284   H         1 RES1   0.0000
    74 H15      -5.2133    0.8318   -2.5447   H         1 RES1   0.0000
    75 H16      -4.3005    3.0861   -1.9004   H         1 RES1   0.0000
    76 H17      -4.0678    3.4638   -3.6155   H         1 RES1   0.0000
    77 H18      -1.0408    1.4946   -3.8470   H         1 RES1   0.0000
    78 H19      -1.4338    3.2148   -4.0692   H         1 RES1   0.0000
    79 H20      -1.8723    2.2598   -6.1286   H         1 RES1   0.0000
    80 H21      -3.4684    2.4610   -5.4502   H         1 RES1   0.0000
    81 H22      -3.3735   -0.0623   -4.8524   H         1 RES1   0.0000
    82 H23      -1.8383   -0.1091   -5.7089   H         1 RES1   0.0000
    83 H24      -2.8023    0.4727   -7.7899   H         1 RES1   0.0000
    84 H25      -4.3077    1.0271   -7.0644   H         1 RES1   0.0000
    85 H26      -3.4697   -1.8995   -6.9781   H         1 RES1   0.0000
    86 H27      -4.3754   -1.1901   -8.3023   H         1 RES1   0.0000
    87 H28      -6.1571   -0.4779   -6.7693   H         1 RES1   0.0000
    88 H29      -5.3108   -1.2172   -5.4005   H         1 RES1   0.0000
    89 H30      -5.5135   -3.4379   -6.4389   H         1 RES1   0.0000
    90 H31      -6.2320   -2.7290   -7.8842   H         1 RES1   0.0000
    91 H32      -7.4874   -2.5563   -5.1042   H         1 RES1   0.0000
    92 H33      -7.9634   -3.6969   -6.3676   H         1 RES1   0.0000
    93 H34      -8.1916   -1.9646   -6.6043   H         1 RES1   0.0000
    94 H35      -4.1019    0.8612   -0.9512   H         1 RES1   0.0000
    95 H36      -3.2683    2.0448    0.0710   H         1 RES1   0.0000
    96 H37      -3.8264   -1.3739   -0.1144   H         1 RES1   0.0000
    97 H38      -3.9739   -0.4408    1.4060   H         1 RES1   0.0000
    98 H39      -3.7347   -3.1537    1.7756   H         1 RES1   0.0000
    99 H40      -2.3613   -4.4722    3.1846   H         1 RES1   0.0000
   100 H41      -0.9555   -3.5154    2.6848   H         1 RES1   0.0000
   101 H42       0.5406   -4.7892    1.3413   H         1 RES1   0.0000
   102 H43       0.9571   -6.4718   -0.4274   H         1 RES1   0.0000
   103 H44      -0.9208   -7.6356   -1.4804   H         1 RES1   0.0000
   104 H45      -3.5899   -8.3690   -0.5727   H         1 RES1   0.0000
   105 H46      -3.4435   -7.4172   -2.0700   H         1 RES1   0.0000
   106 H47      -5.0542   -5.8542   -1.0424   H         1 RES1   0.0000
   107 H48      -7.4072   -6.9824    1.3736   H         1 RES1   0.0000
   108 H49      -7.6674   -6.7782   -0.3743   H         1 RES1   0.0000
   109 H50      -7.7770   -4.8750    2.2746   H         1 RES1   0.0000
   110 H51      -8.7025   -4.7595    0.7653   H         1 RES1   0.0000
   111 H52      -6.2911   -3.6792   -0.7888   H         1 RES1   0.0000
   112 H53      -6.6108   -2.2142   -1.7229   H         1 RES1   0.0000
   113 H54      -8.7149   -3.0589   -2.5023   H         1 RES1   0.0000
   114 H55      -8.7579   -4.3300   -1.2874   H         1 RES1   0.0000
   115 H56      -6.6914   -5.3331   -2.2719   H         1 RES1   0.0000
   116 H57      -6.7814   -4.1848   -3.6060   H         1 RES1   0.0000
   117 H58      -8.9478   -5.0752   -4.2877   H         1 RES1   0.0000
   118 H59      -9.0328   -6.0999   -2.8581   H         1 RES1   0.0000
   119 H60      -6.9222   -6.3889   -5.0488   H         1 RES1   0.0000
   120 H61      -8.4285   -7.2997   -4.9634   H         1 RES1   0.0000
   121 H62      -7.7291   -8.1696   -2.7002   H         1 RES1   0.0000
   122 H63      -6.1482   -7.4142   -2.9384   H         1 RES1   0.0000
   123 H64      -5.8280   -8.7828   -5.0064   H         1 RES1   0.0000
   124 H65      -7.3939   -9.5425   -4.7316   H         1 RES1   0.0000
   125 H66      -5.0264   -9.6675   -2.7958   H         1 RES1   0.0000
   126 H67      -5.5686  -10.9745   -3.8508   H         1 RES1   0.0000
   127 H68      -6.5966  -10.4176   -2.5337   H         1 RES1   0.0000
   128 H69      -8.4881   -0.7742   -0.8688   H         1 RES1   0.0000
   129 H70      -6.8367   -0.4162   -0.3276   H         1 RES1   0.0000
   130 H71      -7.6498   -0.0590    1.9694   H         1 RES1   0.0000
   131 H72      -9.2390   -0.6551    1.5476   H         1 RES1   0.0000
   132 H73      -9.5668    1.1478   -0.0775   H         1 RES1   0.0000
   133 H74      -8.0047    1.8345    0.2931   H         1 RES1   0.0000
   134 H75      -9.9213    1.3908    2.5694   H         1 RES1   0.0000
   135 H76     -10.2993    2.6614    1.4182   H         1 RES1   0.0000
   136 H77      -9.2331    3.8212    3.0637   H         1 RES1   0.0000
   137 H78      -7.9445    3.6053    1.8896   H         1 RES1   0.0000
   138 H79      -6.8587    1.9541    3.3206   H         1 RES1   0.0000
   139 H80      -8.3343    1.7430    4.2622   H         1 RES1   0.0000
   140 H81      -6.7245    3.0199    5.5434   H         1 RES1   0.0000
   141 H82      -8.1284    4.0135    5.1709   H         1 RES1   0.0000
   142 H83      -5.4454    4.1316    3.7166   H         1 RES1   0.0000
   143 H84      -6.0276    5.2906    4.9035   H         1 RES1   0.0000
   144 H85      -6.8402    5.1475    3.3493   H         1 RES1   0.0000
   145 H86      -3.6416   -5.4810    0.9670   H         1 RES1   0.0000
   146 C49       3.0481  -11.2190   -1.5803   C.3       1 RES1   0.0000
   147 C50       3.0244  -10.6366   -2.9878   C.3       1 RES1   0.0000
   148 C51       2.7866   -9.1277   -2.9645   C.3       1 RES1   0.0000
   149 C52       2.7391   -8.5426   -4.3759   C.3       1 RES1   0.0000
   150 C53       2.5789   -7.0247   -4.3792   C.3       1 RES1   0.0000
   151 C54       1.2434   -6.5845   -3.7904   C.3       1 RES1   0.0000
   152 C55       1.0985   -5.0659   -3.8152   C.3       1 RES1   0.0000
   153 C56      -0.2453   -4.6807   -3.2024   C.3       1 RES1   0.0000
   154 N5       -0.5250   -3.2591   -3.0600   N.am      1 RES1   0.0000
   155 C57      -1.3983   -2.6389   -4.0529   C.3       1 RES1   0.0000
   156 C58      -0.9048   -2.8947   -5.4825   C.3       1 RES1   0.0000
   157 C59       0.4664   -2.2940   -5.8110   C.3       1 RES1   0.0000
   158 C60       1.0550   -2.8677   -7.1089   C.3       1 RES1   0.0000
   159 C61       2.5762   -2.7115   -7.2253   C.3       1 RES1   0.0000
   160 C62       3.3494   -3.6302   -6.2796   C.3       1 RES1   0.0000
   161 C63       4.8675   -3.4967   -6.4134   C.3       1 RES1   0.0000
   162 C64       5.5826   -4.5169   -5.5339   C.3       1 RES1   0.0000
   163 C65      -0.1653   -2.5639   -1.9848   C.2       1 RES1   0.0000
   164 O7       -0.7503   -1.5211   -1.6352   O.2       1 RES1   0.0000
   165 C66       1.0762   -3.0287   -1.2145   C.3       1 RES1   0.0000
   166 O8        1.2141   -2.1845   -0.0877   O.3       1 RES1   0.0000
   167 C67       2.3645   -2.4285    0.7104   C.3       1 RES1   0.0000
   168 C68       2.5665   -1.1530    1.5220   C.2       1 RES1   0.0000
   169 O9        1.9088   -0.1475    1.2104   O.2       1 RES1   0.0000
   170 N6        3.4371   -1.1329    2.5142   N.am      1 RES1   0.0000
   171 C69       3.6954    0.1544    3.1556   C.3       1 RES1   0.0000
   172 C70       4.0725    1.1689    2.1045   C.ar      1 RES1   0.0000
   173 C71       3.4366    2.3927    2.0009   C.ar      1 RES1   0.0000
   174 C72       3.8705    3.3032    1.0546   C.ar      1 RES1   0.0000
   175 C73       4.9105    2.9914    0.1972   C.ar      1 RES1   0.0000
   176 C74       5.5509    1.7616    0.2782   C.ar      1 RES1   0.0000
   177 C75       6.7502    1.4639   -0.5946   C.3       1 RES1   0.0000
   178 N7        7.2978    0.1526   -0.3561   N.am      1 RES1   0.0000
   179 C76       8.0058   -0.0607    0.7870   C.2       1 RES1   0.0000
   180 O10       8.4090    0.8372    1.4794   O.2       1 RES1   0.0000
   181 C77       8.2260   -1.5342    1.0948   C.3       1 RES1   0.0000
   182 O11       6.9556   -2.1774    1.1369   O.3       1 RES1   0.0000
   183 C78       7.0309   -3.3996    1.8509   C.3       1 RES1   0.0000
   184 C79       5.6850   -4.1247    2.0169   C.2       1 RES1   0.0000
   185 O12       5.2196   -4.2438    3.1323   O.2       1 RES1   0.0000
   186 N8        5.0943   -4.6248    0.9055   N.am      1 RES1   0.0000
   187 C80       5.4081   -4.0799   -0.4064   C.3       1 RES1   0.0000
   188 C81       6.6252   -4.6477   -1.1491   C.3       1 RES1   0.0000
   189 C82       7.1948   -3.5712   -2.0776   C.3       1 RES1   0.0000
   190 C83       8.5021   -3.9934   -2.7424   C.3       1 RES1   0.0000
   191 C84       9.1853   -2.8653   -3.5246   C.3       1 RES1   0.0000
   192 C85       9.7374   -1.7461   -2.6356   C.3       1 RES1   0.0000
   193 C86      10.6151   -0.7541   -3.4038   C.3       1 RES1   0.0000
   194 C87      11.1303    0.3456   -2.4814   C.3       1 RES1   0.0000
   195 C88       4.0338   -5.6395    0.9194   C.3       1 RES1   0.0000
   196 C89       3.5323   -6.1546    2.2708   C.3       1 RES1   0.0000
   197 C90       2.5034   -7.2677    2.0570   C.3       1 RES1   0.0000
   198 C91       1.9681   -7.8934    3.3494   C.3       1 RES1   0.0000
   199 C92       0.7725   -7.1741    3.9884   C.3       1 RES1   0.0000
   200 C93       1.1330   -5.9300    4.8124   C.3       1 RES1   0.0000
   201 C94       0.1918   -5.6945    6.0004   C.3       1 RES1   0.0000
   202 C95      -1.2133   -5.2691    5.5899   C.3       1 RES1   0.0000
   203 C96       5.1065    0.8582    1.2287   C.ar      1 RES1   0.0000
   204 H87       3.2091  -12.2910   -1.6233   H         1 RES1   0.0000
   205 H88       2.1038  -11.0303   -1.0730   H         1 RES1   0.0000
   206 H89       3.8494  -10.7727   -0.9949   H         1 RES1   0.0000
   207 H90       2.2293  -11.1091   -3.5699   H         1 RES1   0.0000
   208 H91       3.9716  -10.8434   -3.4907   H         1 RES1   0.0000
   209 H92       3.5886   -8.6396   -2.3999   H         1 RES1   0.0000
   210 H93       1.8433   -8.9351   -2.4427   H         1 RES1   0.0000
   211 H94       1.9099   -8.9942   -4.9255   H         1 RES1   0.0000
   212 H95       3.6652   -8.8022   -4.8948   H         1 RES1   0.0000
   213 H96       2.6499   -6.6658   -5.4061   H         1 RES1   0.0000
   214 H97       3.3946   -6.5741   -3.8094   H         1 RES1   0.0000
   215 H98       1.1621   -6.9397   -2.7632   H         1 RES1   0.0000
   216 H99       0.4332   -7.0392   -4.3614   H         1 RES1   0.0000
   217 H100      1.1555   -4.7198   -4.8434   H         1 RES1   0.0000
   218 H101      1.9308   -4.6272   -3.2610   H         1 RES1   0.0000
   219 H102     -0.3298   -5.1421   -2.2171   H         1 RES1   0.0000
   220 H103     -1.0373   -5.1067   -3.8224   H         1 RES1   0.0000
   221 H104     -1.4117   -1.5727   -3.8199   H         1 RES1   0.0000
   222 H105     -2.4207   -3.0228   -3.9535   H         1 RES1   0.0000
   223 H106     -1.6472   -2.4791   -6.1646   H         1 RES1   0.0000
   224 H107     -0.8806   -3.9704   -5.6550   H         1 RES1   0.0000
   225 H108      1.1555   -2.4846   -4.9876   H         1 RES1   0.0000
   226 H109      0.3740   -1.2121   -5.9175   H         1 RES1   0.0000
   227 H110      0.5872   -2.3725   -7.9602   H         1 RES1   0.0000
   228 H111      0.8213   -3.9319   -7.1859   H         1 RES1   0.0000
   229 H112      2.8710   -1.6774   -7.0387   H         1 RES1   0.0000
   230 H113      2.8736   -2.9488   -8.2482   H         1 RES1   0.0000
   231 H114      3.0715   -4.6648   -6.4940   H         1 RES1   0.0000
   232 H115      3.0823   -3.4164   -5.2388   H         1 RES1   0.0000
   233 H116      5.1704   -2.4831   -6.1321   H         1 RES1   0.0000
   234 H117      5.1628   -3.6510   -7.4518   H         1 RES1   0.0000
   235 H118      5.2602   -4.4214   -4.4983   H         1 RES1   0.0000
   236 H119      6.6581   -4.3750   -5.5788   H         1 RES1   0.0000
   237 H120      5.3565   -5.5278   -5.8623   H         1 RES1   0.0000
   238 H121      1.9251   -2.9014   -1.9048   H         1 RES1   0.0000
   239 H122      1.0188   -4.0749   -0.8959   H         1 RES1   0.0000
   240 H123      3.2576   -2.6160    0.0992   H         1 RES1   0.0000
   241 H124      2.2123   -3.2871    1.3726   H         1 RES1   0.0000
   242 H125      3.9687   -1.9472    2.7936   H         1 RES1   0.0000
   243 H126      4.5077    0.0218    3.8706   H         1 RES1   0.0000
   244 H127      2.7963    0.4751    3.6914   H         1 RES1   0.0000
   245 H128      2.6294    2.6471    2.6669   H         1 RES1   0.0000
   246 H129      3.4261    4.2836    1.0132   H         1 RES1   0.0000
   247 H130      5.2539    3.7124   -0.5273   H         1 RES1   0.0000
   248 H131      7.5379    2.1839   -0.3425   H         1 RES1   0.0000
   249 H132      6.5187    1.5559   -1.6601   H         1 RES1   0.0000
   250 H133      6.8294   -0.6400   -0.7652   H         1 RES1   0.0000
   251 H134      8.7249   -1.6119    2.0637   H         1 RES1   0.0000
   252 H135      8.8616   -1.9897    0.3250   H         1 RES1   0.0000
   253 H136      7.3820   -3.1911    2.8690   H         1 RES1   0.0000
   254 H137      7.7484   -4.0826    1.3761   H         1 RES1   0.0000
   255 H138      5.5678   -3.0060   -0.2764   H         1 RES1   0.0000
   256 H139      4.5256   -4.2211   -1.0391   H         1 RES1   0.0000
   257 H140      6.3331   -5.5327   -1.7135   H         1 RES1   0.0000
   258 H141      7.3999   -4.9462   -0.4448   H         1 RES1   0.0000
   259 H142      7.3761   -2.6748   -1.4826   H         1 RES1   0.0000
   260 H143      6.4619   -3.3145   -2.8474   H         1 RES1   0.0000
   261 H144      8.3016   -4.8216   -3.4230   H         1 RES1   0.0000
   262 H145      9.1910   -4.3558   -1.9770   H         1 RES1   0.0000
   263 H146      8.4893   -2.4401   -4.2542   H         1 RES1   0.0000
   264 H147     10.0190   -3.2999   -4.0806   H         1 RES1   0.0000
   265 H148     10.3401   -2.1903   -1.8377   H         1 RES1   0.0000
   266 H149      8.9175   -1.1872   -2.1705   H         1 RES1   0.0000
   267 H150     10.0393   -0.3123   -4.2225   H         1 RES1   0.0000
   268 H151     11.4607   -1.2850   -3.8463   H         1 RES1   0.0000
   269 H152     10.3027    0.8915   -2.0321   H         1 RES1   0.0000
   270 H153     11.7487    1.0468   -3.0329   H         1 RES1   0.0000
   271 H154     11.7293   -0.0795   -1.6801   H         1 RES1   0.0000
   272 H155      4.4157   -6.4935    0.3486   H         1 RES1   0.0000
   273 H156      3.1715   -5.2373    0.3628   H         1 RES1   0.0000
   274 H157      3.0976   -5.3417    2.8513   H         1 RES1   0.0000
   275 H158      4.3599   -6.5591    2.8492   H         1 RES1   0.0000
   276 H159      2.9623   -8.0537    1.4533   H         1 RES1   0.0000
   277 H160      1.6532   -6.8924    1.4939   H         1 RES1   0.0000
   278 H161      2.7720   -7.9671    4.0822   H         1 RES1   0.0000
   279 H162      1.6410   -8.9074    3.1091   H         1 RES1   0.0000
   280 H163      0.2908   -7.8848    4.6623   H         1 RES1   0.0000
   281 H164      0.0429   -6.9230    3.2130   H         1 RES1   0.0000
   282 H165      1.1379   -5.0336    4.1831   H         1 RES1   0.0000
   283 H166      2.1410   -6.0579    5.2111   H         1 RES1   0.0000
   284 H167      0.6200   -4.9191    6.6413   H         1 RES1   0.0000
   285 H168      0.1400   -6.6097    6.5916   H         1 RES1   0.0000
   286 H169     -1.1823   -4.2926    5.1105   H         1 RES1   0.0000
   287 H170     -1.8534   -5.1864    6.4630   H         1 RES1   0.0000
   288 H171     -1.6545   -5.9950    4.9106   H         1 RES1   0.0000
   289 H172      5.5902   -0.0993    1.3341   H         1 RES1   0.0000
   290 C97       7.0902    9.2071   -2.6604   C.3       1 RES1   0.0000
   291 C98       6.5415    8.6723   -3.9764   C.3       1 RES1   0.0000
   292 C99       5.4953    7.5830   -3.7501   C.3       1 RES1   0.0000
   293 C100      4.9584    7.0472   -5.0758   C.3       1 RES1   0.0000
   294 C101      3.8612    6.0062   -4.8866   C.3       1 RES1   0.0000
   295 C102      4.3658    4.7201   -4.2407   C.3       1 RES1   0.0000
   296 C103      3.2353    3.7005   -4.1824   C.3       1 RES1   0.0000
   297 C104      3.7426    2.3742   -3.6253   C.3       1 RES1   0.0000
   298 N9        2.7292    1.3543   -3.4013   N.am      1 RES1   0.0000
   299 C105      2.5259    0.3528   -4.4455   C.3       1 RES1   0.0000
   300 C106      2.3461    0.9686   -5.8392   C.3       1 RES1   0.0000
   301 C107      1.0812    1.8062   -6.0541   C.3       1 RES1   0.0000
   302 C108      1.1383    2.5466   -7.3987   C.3       1 RES1   0.0000
   303 C109      0.1404    3.7002   -7.5432   C.3       1 RES1   0.0000
   304 C110      0.4806    4.9130   -6.6778   C.3       1 RES1   0.0000
   305 C111     -0.4803    6.0826   -6.9024   C.3       1 RES1   0.0000
   306 C112     -0.0297    7.3248   -6.1422   C.3       1 RES1   0.0000
   307 C113      2.0918    1.2326   -2.2377   C.2       1 RES1   0.0000
   308 O13       1.5391    0.1758   -1.8776   O.2       1 RES1   0.0000
   309 C114      1.9988    2.4881   -1.3712   C.3       1 RES1   0.0000
   310 O14       1.1763    2.2161   -0.2495   O.3       1 RES1   0.0000
   311 C115      0.5398    3.3697    0.2668   C.3       1 RES1   0.0000
   312 C116     -0.4401    2.8766    1.3317   C.2       1 RES1   0.0000
   313 O15      -0.6174    1.6602    1.4820   O.2       1 RES1   0.0000
   314 N10      -1.0679    3.8107    2.0267   N.am      1 RES1   0.0000
   315 C117     -2.2016    3.5347    2.9048   C.3       1 RES1   0.0000
   316 C118     -3.4712    3.5207    2.0878   C.ar      1 RES1   0.0000
   317 C119     -4.2995    2.4102    2.0672   C.ar      1 RES1   0.0000
   318 C120     -5.4130    2.3938    1.2423   C.ar      1 RES1   0.0000
   319 C121     -5.6990    3.4771    0.4376   C.ar      1 RES1   0.0000
   320 C122     -4.9127    4.6220    0.4820   C.ar      1 RES1   0.0000
   321 C123     -5.3077    5.8336   -0.3257   C.3       1 RES1   0.0000
   322 N11      -4.3461    6.8996   -0.2642   N.am      1 RES1   0.0000
   323 C124     -4.5341    7.9534    0.5729   C.2       1 RES1   0.0000
   324 O16      -5.5694    8.1371    1.1561   O.2       1 RES1   0.0000
   325 C125     -3.3233    8.8637    0.6883   C.3       1 RES1   0.0000
   326 O17      -2.1618    8.0530    0.7688   O.3       1 RES1   0.0000
   327 C126     -1.0604    8.7644    1.3029   C.3       1 RES1   0.0000
   328 C127      0.2677    7.9867    1.3170   C.2       1 RES1   0.0000
   329 O18       0.8475    7.8402    2.3734   O.2       1 RES1   0.0000
   330 N12       0.7567    7.5416    0.1327   N.am      1 RES1   0.0000
   331 C128     -0.1046    7.4007   -1.0326   C.3       1 RES1   0.0000
   332 C129     -0.3490    8.6555   -1.8801   C.3       1 RES1   0.0000
   333 C130     -1.6112    8.4815   -2.7303   C.3       1 RES1   0.0000
   334 C131     -1.9916    9.7675   -3.4623   C.3       1 RES1   0.0000
   335 C132     -3.3505    9.7081   -4.1707   C.3       1 RES1   0.0000
   336 C133     -4.5508    9.6781   -3.2183   C.3       1 RES1   0.0000
   337 C134     -5.8837    9.8655   -3.9496   C.3       1 RES1   0.0000
   338 C135     -7.0569    9.8367   -2.9760   C.3       1 RES1   0.0000
   339 C136      2.1321    7.0675   -0.0666   C.3       1 RES1   0.0000
   340 C137      3.1092    7.1236    1.1102   C.3       1 RES1   0.0000
   341 C138      4.5359    6.8258    0.6394   C.3       1 RES1   0.0000
   342 C139      5.5880    6.9844    1.7482   C.3       1 RES1   0.0000
   343 C140      6.0428    5.7058    2.4682   C.3       1 RES1   0.0000
   344 C141      5.1362    5.2308    3.6082   C.3       1 RES1   0.0000
   345 C142      5.8799    4.3681    4.6355   C.3       1 RES1   0.0000
   346 C143      6.5189    3.1154    4.0465   C.3       1 RES1   0.0000
   347 C144     -3.7987    4.6267    1.3070   C.ar      1 RES1   0.0000
   348 H173      7.8392    9.9680   -2.8527   H         1 RES1   0.0000
   349 H174      7.5495    8.4058   -2.0850   H         1 RES1   0.0000
   350 H175      6.2941    9.6487   -2.0645   H         1 RES1   0.0000
   351 H176      7.3555    8.2569   -4.5755   H         1 RES1   0.0000
   352 H177      6.0909    9.4867   -4.5486   H         1 RES1   0.0000
   353 H178      4.6633    7.9895   -3.1645   H         1 RES1   0.0000
   354 H179      5.9491    6.7719   -3.1717   H         1 RES1   0.0000
   355 H180      5.7784    6.6068   -5.6480   H         1 RES1   0.0000
   356 H181      4.5563    7.8819   -5.6559   H         1 RES1   0.0000
   357 H182      3.4443    5.7603   -5.8638   H         1 RES1   0.0000
   358 H183      3.0586    6.4292   -4.2773   H         1 RES1   0.0000
   359 H184      4.7414    4.9186   -3.2353   H         1 RES1   0.0000
   360 H185      5.1907    4.3208   -4.8321   H         1 RES1   0.0000
   361 H186      2.8440    3.5548   -5.1847   H         1 RES1   0.0000
   362 H187      2.4303    4.1107   -3.5712   H         1 RES1   0.0000
   363 H188      4.2644    2.5585   -2.6836   H         1 RES1   0.0000
   364 H189      4.4691    1.9618   -4.3301   H         1 RES1   0.0000
   365 H190      1.6393   -0.2081   -4.1486   H         1 RES1   0.0000
   366 H191      3.3721   -0.3452   -4.4806   H         1 RES1   0.0000
   367 H192      2.3244    0.1439   -6.5524   H         1 RES1   0.0000
   368 H193      3.2255    1.5662   -6.0769   H         1 RES1   0.0000
   369 H194      0.9535    2.5219   -5.2424   H         1 RES1   0.0000
   370 H195      0.2092    1.1513   -6.0519   H         1 RES1   0.0000
   371 H196      0.9525    1.8320   -8.2008   H         1 RES1   0.0000
   372 H197      2.1400    2.9543   -7.5519   H         1 RES1   0.0000
   373 H198     -0.8746    3.3667   -7.3188   H         1 RES1   0.0000
   374 H199      0.1382    4.0258   -8.5851   H         1 RES1   0.0000
   375 H200      1.4924    5.2428   -6.9254   H         1 RES1   0.0000
   376 H201      0.4642    4.6459   -5.6145   H         1 RES1   0.0000
   377 H202     -1.4873    5.7935   -6.5861   H         1 RES1   0.0000
   378 H203     -0.5267    6.3145   -7.9673   H         1 RES1   0.0000
   379 H204      0.0770    7.1083   -5.0808   H         1 RES1   0.0000
   380 H205     -0.7500    8.1284   -6.2635   H         1 RES1   0.0000
   381 H206      0.9326    7.6679   -6.5124   H         1 RES1   0.0000
   382 H207      1.5489    3.2735   -1.9896   H         1 RES1   0.0000
   383 H208      2.9812    2.8362   -1.0226   H         1 RES1   0.0000
   384 H209     -0.0340    3.8902   -0.5179   H         1 RES1   0.0000
   385 H210      1.2664    4.0803    0.6779   H         1 RES1   0.0000
   386 H211     -0.8829    4.7849    1.8313   H         1 RES1   0.0000
   387 H212     -2.2270    4.3104    3.6705   H         1 RES1   0.0000
   388 H213     -2.0319    2.5753    3.3972   H         1 RES1   0.0000
   389 H214     -4.0867    1.5647    2.6996   H         1 RES1   0.0000
   390 H215     -6.0666    1.5411    1.2449   H         1 RES1   0.0000
   391 H216     -6.5656    3.4726   -0.1997   H         1 RES1   0.0000
   392 H217     -6.2335    6.2480    0.0927   H         1 RES1   0.0000
   393 H218     -5.4857    5.5766   -1.3755   H         1 RES1   0.0000
   394 H219     -3.4371    6.7550   -0.6703   H         1 RES1   0.0000
   395 H220     -3.4345    9.4693    1.5904   H         1 RES1   0.0000
   396 H221     -3.2736    9.5336   -0.1816   H         1 RES1   0.0000
   397 H222     -1.2826    9.0185    2.3455   H         1 RES1   0.0000
   398 H223     -0.8992    9.7046    0.7570   H         1 RES1   0.0000
   399 H224     -1.0703    7.0389   -0.6741   H         1 RES1   0.0000
   400 H225      0.3306    6.6242   -1.6700   H         1 RES1   0.0000
   401 H226      0.5177    8.8488   -2.5116   H         1 RES1   0.0000
   402 H227     -0.4884    9.5240   -1.2385   H         1 RES1   0.0000
   403 H228     -2.4338    8.1912   -2.0742   H         1 RES1   0.0000
   404 H229     -1.4701    7.6791   -3.4589   H         1 RES1   0.0000
   405 H230     -1.2228    9.9886   -4.2042   H         1 RES1   0.0000
   406 H231     -2.0076   10.5940   -2.7487   H         1 RES1   0.0000
   407 H232     -3.3903    8.8389   -4.8341   H         1 RES1   0.0000
   408 H233     -3.4401   10.6000   -4.7955   H         1 RES1   0.0000
   409 H234     -4.4463   10.4839   -2.4858   H         1 RES1   0.0000
   410 H235     -4.5833    8.7287   -2.6713   H         1 RES1   0.0000
   411 H236     -6.0047    9.0786   -4.7000   H         1 RES1   0.0000
   412 H237     -5.8737   10.8219   -4.4773   H         1 RES1   0.0000
   413 H238     -7.0925    8.8898   -2.4407   H         1 RES1   0.0000
   414 H239     -7.9946    9.9680   -3.5071   H         1 RES1   0.0000
   415 H240     -6.9643   10.6349   -2.2442   H         1 RES1   0.0000
   416 H241      2.5561    7.6722   -0.8772   H         1 RES1   0.0000
   417 H242      2.0768    6.0267   -0.4315   H         1 RES1   0.0000
   418 H243      2.8075    6.4348    1.8989   H         1 RES1   0.0000
   419 H244      3.1078    8.1210    1.5426   H         1 RES1   0.0000
   420 H245      4.7756    7.5235   -0.1648   H         1 RES1   0.0000
   421 H246      4.6096    5.8273    0.2096   H         1 RES1   0.0000
   422 H247      5.2110    7.6920    2.4861   H         1 RES1   0.0000
   423 H248      6.4774    7.4315    1.3003   H         1 RES1   0.0000
   424 H249      7.0230    5.9127    2.9033   H         1 RES1   0.0000
   425 H250      6.1774    4.9008    1.7416   H         1 RES1   0.0000
   426 H251      4.2876    4.6650    3.2161   H         1 RES1   0.0000
   427 H252      4.7411    6.1051    4.1299   H         1 RES1   0.0000
   428 H253      5.1743    4.0758    5.4189   H         1 RES1   0.0000
   429 H254      6.6540    4.9757    5.1072   H         1 RES1   0.0000
   430 H255      5.7755    2.4987    3.5480   H         1 RES1   0.0000
   431 H256      6.9751    2.5247    4.8358   H         1 RES1   0.0000
   432 H257      7.2901    3.3669    3.3250   H         1 RES1   0.0000
   433 H258     -3.1933    5.5155    1.3783   H         1 RES1   0.0000
@<TRIPOS>BOND
     1     1    20    1
     2     1    22    1
     3     1    25    1
     4     1   164    1
     5     1   166    1
     6     1   169    1
     7     1   308    1
     8     1   310    1
     9     1   313    1
    10     2     3    1
    11     2    60    1
    12     2    61    1
    13     2    62    1
    14     3     4    1
    15     3    63    1
    16     3    64    1
    17     4     5    1
    18     4    65    1
    19     4    66    1
    20     5     6    1
    21     5    67    1
    22     5    68    1
    23     6     7    1
    24     6    69    1
    25     6    70    1
    26     7     8    1
    27     7    71    1
    28     7    72    1
    29     8     9    1
    30     8    73    1
    31     8    74    1
    32     9    10    1
    33     9    75    1
    34     9    76    1
    35    10    11    1
    36    10    19    1
    37    11    12    1
    38    11    77    1
    39    11    78    1
    40    12    13    1
    41    12    79    1
    42    12    80    1
    43    13    14    1
    44    13    81    1
    45    13    82    1
    46    14    15    1
    47    14    83    1
    48    14    84    1
    49    15    16    1
    50    15    85    1
    51    15    86    1
    52    16    17    1
    53    16    87    1
    54    16    88    1
    55    17    18    1
    56    17    89    1
    57    17    90    1
    58    18    91    1
    59    18    92    1
    60    18    93    1
    61    19    20    2
    62    19    21    1
    63    21    22    1
    64    21    94    1
    65    21    95    1
    66    22    23    1
    67    23    24    1
    68    23    96    1
    69    23    97    1
    70    24    25    2
    71    24    26    1
    72    26    27    1
    73    26    98    1
    74    27    28    1
    75    27    99    1
    76    27   100    1
    77    28    29    1
    78    28    59    2
    79    29    30    2
    80    29   101    1
    81    30    31    1
    82    30   102    1
    83    31    32    2
    84    31   103    1
    85    32    33    1
    86    32    59    1
    87    33    34    1
    88    33   104    1
    89    33   105    1
    90    34    35    1
    91    34   106    1
    92    35    36    2
    93    35    37    1
    94    37    38    1
    95    37   107    1
    96    37   108    1
    97    38    39    1
    98    39    40    1
    99    39   109    1
   100    39   110    1
   101    40    41    2
   102    40    42    1
   103    42    43    1
   104    42    51    1
   105    43    44    1
   106    43   111    1
   107    43   112    1
   108    44    45    1
   109    44   113    1
   110    44   114    1
   111    45    46    1
   112    45   115    1
   113    45   116    1
   114    46    47    1
   115    46   117    1
   116    46   118    1
   117    47    48    1
   118    47   119    1
   119    47   120    1
   120    48    49    1
   121    48   121    1
   122    48   122    1
   123    49    50    1
   124    49   123    1
   125    49   124    1
   126    50   125    1
   127    50   126    1
   128    50   127    1
   129    51    52    1
   130    51   128    1
   131    51   129    1
   132    52    53    1
   133    52   130    1
   134    52   131    1
   135    53    54    1
   136    53   132    1
   137    53   133    1
   138    54    55    1
   139    54   134    1
   140    54   135    1
   141    55    56    1
   142    55   136    1
   143    55   137    1
   144    56    57    1
   145    56   138    1
   146    56   139    1
   147    57    58    1
   148    57   140    1
   149    57   141    1
   150    58   142    1
   151    58   143    1
   152    58   144    1
   153    59   145    1
   154   146   147    1
   155   146   204    1
   156   146   205    1
   157   146   206    1
   158   147   148    1
   159   147   207    1
   160   147   208    1
   161   148   149    1
   162   148   209    1
   163   148   210    1
   164   149   150    1
   165   149   211    1
   166   149   212    1
   167   150   151    1
   168   150   213    1
   169   150   214    1
   170   151   152    1
   171   151   215    1
   172   151   216    1
   173   152   153    1
   174   152   217    1
   175   152   218    1
   176   153   154    1
   177   153   219    1
   178   153   220    1
   179   154   155    1
   180   154   163    1
   181   155   156    1
   182   155   221    1
   183   155   222    1
   184   156   157    1
   185   156   223    1
   186   156   224    1
   187   157   158    1
   188   157   225    1
   189   157   226    1
   190   158   159    1
   191   158   227    1
   192   158   228    1
   193   159   160    1
   194   159   229    1
   195   159   230    1
   196   160   161    1
   197   160   231    1
   198   160   232    1
   199   161   162    1
   200   161   233    1
   201   161   234    1
   202   162   235    1
   203   162   236    1
   204   162   237    1
   205   163   164    2
   206   163   165    1
   207   165   166    1
   208   165   238    1
   209   165   239    1
   210   166   167    1
   211   167   168    1
   212   167   240    1
   213   167   241    1
   214   168   169    2
   215   168   170    1
   216   170   171    1
   217   170   242    1
   218   171   172    1
   219   171   243    1
   220   171   244    1
   221   172   173    1
   222   172   203    2
   223   173   174    2
   224   173   245    1
   225   174   175    1
   226   174   246    1
   227   175   176    2
   228   175   247    1
   229   176   177    1
   230   176   203    1
   231   177   178    1
   232   177   248    1
   233   177   249    1
   234   178   179    1
   235   178   250    1
   236   179   180    2
   237   179   181    1
   238   181   182    1
   239   181   251    1
   240   181   252    1
   241   182   183    1
   242   183   184    1
   243   183   253    1
   244   183   254    1
   245   184   185    2
   246   184   186    1
   247   186   187    1
   248   186   195    1
   249   187   188    1
   250   187   255    1
   251   187   256    1
   252   188   189    1
   253   188   257    1
   254   188   258    1
   255   189   190    1
   256   189   259    1
   257   189   260    1
   258   190   191    1
   259   190   261    1
   260   190   262    1
   261   191   192    1
   262   191   263    1
   263   191   264    1
   264   192   193    1
   265   192   265    1
   266   192   266    1
   267   193   194    1
   268   193   267    1
   269   193   268    1
   270   194   269    1
   271   194   270    1
   272   194   271    1
   273   195   196    1
   274   195   272    1
   275   195   273    1
   276   196   197    1
   277   196   274    1
   278   196   275    1
   279   197   198    1
   280   197   276    1
   281   197   277    1
   282   198   199    1
   283   198   278    1
   284   198   279    1
   285   199   200    1
   286   199   280    1
   287   199   281    1
   288   200   201    1
   289   200   282    1
   290   200   283    1
   291   201   202    1
   292   201   284    1
   293   201   285    1
   294   202   286    1
   295   202   287    1
   296   202   288    1
   297   203   289    1
   298   290   291    1
   299   290   348    1
   300   290   349    1
   301   290   350    1
   302   291   292    1
   303   291   351    1
   304   291   352    1
   305   292   293    1
   306   292   353    1
   307   292   354    1
   308   293   294    1
   309   293   355    1
   310   293   356    1
   311   294   295    1
   312   294   357    1
   313   294   358    1
   314   295   296    1
   315   295   359    1
   316   295   360    1
   317   296   297    1
   318   296   361    1
   319   296   362    1
   320   297   298    1
   321   297   363    1
   322   297   364    1
   323   298   299    1
   324   298   307    1
   325   299   300    1
   326   299   365    1
   327   299   366    1
   328   300   301    1
   329   300   367    1
   330   300   368    1
   331   301   302    1
   332   301   369    1
   333   301   370    1
   334   302   303    1
   335   302   371    1
   336   302   372    1
   337   303   304    1
   338   303   373    1
   339   303   374    1
   340   304   305    1
   341   304   375    1
   342   304   376    1
   343   305   306    1
   344   305   377    1
   345   305   378    1
   346   306   379    1
   347   306   380    1
   348   306   381    1
   349   307   308    2
   350   307   309    1
   351   309   310    1
   352   309   382    1
   353   309   383    1
   354   310   311    1
   355   311   312    1
   356   311   384    1
   357   311   385    1
   358   312   313    2
   359   312   314    1
   360   314   315    1
   361   314   386    1
   362   315   316    1
   363   315   387    1
   364   315   388    1
   365   316   317    1
   366   316   347    2
   367   317   318    2
   368   317   389    1
   369   318   319    1
   370   318   390    1
   371   319   320    2
   372   319   391    1
   373   320   321    1
   374   320   347    1
   375   321   322    1
   376   321   392    1
   377   321   393    1
   378   322   323    1
   379   322   394    1
   380   323   324    2
   381   323   325    1
   382   325   326    1
   383   325   395    1
   384   325   396    1
   385   326   327    1
   386   327   328    1
   387   327   397    1
   388   327   398    1
   389   328   329    2
   390   328   330    1
   391   330   331    1
   392   330   339    1
   393   331   332    1
   394   331   399    1
   395   331   400    1
   396   332   333    1
   397   332   401    1
   398   332   402    1
   399   333   334    1
   400   333   403    1
   401   333   404    1
   402   334   335    1
   403   334   405    1
   404   334   406    1
   405   335   336    1
   406   335   407    1
   407   335   408    1
   408   336   337    1
   409   336   409    1
   410   336   410    1
   411   337   338    1
   412   337   411    1
   413   337   412    1
   414   338   413    1
   415   338   414    1
   416   338   415    1
   417   339   340    1
   418   339   416    1
   419   339   417    1
   420   340   341    1
   421   340   418    1
   422   340   419    1
   423   341   342    1
   424   341   420    1
   425   341   421    1
   426   342   343    1
   427   342   422    1
   428   342   423    1
   429   343   344    1
   430   343   424    1
   431   343   425    1
   432   344   345    1
   433   344   426    1
   434   344   427    1
   435   345   346    1
   436   345   428    1
   437   345   429    1
   438   346   430    1
   439   346   431    1
   440   346   432    1
   441   347   433    1
@<TRIPOS>SUBSTRUCTURE
     1 RES1      433 GROUP             0 ****  ****    0  
