@<TRIPOS>MOLECULE
tri_tri_mer_capped_0_nunpairedes_0_charge_3 Charge: 3 Unpaired_Electrons: 6 XTB_Unpaired_Electrons: 0 XTB_Charge: 3
    50    57     1     0     0
SMALL
NoCharges
****
Generated from Architector

@<TRIPOS>ATOM
     1 Eu1       0.4356    0.2781   -0.8188   Eu        1 RES1   0.0000
     2 O1       -1.4750   -0.7455   -1.5042   O.2       1 RES1   0.0000
     3 C1       -1.6200   -1.8986   -1.9125   C.2       1 RES1   0.0000
     4 O2       -2.7296   -2.2758   -2.4441   O.2       1 RES1   0.0000
     5 C2       -0.4438   -2.8689   -1.7512   C.3       1 RES1   0.0000
     6 N1        0.4251   -2.3626   -0.6592   N.4       1 RES1   0.0000
     7 C3       -0.1243   -2.7807    0.6558   C.3       1 RES1   0.0000
     8 C4       -0.0897   -1.6253    1.6483   C.2       1 RES1   0.0000
     9 O3        0.2192   -0.4963    1.2552   O.2       1 RES1   0.0000
    10 O4       -0.3361   -1.8199    2.8998   O.2       1 RES1   0.0000
    11 C5        1.8697   -2.7345   -0.8714   C.3       1 RES1   0.0000
    12 C6        2.1054   -4.2628   -0.8114   C.3       1 RES1   0.0000
    13 C7        2.7575   -4.7470    0.4810   C.3       1 RES1   0.0000
    14 C8        4.1120   -4.0619    0.7115   C.3       1 RES1   0.0000
    15 C9        4.1892   -2.6976    0.0068   C.3       1 RES1   0.0000
    16 C10       2.8270   -1.9978    0.1067   C.3       1 RES1   0.0000
    17 N2        2.8552   -0.5109   -0.1092   N.4       1 RES1   0.0000
    18 C11       3.1869    0.2330    1.1266   C.3       1 RES1   0.0000
    19 C12       2.3188    1.4941    1.1953   C.2       1 RES1   0.0000
    20 O5        1.6664    1.8179    0.2026   O.2       1 RES1   0.0000
    21 O6        2.2600    2.2051    2.2688   O.2       1 RES1   0.0000
    22 C13       3.7489   -0.0571   -1.2019   C.3       1 RES1   0.0000
    23 C14       3.0274   -0.1582   -2.5372   C.2       1 RES1   0.0000
    24 O7        1.7974   -0.0371   -2.5453   O.2       1 RES1   0.0000
    25 O8        3.6594   -0.3722   -3.6366   O.3       1 RES1   0.0000
    26 H1       -2.8537   -3.1870   -2.7703   H         1 RES1   0.0000
    27 H2        0.1152   -2.8608   -2.6986   H         1 RES1   0.0000
    28 H3       -0.7948   -3.8982   -1.5788   H         1 RES1   0.0000
    29 H4        0.4187   -3.6431    1.0617   H         1 RES1   0.0000
    30 H5       -1.1695   -3.0871    0.5339   H         1 RES1   0.0000
    31 H6       -0.6393   -2.6907    3.2166   H         1 RES1   0.0000
    32 H7        2.1203   -2.4065   -1.8910   H         1 RES1   0.0000
    33 H8        2.7453   -4.5640   -1.6397   H         1 RES1   0.0000
    34 H9        1.1655   -4.7896   -0.9558   H         1 RES1   0.0000
    35 H10       2.8964   -5.8252    0.4077   H         1 RES1   0.0000
    36 H11       2.1103   -4.5795    1.3466   H         1 RES1   0.0000
    37 H12       4.9270   -4.6850    0.3451   H         1 RES1   0.0000
    38 H13       4.2705   -3.9427    1.7832   H         1 RES1   0.0000
    39 H14       4.4380   -2.8600   -1.0425   H         1 RES1   0.0000
    40 H15       4.9846   -2.1183    0.4773   H         1 RES1   0.0000
    41 H16       2.4533   -2.1348    1.1275   H         1 RES1   0.0000
    42 H17       4.2493    0.5094    1.1410   H         1 RES1   0.0000
    43 H18       3.0106   -0.3811    2.0130   H         1 RES1   0.0000
    44 H19       2.7616    1.9473    3.0619   H         1 RES1   0.0000
    45 H20       4.7088   -0.5799   -1.1898   H         1 RES1   0.0000
    46 H21       3.9672    1.0114   -1.0565   H         1 RES1   0.0000
    47 H22       4.6337   -0.4134   -3.6419   H         1 RES1   0.0000
    48 O9       -1.1557    1.9956   -0.6852   O.3       1 RES1   0.0000
    49 H23      -2.1214    1.8929   -0.7672   H         1 RES1   0.0000
    50 H24      -1.0114    2.9582   -0.6142   H         1 RES1   0.0000
@<TRIPOS>BOND
     1     1     2    1
     2     1     4    1
     3     1     6    1
     4     1     9    1
     5     1    10    1
     6     1    17    1
     7     1    20    1
     8     1    21    1
     9     1    48    1
    10     2     3    2
    11     3     4    1
    12     3     5    1
    13     4    26    1
    14     5     6    1
    15     5    27    1
    16     5    28    1
    17     6     7    1
    18     6    11    1
    19     7     8    1
    20     7    29    1
    21     7    30    1
    22     8     9    2
    23     8    10    1
    24    10    31    1
    25    11    12    1
    26    11    16    1
    27    11    32    1
    28    12    13    1
    29    12    33    1
    30    12    34    1
    31    13    14    1
    32    13    35    1
    33    13    36    1
    34    14    15    1
    35    14    37    1
    36    14    38    1
    37    15    16    1
    38    15    39    1
    39    15    40    1
    40    16    17    1
    41    16    41    1
    42    17    18    1
    43    17    22    1
    44    18    19    1
    45    18    42    1
    46    18    43    1
    47    19    20    2
    48    19    21    1
    49    21    44    1
    50    22    23    1
    51    22    45    1
    52    22    46    1
    53    23    24    2
    54    23    25    1
    55    25    47    1
    56    48    49    1
    57    48    50    1
@<TRIPOS>SUBSTRUCTURE
     1 RES1       50 GROUP             0 ****  ****    0  
