@<TRIPOS>MOLECULE
am_c3_9H2O_c0_0_nunpairedes_0_charge_3 Charge: 3 Unpaired_Electrons: 6 XTB_Unpaired_Electrons: 0 XTB_Charge: 3
   190   195     1     0     0
SMALL
NoCharges
****
Generated from Architector

@<TRIPOS>ATOM
     1 Eu1       0.2329    0.0605   -0.0424   Eu        1 RES1   0.0000
     2 C1       -7.7648    1.5833   -1.0417   C.3       1 RES1   0.0000
     3 C2       -6.2611    1.3458   -0.9717   C.3       1 RES1   0.0000
     4 C3       -5.4488    2.6275   -1.1092   C.3       1 RES1   0.0000
     5 C4       -3.9377    2.4517   -0.9593   C.3       1 RES1   0.0000
     6 P1       -3.0128    1.4163   -2.1776   P.3       1 RES1   0.0000
     7 S1       -1.0933    1.8343   -1.9503   S.3       1 RES1   0.0000
     8 C5       -3.5796    1.4463   -3.9256   C.3       1 RES1   0.0000
     9 C6       -3.1524    2.6879   -4.7110   C.3       1 RES1   0.0000
    10 C7       -3.9255    3.9263   -4.2670   C.3       1 RES1   0.0000
    11 C8       -3.6351    5.1609   -5.1096   C.3       1 RES1   0.0000
    12 C9       -3.2784   -0.3367   -1.6261   C.3       1 RES1   0.0000
    13 O1       -2.8426   -0.3774   -0.2675   O.3       1 RES1   0.0000
    14 C10      -3.7405   -1.0560    0.5957   C.3       1 RES1   0.0000
    15 P2       -3.0153   -0.8340    2.2797   P.3       1 RES1   0.0000
    16 S2       -1.1454   -1.4802    2.1545   S.3       1 RES1   0.0000
    17 C11      -3.2487    0.9651    2.6006   C.3       1 RES1   0.0000
    18 C12      -3.1498    1.3611    4.0743   C.3       1 RES1   0.0000
    19 C13      -3.8711    2.6815    4.3197   C.3       1 RES1   0.0000
    20 C14      -3.7312    3.1270    5.7668   C.3       1 RES1   0.0000
    21 C15      -4.0100   -1.8403    3.4391   C.3       1 RES1   0.0000
    22 C16      -5.5176   -1.9046    3.1721   C.3       1 RES1   0.0000
    23 C17      -6.2331   -0.5595    3.3039   C.3       1 RES1   0.0000
    24 C18      -7.7436   -0.6878    3.1486   C.3       1 RES1   0.0000
    25 H1       -8.2899    0.6402   -0.9122   H         1 RES1   0.0000
    26 H2       -8.0518    2.0032   -2.0012   H         1 RES1   0.0000
    27 H3       -8.0946    2.2613   -0.2598   H         1 RES1   0.0000
    28 H4       -5.9847    0.6426   -1.7648   H         1 RES1   0.0000
    29 H5       -6.0379    0.8801   -0.0082   H         1 RES1   0.0000
    30 H6       -5.7638    3.3291   -0.3338   H         1 RES1   0.0000
    31 H7       -5.6636    3.0932   -2.0704   H         1 RES1   0.0000
    32 H8       -3.6816    2.0034    0.0082   H         1 RES1   0.0000
    33 H9       -3.4429    3.4276   -0.9974   H         1 RES1   0.0000
    34 H10      -4.6691    1.3576   -3.9493   H         1 RES1   0.0000
    35 H11      -3.1465    0.5400   -4.3669   H         1 RES1   0.0000
    36 H12      -3.3465    2.5002   -5.7715   H         1 RES1   0.0000
    37 H13      -2.0770    2.8560   -4.5964   H         1 RES1   0.0000
    38 H14      -3.6767    4.1381   -3.2213   H         1 RES1   0.0000
    39 H15      -4.9956    3.7184   -4.3262   H         1 RES1   0.0000
    40 H16      -2.5882    5.4412   -5.0536   H         1 RES1   0.0000
    41 H17      -4.2207    6.0005   -4.7465   H         1 RES1   0.0000
    42 H18      -3.8873    4.9839   -6.1494   H         1 RES1   0.0000
    43 H19      -2.6780   -1.0260   -2.2322   H         1 RES1   0.0000
    44 H20      -4.3291   -0.6193   -1.7129   H         1 RES1   0.0000
    45 H21      -3.8004   -2.1253    0.3565   H         1 RES1   0.0000
    46 H22      -4.7447   -0.6157    0.5357   H         1 RES1   0.0000
    47 H23      -4.2401    1.2254    2.2196   H         1 RES1   0.0000
    48 H24      -2.4840    1.4971    2.0195   H         1 RES1   0.0000
    49 H25      -2.0985    1.4375    4.3545   H         1 RES1   0.0000
    50 H26      -3.6072    0.6049    4.7120   H         1 RES1   0.0000
    51 H27      -4.9279    2.5678    4.0783   H         1 RES1   0.0000
    52 H28      -3.4633    3.4422    3.6518   H         1 RES1   0.0000
    53 H29      -4.1728    2.3859    6.4326   H         1 RES1   0.0000
    54 H30      -4.2373    4.0751    5.9233   H         1 RES1   0.0000
    55 H31      -2.6838    3.2467    6.0391   H         1 RES1   0.0000
    56 H32      -3.8224   -1.4348    4.4375   H         1 RES1   0.0000
    57 H33      -3.5755   -2.8444    3.4143   H         1 RES1   0.0000
    58 H34      -5.9474   -2.5918    3.9072   H         1 RES1   0.0000
    59 H35      -5.7097   -2.3243    2.1789   H         1 RES1   0.0000
    60 H36      -5.8627    0.1323    2.5442   H         1 RES1   0.0000
    61 H37      -6.0127   -0.1241    4.2782   H         1 RES1   0.0000
    62 H38      -7.9946   -1.0809    2.1674   H         1 RES1   0.0000
    63 H39      -8.2152    0.2851    3.2635   H         1 RES1   0.0000
    64 H40      -8.1530   -1.3560    3.9000   H         1 RES1   0.0000
    65 C19       5.1021   -5.8567    3.2531   C.3       1 RES1   0.0000
    66 C20       4.3800   -4.6841    2.6021   C.3       1 RES1   0.0000
    67 C21       5.2196   -3.4102    2.5929   C.3       1 RES1   0.0000
    68 C22       4.6562   -2.3024    1.7028   C.3       1 RES1   0.0000
    69 P3        3.0092   -1.6013    2.1598   P.3       1 RES1   0.0000
    70 S3        2.8028    0.1823    1.3333   S.3       1 RES1   0.0000
    71 C23       2.5879   -1.5085    3.9458   C.3       1 RES1   0.0000
    72 C24       3.1628   -0.2551    4.5969   C.3       1 RES1   0.0000
    73 C25       4.6837   -0.2974    4.6801   C.3       1 RES1   0.0000
    74 C26       5.2722    0.9164    5.3843   C.3       1 RES1   0.0000
    75 C27       1.7794   -2.8726    1.5270   C.3       1 RES1   0.0000
    76 O2        1.2988   -2.5277    0.2335   O.3       1 RES1   0.0000
    77 C28       0.7849   -3.6718   -0.4462   C.3       1 RES1   0.0000
    78 P4        0.8503   -3.1788   -2.2350   P.3       1 RES1   0.0000
    79 S4       -0.3434   -1.6023   -2.3640   S.3       1 RES1   0.0000
    80 C29       2.6419   -2.8851   -2.4914   C.3       1 RES1   0.0000
    81 C30       2.9654   -2.3635   -3.8876   C.3       1 RES1   0.0000
    82 C31       4.4176   -1.8958   -3.9222   C.3       1 RES1   0.0000
    83 C32       4.7869   -1.2110   -5.2275   C.3       1 RES1   0.0000
    84 C33       0.2023   -4.5043   -3.3273   C.3       1 RES1   0.0000
    85 C34       0.5763   -5.9499   -3.0002   C.3       1 RES1   0.0000
    86 C35       2.0795   -6.2103   -2.9893   C.3       1 RES1   0.0000
    87 C36       2.4002   -7.6995   -3.0379   C.3       1 RES1   0.0000
    88 H41       4.4824   -6.7475    3.1995   H         1 RES1   0.0000
    89 H42       5.3227   -5.6524    4.2961   H         1 RES1   0.0000
    90 H43       6.0357   -6.0645    2.7374   H         1 RES1   0.0000
    91 H44       3.4415   -4.5018    3.1387   H         1 RES1   0.0000
    92 H45       4.1407   -4.9648    1.5732   H         1 RES1   0.0000
    93 H46       6.2189   -3.6431    2.2170   H         1 RES1   0.0000
    94 H47       5.3348   -3.0413    3.6120   H         1 RES1   0.0000
    95 H48       4.5504   -2.6579    0.6697   H         1 RES1   0.0000
    96 H49       5.3454   -1.4532    1.6723   H         1 RES1   0.0000
    97 H50       2.9239   -2.4116    4.4607   H         1 RES1   0.0000
    98 H51       1.4897   -1.4748    3.9620   H         1 RES1   0.0000
    99 H52       2.7346   -0.1648    5.5971   H         1 RES1   0.0000
   100 H53       2.8508    0.6206    4.0224   H         1 RES1   0.0000
   101 H54       5.0909   -0.3547    3.6648   H         1 RES1   0.0000
   102 H55       4.9864   -1.1939    5.2198   H         1 RES1   0.0000
   103 H56       5.0301    1.8337    4.8528   H         1 RES1   0.0000
   104 H57       6.3529    0.8266    5.4314   H         1 RES1   0.0000
   105 H58       4.8916    0.9954    6.3991   H         1 RES1   0.0000
   106 H59       0.9485   -2.9901    2.2371   H         1 RES1   0.0000
   107 H60       2.3179   -3.8218    1.4699   H         1 RES1   0.0000
   108 H61      -0.2471   -3.8921   -0.1333   H         1 RES1   0.0000
   109 H62       1.4169   -4.5486   -0.2535   H         1 RES1   0.0000
   110 H63       3.1778   -3.8157   -2.2891   H         1 RES1   0.0000
   111 H64       2.9409   -2.1327   -1.7537   H         1 RES1   0.0000
   112 H65       2.3008   -1.5259   -4.1160   H         1 RES1   0.0000
   113 H66       2.8111   -3.1409   -4.6359   H         1 RES1   0.0000
   114 H67       5.0713   -2.7587   -3.7658   H         1 RES1   0.0000
   115 H68       4.5699   -1.2055   -3.0907   H         1 RES1   0.0000
   116 H69       4.6318   -1.8765   -6.0719   H         1 RES1   0.0000
   117 H70       5.8337   -0.9200   -5.2068   H         1 RES1   0.0000
   118 H71       4.1817   -0.3171   -5.3756   H         1 RES1   0.0000
   119 H72       0.5571   -4.2308   -4.3296   H         1 RES1   0.0000
   120 H73      -0.8858   -4.3796   -3.3260   H         1 RES1   0.0000
   121 H74       0.1145   -6.5819   -3.7633   H         1 RES1   0.0000
   122 H75       0.1448   -6.2372   -2.0388   H         1 RES1   0.0000
   123 H76       2.5199   -5.7848   -2.0818   H         1 RES1   0.0000
   124 H77       2.5406   -5.7229   -3.8489   H         1 RES1   0.0000
   125 H78       1.9683   -8.2154   -2.1833   H         1 RES1   0.0000
   126 H79       3.4772   -7.8513   -3.0309   H         1 RES1   0.0000
   127 H80       2.0014   -8.1490   -3.9458   H         1 RES1   0.0000
   128 C37       7.2736    3.3470   -1.0355   C.3       1 RES1   0.0000
   129 C38       6.6257    4.0009   -2.2491   C.3       1 RES1   0.0000
   130 C39       5.0942    3.9288   -2.2049   C.3       1 RES1   0.0000
   131 C40       4.6016    2.4840   -2.3482   C.3       1 RES1   0.0000
   132 P5        2.7951    2.1904   -2.2673   P.3       1 RES1   0.0000
   133 S5        2.4075    0.2928   -1.8769   S.3       1 RES1   0.0000
   134 C41       1.9311    2.5804   -3.8423   C.3       1 RES1   0.0000
   135 C42       2.1895    3.8995   -4.5612   C.3       1 RES1   0.0000
   136 C43       1.6769    5.1354   -3.8303   C.3       1 RES1   0.0000
   137 C44       0.1772    5.0875   -3.5734   C.3       1 RES1   0.0000
   138 C45       2.2675    3.2412   -0.8174   C.3       1 RES1   0.0000
   139 O3        1.0359    2.8073   -0.2733   O.3       1 RES1   0.0000
   140 C46       0.3538    3.8212    0.4557   C.3       1 RES1   0.0000
   141 P6        0.5440    3.4523    2.2802   P.3       1 RES1   0.0000
   142 S6       -0.0125    1.5603    2.4716   S.3       1 RES1   0.0000
   143 C47      -0.5388    4.4589    3.3788   C.3       1 RES1   0.0000
   144 C48      -0.3488    5.9683    3.4742   C.3       1 RES1   0.0000
   145 C49      -0.5120    6.6371    2.1153   C.3       1 RES1   0.0000
   146 C50      -0.5260    8.1585    2.1837   C.3       1 RES1   0.0000
   147 C51       2.2985    3.6899    2.7415   C.3       1 RES1   0.0000
   148 C52       2.9666    4.9836    2.2688   C.3       1 RES1   0.0000
   149 C53       4.4685    4.9371    2.5526   C.3       1 RES1   0.0000
   150 C54       5.1862    6.1943    2.0671   C.3       1 RES1   0.0000
   151 H81       8.3438    3.5124   -1.0455   H         1 RES1   0.0000
   152 H82       7.0988    2.2745   -1.0179   H         1 RES1   0.0000
   153 H83       6.8849    3.7805   -0.1181   H         1 RES1   0.0000
   154 H84       6.9941    3.5348   -3.1639   H         1 RES1   0.0000
   155 H85       6.9191    5.0502   -2.2779   H         1 RES1   0.0000
   156 H86       4.6910    4.5518   -3.0018   H         1 RES1   0.0000
   157 H87       4.7665    4.3487   -1.2518   H         1 RES1   0.0000
   158 H88       5.0181    1.8660   -1.5463   H         1 RES1   0.0000
   159 H89       4.9337    2.0596   -3.3014   H         1 RES1   0.0000
   160 H90       0.8681    2.4313   -3.6375   H         1 RES1   0.0000
   161 H91       2.2537    1.7441   -4.4769   H         1 RES1   0.0000
   162 H92       1.6796    3.8285   -5.5238   H         1 RES1   0.0000
   163 H93       3.2552    4.0073   -4.7697   H         1 RES1   0.0000
   164 H94       1.8956    6.0069   -4.4444   H         1 RES1   0.0000
   165 H95       2.2239    5.2609   -2.8942   H         1 RES1   0.0000
   166 H96      -0.3517    4.9789   -4.5149   H         1 RES1   0.0000
   167 H97      -0.1603    6.0102   -3.1107   H         1 RES1   0.0000
   168 H98      -0.1040    4.2578   -2.9272   H         1 RES1   0.0000
   169 H99       2.1748    4.2748   -1.1628   H         1 RES1   0.0000
   170 H100      3.0829    3.1533   -0.0780   H         1 RES1   0.0000
   171 H101     -0.7142    3.7494    0.2107   H         1 RES1   0.0000
   172 H102      0.7106    4.8211    0.1880   H         1 RES1   0.0000
   173 H103     -0.3935    3.9882    4.3589   H         1 RES1   0.0000
   174 H104     -1.5629    4.2406    3.0644   H         1 RES1   0.0000
   175 H105      0.6237    6.2141    3.9022   H         1 RES1   0.0000
   176 H106     -1.1050    6.3516    4.1632   H         1 RES1   0.0000
   177 H107     -1.4415    6.2895    1.6568   H         1 RES1   0.0000
   178 H108      0.3202    6.3229    1.4782   H         1 RES1   0.0000
   179 H109     -1.3369    8.5108    2.8149   H         1 RES1   0.0000
   180 H110     -0.6689    8.5709    1.1881   H         1 RES1   0.0000
   181 H111      0.4127    8.5363    2.5800   H         1 RES1   0.0000
   182 H112      2.8338    2.8085    2.3634   H         1 RES1   0.0000
   183 H113      2.3040    3.6346    3.8387   H         1 RES1   0.0000
   184 H114      2.5323    5.8417    2.7839   H         1 RES1   0.0000
   185 H115      2.8160    5.1331    1.1972   H         1 RES1   0.0000
   186 H116      4.9041    4.0583    2.0681   H         1 RES1   0.0000
   187 H117      4.6268    4.8307    3.6273   H         1 RES1   0.0000
   188 H118      5.1104    6.3016    0.9861   H         1 RES1   0.0000
   189 H119      6.2396    6.1391    2.3324   H         1 RES1   0.0000
   190 H120      4.7681    7.0843    2.5334   H         1 RES1   0.0000
@<TRIPOS>BOND
     1     1     7    1
     2     1    13    1
     3     1    16    1
     4     1    70    1
     5     1    76    1
     6     1    79    1
     7     1   133    1
     8     1   139    1
     9     1   142    1
    10     2     3    1
    11     2    25    1
    12     2    26    1
    13     2    27    1
    14     3     4    1
    15     3    28    1
    16     3    29    1
    17     4     5    1
    18     4    30    1
    19     4    31    1
    20     5     6    1
    21     5    32    1
    22     5    33    1
    23     6     7    2
    24     6     8    1
    25     6    12    1
    26     8     9    1
    27     8    34    1
    28     8    35    1
    29     9    10    1
    30     9    36    1
    31     9    37    1
    32    10    11    1
    33    10    38    1
    34    10    39    1
    35    11    40    1
    36    11    41    1
    37    11    42    1
    38    12    13    1
    39    12    43    1
    40    12    44    1
    41    13    14    1
    42    14    15    1
    43    14    45    1
    44    14    46    1
    45    15    16    2
    46    15    17    1
    47    15    21    1
    48    17    18    1
    49    17    47    1
    50    17    48    1
    51    18    19    1
    52    18    49    1
    53    18    50    1
    54    19    20    1
    55    19    51    1
    56    19    52    1
    57    20    53    1
    58    20    54    1
    59    20    55    1
    60    21    22    1
    61    21    56    1
    62    21    57    1
    63    22    23    1
    64    22    58    1
    65    22    59    1
    66    23    24    1
    67    23    60    1
    68    23    61    1
    69    24    62    1
    70    24    63    1
    71    24    64    1
    72    65    66    1
    73    65    88    1
    74    65    89    1
    75    65    90    1
    76    66    67    1
    77    66    91    1
    78    66    92    1
    79    67    68    1
    80    67    93    1
    81    67    94    1
    82    68    69    1
    83    68    95    1
    84    68    96    1
    85    69    70    2
    86    69    71    1
    87    69    75    1
    88    71    72    1
    89    71    97    1
    90    71    98    1
    91    72    73    1
    92    72    99    1
    93    72   100    1
    94    73    74    1
    95    73   101    1
    96    73   102    1
    97    74   103    1
    98    74   104    1
    99    74   105    1
   100    75    76    1
   101    75   106    1
   102    75   107    1
   103    76    77    1
   104    77    78    1
   105    77   108    1
   106    77   109    1
   107    78    79    2
   108    78    80    1
   109    78    84    1
   110    80    81    1
   111    80   110    1
   112    80   111    1
   113    81    82    1
   114    81   112    1
   115    81   113    1
   116    82    83    1
   117    82   114    1
   118    82   115    1
   119    83   116    1
   120    83   117    1
   121    83   118    1
   122    84    85    1
   123    84   119    1
   124    84   120    1
   125    85    86    1
   126    85   121    1
   127    85   122    1
   128    86    87    1
   129    86   123    1
   130    86   124    1
   131    87   125    1
   132    87   126    1
   133    87   127    1
   134   128   129    1
   135   128   151    1
   136   128   152    1
   137   128   153    1
   138   129   130    1
   139   129   154    1
   140   129   155    1
   141   130   131    1
   142   130   156    1
   143   130   157    1
   144   131   132    1
   145   131   158    1
   146   131   159    1
   147   132   133    2
   148   132   134    1
   149   132   138    1
   150   134   135    1
   151   134   160    1
   152   134   161    1
   153   135   136    1
   154   135   162    1
   155   135   163    1
   156   136   137    1
   157   136   164    1
   158   136   165    1
   159   137   166    1
   160   137   167    1
   161   137   168    1
   162   138   139    1
   163   138   169    1
   164   138   170    1
   165   139   140    1
   166   140   141    1
   167   140   171    1
   168   140   172    1
   169   141   142    2
   170   141   143    1
   171   141   147    1
   172   143   144    1
   173   143   173    1
   174   143   174    1
   175   144   145    1
   176   144   175    1
   177   144   176    1
   178   145   146    1
   179   145   177    1
   180   145   178    1
   181   146   179    1
   182   146   180    1
   183   146   181    1
   184   147   148    1
   185   147   182    1
   186   147   183    1
   187   148   149    1
   188   148   184    1
   189   148   185    1
   190   149   150    1
   191   149   186    1
   192   149   187    1
   193   150   188    1
   194   150   189    1
   195   150   190    1
@<TRIPOS>SUBSTRUCTURE
     1 RES1      190 GROUP             0 ****  ****    0  
