@<TRIPOS>MOLECULE
am_c3_9H2O_c0_0_nunpairedes_0_charge_3 Charge: 3 Unpaired_Electrons: 6 XTB_Unpaired_Electrons: 0 XTB_Charge: 3
   352   363     1     0     0
SMALL
NoCharges
****
Generated from Architector

@<TRIPOS>ATOM
     1 Eu1      -0.0672    0.0036    0.1324   Eu        1 RES1   0.0000
     2 C1      -11.7980    4.0495    2.5872   C.3       1 RES1   0.0000
     3 C2      -11.6849    3.5952    1.1335   C.3       1 RES1   0.0000
     4 C3      -11.6361    2.0686    0.9571   C.3       1 RES1   0.0000
     5 C4      -10.2256    1.5017    0.7718   C.3       1 RES1   0.0000
     6 C5       -9.3293    1.8172    1.9651   C.3       1 RES1   0.0000
     7 C6       -7.9318    1.2146    1.8617   C.3       1 RES1   0.0000
     8 C7       -7.0544    1.5923    3.0576   C.3       1 RES1   0.0000
     9 C8       -6.7614    3.0942    3.1209   C.3       1 RES1   0.0000
    10 C9       -5.7525    3.5041    4.1999   C.3       1 RES1   0.0000
    11 C10      -6.3771    3.5030    5.5940   C.3       1 RES1   0.0000
    12 C11      -4.4926    2.6509    4.1994   C.3       1 RES1   0.0000
    13 S1       -5.2826    5.2816    3.9059   S.3       1 RES1   0.0000
    14 C12      -4.3438    5.2349    2.3336   C.3       1 RES1   0.0000
    15 C13      -2.8572    5.5463    2.5573   C.3       1 RES1   0.0000
    16 C14      -1.9399    4.3301    2.4118   C.3       1 RES1   0.0000
    17 N1       -1.8307    4.1692    0.9603   N.am      1 RES1   0.0000
    18 C15      -1.5320    3.0096    0.3951   C.2       1 RES1   0.0000
    19 O1       -1.2201    1.9889    1.0452   O.2       1 RES1   0.0000
    20 C16      -1.5689    2.9508   -1.1361   C.3       1 RES1   0.0000
    21 O2       -1.1689    1.6603   -1.5993   O.3       1 RES1   0.0000
    22 C17      -2.2142    0.9373   -2.2413   C.3       1 RES1   0.0000
    23 C18      -3.0427    0.1470   -1.2161   C.2       1 RES1   0.0000
    24 O3       -2.4654   -0.2599   -0.1894   O.2       1 RES1   0.0000
    25 N2       -4.3033   -0.1103   -1.5054   N.am      1 RES1   0.0000
    26 C19      -5.0819    0.4703   -2.5833   C.3       1 RES1   0.0000
    27 C20      -6.5296    0.2152   -2.1618   C.3       1 RES1   0.0000
    28 C21      -7.5209    0.3628   -3.3039   C.3       1 RES1   0.0000
    29 C22      -6.4500   -1.1656   -1.4789   C.3       1 RES1   0.0000
    30 C23      -6.6055   -2.3853   -2.3973   C.3       1 RES1   0.0000
    31 S2       -5.1584   -2.7513   -3.4538   S.3       1 RES1   0.0000
    32 C24      -5.6848   -2.9420   -5.2742   C.3       1 RES1   0.0000
    33 C25      -5.3035   -4.3671   -5.6575   C.3       1 RES1   0.0000
    34 C26      -7.1667   -2.7419   -5.5343   C.3       1 RES1   0.0000
    35 C27      -4.8129   -1.8802   -5.9563   C.3       1 RES1   0.0000
    36 C28      -4.9629   -1.7359   -7.4701   C.3       1 RES1   0.0000
    37 C29      -3.8396   -0.8855   -8.0817   C.3       1 RES1   0.0000
    38 C30      -3.5292    0.4363   -7.3660   C.3       1 RES1   0.0000
    39 C31      -4.7049    1.4130   -7.3333   C.3       1 RES1   0.0000
    40 C32      -4.5641    2.5346   -6.3013   C.3       1 RES1   0.0000
    41 C33      -3.4010    3.5081   -6.5408   C.3       1 RES1   0.0000
    42 C34      -2.1478    3.1879   -5.7272   C.3       1 RES1   0.0000
    43 C35      -5.0930   -1.0876   -0.7566   C.3       1 RES1   0.0000
    44 C36      -2.1513    5.4269    0.2905   C.3       1 RES1   0.0000
    45 C37      -2.2756    6.4378    1.4454   C.3       1 RES1   0.0000
    46 C38      -3.0505    7.7185    1.1614   C.3       1 RES1   0.0000
    47 H1      -11.8864    5.1327    2.6339   H         1 RES1   0.0000
    48 H2      -10.9383    3.7556    3.1849   H         1 RES1   0.0000
    49 H3      -12.6879    3.6198    3.0402   H         1 RES1   0.0000
    50 H4      -10.8026    4.0429    0.6697   H         1 RES1   0.0000
    51 H5      -12.5561    3.9844    0.6043   H         1 RES1   0.0000
    52 H6      -12.2238    1.7894    0.0814   H         1 RES1   0.0000
    53 H7      -12.0980    1.5923    1.8227   H         1 RES1   0.0000
    54 H8       -9.7832    1.9239   -0.1364   H         1 RES1   0.0000
    55 H9      -10.2920    0.4180    0.6320   H         1 RES1   0.0000
    56 H10      -9.8046    1.4522    2.8778   H         1 RES1   0.0000
    57 H11      -9.2369    2.8995    2.0382   H         1 RES1   0.0000
    58 H12      -7.4528    1.5519    0.9352   H         1 RES1   0.0000
    59 H13      -8.0035    0.1244    1.8145   H         1 RES1   0.0000
    60 H14      -6.1143    1.0438    2.9763   H         1 RES1   0.0000
    61 H15      -7.5511    1.2774    3.9757   H         1 RES1   0.0000
    62 H16      -7.6834    3.6461    3.3087   H         1 RES1   0.0000
    63 H17      -6.3945    3.4055    2.1371   H         1 RES1   0.0000
    64 H18      -6.8950    2.5654    5.7909   H         1 RES1   0.0000
    65 H19      -7.0973    4.3131    5.6856   H         1 RES1   0.0000
    66 H20      -5.6137    3.6377    6.3583   H         1 RES1   0.0000
    67 H21      -4.7278    1.7051    4.6754   H         1 RES1   0.0000
    68 H22      -3.7101    3.1464    4.7719   H         1 RES1   0.0000
    69 H23      -4.1346    2.4425    3.1909   H         1 RES1   0.0000
    70 H24      -4.8070    6.0069    1.7225   H         1 RES1   0.0000
    71 H25      -4.5054    4.2734    1.8518   H         1 RES1   0.0000
    72 H26      -2.7414    6.0046    3.5401   H         1 RES1   0.0000
    73 H27      -2.2904    3.4074    2.8649   H         1 RES1   0.0000
    74 H28      -0.9550    4.5699    2.8305   H         1 RES1   0.0000
    75 H29      -0.8633    3.6792   -1.5592   H         1 RES1   0.0000
    76 H30      -2.5723    3.2046   -1.4900   H         1 RES1   0.0000
    77 H31      -1.7194    0.1753   -2.8614   H         1 RES1   0.0000
    78 H32      -2.7969    1.6046   -2.8820   H         1 RES1   0.0000
    79 H33      -4.8711   -0.0470   -3.5227   H         1 RES1   0.0000
    80 H34      -4.8839    1.5356   -2.6929   H         1 RES1   0.0000
    81 H35      -6.7970    0.9425   -1.3872   H         1 RES1   0.0000
    82 H36      -7.1701   -0.1473   -4.1953   H         1 RES1   0.0000
    83 H37      -7.6506    1.4123   -3.5522   H         1 RES1   0.0000
    84 H38      -8.4925   -0.0361   -3.0268   H         1 RES1   0.0000
    85 H39      -7.2603   -1.2521   -0.7482   H         1 RES1   0.0000
    86 H40      -7.4727   -2.2587   -3.0375   H         1 RES1   0.0000
    87 H41      -6.7630   -3.2760   -1.7862   H         1 RES1   0.0000
    88 H42      -5.8824   -5.0828   -5.0758   H         1 RES1   0.0000
    89 H43      -4.2461   -4.5499   -5.4843   H         1 RES1   0.0000
    90 H44      -5.5113   -4.5394   -6.7110   H         1 RES1   0.0000
    91 H45      -7.7803   -3.3974   -4.9177   H         1 RES1   0.0000
    92 H46      -7.3591   -3.0116   -6.5720   H         1 RES1   0.0000
    93 H47      -7.4880   -1.7103   -5.4019   H         1 RES1   0.0000
    94 H48      -3.7692   -2.1094   -5.7209   H         1 RES1   0.0000
    95 H49      -5.0510   -0.9161   -5.5002   H         1 RES1   0.0000
    96 H50      -5.9289   -1.2873   -7.7013   H         1 RES1   0.0000
    97 H51      -4.9325   -2.7169   -7.9466   H         1 RES1   0.0000
    98 H52      -4.1031   -0.6732   -9.1192   H         1 RES1   0.0000
    99 H53      -2.9210   -1.4809   -8.0958   H         1 RES1   0.0000
   100 H54      -2.6916    0.9042   -7.8892   H         1 RES1   0.0000
   101 H55      -3.2004    0.2254   -6.3435   H         1 RES1   0.0000
   102 H56      -5.6211    0.8685   -7.1023   H         1 RES1   0.0000
   103 H57      -4.8342    1.8502   -8.3229   H         1 RES1   0.0000
   104 H58      -4.4707    2.0953   -5.3027   H         1 RES1   0.0000
   105 H59      -5.4968    3.0991   -6.3171   H         1 RES1   0.0000
   106 H60      -3.7210    4.5161   -6.2687   H         1 RES1   0.0000
   107 H61      -3.1554    3.5247   -7.6025   H         1 RES1   0.0000
   108 H62      -2.3671    3.2558   -4.6589   H         1 RES1   0.0000
   109 H63      -1.3639    3.9082   -5.9548   H         1 RES1   0.0000
   110 H64      -1.7708    2.1897   -5.9430   H         1 RES1   0.0000
   111 H65      -4.5588   -2.0408   -0.7465   H         1 RES1   0.0000
   112 H66      -5.2132   -0.7557    0.2763   H         1 RES1   0.0000
   113 H67      -3.0950    5.3564   -0.2552   H         1 RES1   0.0000
   114 H68      -1.3707    5.6972   -0.4202   H         1 RES1   0.0000
   115 H69      -1.2657    6.7346    1.7510   H         1 RES1   0.0000
   116 H70      -3.9734    7.5569    0.6106   H         1 RES1   0.0000
   117 H71      -2.4493    8.4243    0.5951   H         1 RES1   0.0000
   118 H72      -3.3043    8.1797    2.1151   H         1 RES1   0.0000
   119 C39       7.8321   -3.8173   -2.0739   C.3       1 RES1   0.0000
   120 C40       6.9535   -2.6175   -2.4162   C.3       1 RES1   0.0000
   121 C41       7.1673   -1.4186   -1.4884   C.3       1 RES1   0.0000
   122 C42       6.6931   -1.6570   -0.0550   C.3       1 RES1   0.0000
   123 C43       6.7868   -0.4093    0.8298   C.3       1 RES1   0.0000
   124 C44       8.2274    0.0281    1.1051   C.3       1 RES1   0.0000
   125 C45       8.3502    1.2175    2.0623   C.3       1 RES1   0.0000
   126 C46       7.9187    2.5367    1.4241   C.3       1 RES1   0.0000
   127 C47       8.0286    3.7731    2.3263   C.3       1 RES1   0.0000
   128 C48       9.4669    4.0509    2.7524   C.3       1 RES1   0.0000
   129 C49       7.4765    5.0043    1.6068   C.3       1 RES1   0.0000
   130 S3        7.0951    3.5012    3.9170   S.3       1 RES1   0.0000
   131 C50       5.3858    3.3792    3.2751   C.3       1 RES1   0.0000
   132 C51       4.3524    3.0030    4.3326   C.3       1 RES1   0.0000
   133 C52       2.9702    3.1295    3.6865   C.3       1 RES1   0.0000
   134 N3        2.8457    1.8871    2.9369   N.am      1 RES1   0.0000
   135 C53       2.1044    1.6947    1.8671   C.2       1 RES1   0.0000
   136 O4        1.8676    0.5733    1.3685   O.2       1 RES1   0.0000
   137 C54       1.5668    2.9439    1.1564   C.3       1 RES1   0.0000
   138 O5        1.1065    2.5849   -0.1390   O.3       1 RES1   0.0000
   139 C55       2.0713    2.6967   -1.1756   C.3       1 RES1   0.0000
   140 C56       2.0340    1.4647   -2.0776   C.2       1 RES1   0.0000
   141 O6        1.5260    0.3977   -1.6734   O.2       1 RES1   0.0000
   142 N4        2.6013    1.5930   -3.2632   N.am      1 RES1   0.0000
   143 C57       2.8330    0.4599   -4.1512   C.3       1 RES1   0.0000
   144 C58       3.8798    0.9555   -5.1601   C.3       1 RES1   0.0000
   145 C59       5.2965    0.7097   -4.6494   C.3       1 RES1   0.0000
   146 C60       3.5033    2.4437   -5.2801   C.3       1 RES1   0.0000
   147 C61       4.5349    3.4126   -5.8412   C.3       1 RES1   0.0000
   148 S4        3.6577    5.0270   -5.9383   S.3       1 RES1   0.0000
   149 C62       4.9340    6.3960   -6.1118   C.3       1 RES1   0.0000
   150 C63       4.5728    7.1115   -7.4100   C.3       1 RES1   0.0000
   151 C64       6.3520    5.8572   -6.1993   C.3       1 RES1   0.0000
   152 C65       4.7319    7.3314   -4.9130   C.3       1 RES1   0.0000
   153 C66       4.9100    6.6803   -3.5419   C.3       1 RES1   0.0000
   154 C67       4.6675    7.6902   -2.4225   C.3       1 RES1   0.0000
   155 C68       4.8326    7.0996   -1.0202   C.3       1 RES1   0.0000
   156 C69       3.7934    6.0409   -0.6302   C.3       1 RES1   0.0000
   157 C70       2.3397    6.4737   -0.8354   C.3       1 RES1   0.0000
   158 C71       1.9771    7.7528   -0.0822   C.3       1 RES1   0.0000
   159 C72       0.6101    8.2892   -0.4926   C.3       1 RES1   0.0000
   160 C73       3.1114    2.8213   -3.8452   C.3       1 RES1   0.0000
   161 C74       3.6903    0.8476    3.5211   C.3       1 RES1   0.0000
   162 C75       4.3171    1.5194    4.7479   C.3       1 RES1   0.0000
   163 C76       5.6377    0.9232    5.1979   C.3       1 RES1   0.0000
   164 H73       7.7084   -4.5974   -2.8231   H         1 RES1   0.0000
   165 H74       7.5727   -4.2355   -1.1039   H         1 RES1   0.0000
   166 H75       8.8805   -3.5271   -2.0567   H         1 RES1   0.0000
   167 H76       5.9006   -2.9206   -2.3926   H         1 RES1   0.0000
   168 H77       7.1871   -2.3042   -3.4375   H         1 RES1   0.0000
   169 H78       6.6268   -0.5593   -1.8990   H         1 RES1   0.0000
   170 H79       8.2289   -1.1734   -1.4879   H         1 RES1   0.0000
   171 H80       7.2822   -2.4524    0.4009   H         1 RES1   0.0000
   172 H81       5.6489   -1.9876   -0.0784   H         1 RES1   0.0000
   173 H82       6.3062   -0.6324    1.7883   H         1 RES1   0.0000
   174 H83       6.2287    0.4041    0.3538   H         1 RES1   0.0000
   175 H84       8.7254    0.2817    0.1679   H         1 RES1   0.0000
   176 H85       8.7575   -0.8195    1.5426   H         1 RES1   0.0000
   177 H86       9.3914    1.2961    2.3729   H         1 RES1   0.0000
   178 H87       7.7573    1.0280    2.9591   H         1 RES1   0.0000
   179 H88       6.8855    2.4457    1.0750   H         1 RES1   0.0000
   180 H89       8.5358    2.7230    0.5421   H         1 RES1   0.0000
   181 H90      10.1110    4.0700    1.8758   H         1 RES1   0.0000
   182 H91       9.8317    3.2920    3.4383   H         1 RES1   0.0000
   183 H92       9.5350    5.0164    3.2495   H         1 RES1   0.0000
   184 H93       8.1815    5.3219    0.8401   H         1 RES1   0.0000
   185 H94       7.3464    5.8305    2.3041   H         1 RES1   0.0000
   186 H95       6.5223    4.8014    1.1190   H         1 RES1   0.0000
   187 H96       5.3719    2.6562    2.4603   H         1 RES1   0.0000
   188 H97       5.1333    4.3675    2.8874   H         1 RES1   0.0000
   189 H98       4.4694    3.6528    5.2012   H         1 RES1   0.0000
   190 H99       2.8891    4.0077    3.0497   H         1 RES1   0.0000
   191 H100      2.1786    3.1702    4.4432   H         1 RES1   0.0000
   192 H101      2.3389    3.7168    1.0882   H         1 RES1   0.0000
   193 H102      0.7161    3.3422    1.7156   H         1 RES1   0.0000
   194 H103      3.0855    2.7618   -0.7650   H         1 RES1   0.0000
   195 H104      1.8717    3.6072   -1.7530   H         1 RES1   0.0000
   196 H105      1.9002    0.1831   -4.6500   H         1 RES1   0.0000
   197 H106      3.1873   -0.3861   -3.5598   H         1 RES1   0.0000
   198 H107      3.7553    0.4547   -6.1228   H         1 RES1   0.0000
   199 H108      5.4528    1.1775   -3.6786   H         1 RES1   0.0000
   200 H109      6.0348    1.1017   -5.3461   H         1 RES1   0.0000
   201 H110      5.4724   -0.3593   -4.5493   H         1 RES1   0.0000
   202 H111      2.6161    2.5148   -5.9174   H         1 RES1   0.0000
   203 H112      4.8467    3.1197   -6.8422   H         1 RES1   0.0000
   204 H113      5.4005    3.5051   -5.1905   H         1 RES1   0.0000
   205 H114      4.7313    6.4565   -8.2643   H         1 RES1   0.0000
   206 H115      5.1922    7.9963   -7.5341   H         1 RES1   0.0000
   207 H116      3.5290    7.4181   -7.4053   H         1 RES1   0.0000
   208 H117      6.4661    5.1814   -7.0453   H         1 RES1   0.0000
   209 H118      6.6622    5.3440   -5.2918   H         1 RES1   0.0000
   210 H119      7.0265    6.6986   -6.3521   H         1 RES1   0.0000
   211 H120      3.7215    7.7443   -4.9722   H         1 RES1   0.0000
   212 H121      5.4333    8.1620   -5.0105   H         1 RES1   0.0000
   213 H122      5.9224    6.2852   -3.4390   H         1 RES1   0.0000
   214 H123      4.2033    5.8513   -3.4532   H         1 RES1   0.0000
   215 H124      3.6738    8.1263   -2.5332   H         1 RES1   0.0000
   216 H125      5.3854    8.5055   -2.5291   H         1 RES1   0.0000
   217 H126      4.7962    7.9138   -0.2955   H         1 RES1   0.0000
   218 H127      5.8250    6.6477   -0.9421   H         1 RES1   0.0000
   219 H128      3.9482    5.7941    0.4253   H         1 RES1   0.0000
   220 H129      3.9751    5.1322   -1.2123   H         1 RES1   0.0000
   221 H130      1.6749    5.6670   -0.5000   H         1 RES1   0.0000
   222 H131      2.1579    6.6198   -1.9015   H         1 RES1   0.0000
   223 H132      2.7189    8.5211   -0.2918   H         1 RES1   0.0000
   224 H133      1.9947    7.5633    0.9945   H         1 RES1   0.0000
   225 H134      0.6010    8.5300   -1.5543   H         1 RES1   0.0000
   226 H135      0.3818    9.1965    0.0610   H         1 RES1   0.0000
   227 H136     -0.1752    7.5591   -0.2973   H         1 RES1   0.0000
   228 H137      2.3599    3.6111   -3.8479   H         1 RES1   0.0000
   229 H138      3.9878    3.1706   -3.2929   H         1 RES1   0.0000
   230 H139      4.4513    0.5669    2.7878   H         1 RES1   0.0000
   231 H140      3.1028   -0.0380    3.7495   H         1 RES1   0.0000
   232 H141      3.6114    1.4482    5.5817   H         1 RES1   0.0000
   233 H142      6.3343    0.8261    4.3725   H         1 RES1   0.0000
   234 H143      5.4841   -0.0600    5.6338   H         1 RES1   0.0000
   235 H144      6.0916    1.5677    5.9456   H         1 RES1   0.0000
   236 C77       2.6387   -2.9351    4.1621   C.3       1 RES1   0.0000
   237 C78       3.0043   -2.2596    5.4812   C.3       1 RES1   0.0000
   238 C79       1.7951   -1.7323    6.2495   C.3       1 RES1   0.0000
   239 C80       0.9950   -0.6454    5.5308   C.3       1 RES1   0.0000
   240 C81      -0.2146   -0.2493    6.3772   C.3       1 RES1   0.0000
   241 C82      -1.3759    0.3607    5.5909   C.3       1 RES1   0.0000
   242 C83      -2.6767    0.1775    6.3787   C.3       1 RES1   0.0000
   243 C84      -3.1768   -1.2754    6.3627   C.3       1 RES1   0.0000
   244 C85      -4.3978   -1.5508    5.4769   C.3       1 RES1   0.0000
   245 C86      -5.6649   -0.9876    6.1155   C.3       1 RES1   0.0000
   246 C87      -4.2612   -1.0533    4.0453   C.3       1 RES1   0.0000
   247 S5       -4.6444   -3.4053    5.5039   S.3       1 RES1   0.0000
   248 C88      -3.8527   -4.0957    4.0134   C.3       1 RES1   0.0000
   249 C89      -2.3480   -4.3729    4.0690   C.3       1 RES1   0.0000
   250 C90      -1.3546   -3.1970    3.8754   C.3       1 RES1   0.0000
   251 N5       -0.4644   -3.6063    2.7901   N.am      1 RES1   0.0000
   252 C91      -0.0550   -2.7877    1.8397   C.2       1 RES1   0.0000
   253 O7       -0.3073   -1.5595    1.8337   O.2       1 RES1   0.0000
   254 C92       0.7777   -3.3839    0.6972   C.3       1 RES1   0.0000
   255 O8        1.3929   -2.3193   -0.0276   O.3       1 RES1   0.0000
   256 C93       1.6312   -2.6151   -1.3971   C.3       1 RES1   0.0000
   257 C94       0.4111   -2.1482   -2.1966   C.2       1 RES1   0.0000
   258 O9       -0.5155   -1.5812   -1.5744   O.2       1 RES1   0.0000
   259 N6        0.3442   -2.3576   -3.4941   N.am      1 RES1   0.0000
   260 C95       1.3655   -2.9201   -4.3556   C.3       1 RES1   0.0000
   261 C96       0.7658   -2.8423   -5.7692   C.3       1 RES1   0.0000
   262 C97       1.3198   -3.8928   -6.7193   C.3       1 RES1   0.0000
   263 C98      -0.7554   -2.9078   -5.5117   C.3       1 RES1   0.0000
   264 C99      -1.3503   -4.3139   -5.3819   C.3       1 RES1   0.0000
   265 S6       -0.3531   -5.5045   -4.4168   S.3       1 RES1   0.0000
   266 C100     -1.3924   -6.1494   -3.0108   C.3       1 RES1   0.0000
   267 C101     -1.9104   -4.9866   -2.1772   C.3       1 RES1   0.0000
   268 C102     -2.5460   -6.9769   -3.5591   C.3       1 RES1   0.0000
   269 C103     -0.3221   -7.0086   -2.3008   C.3       1 RES1   0.0000
   270 C104     -0.4340   -7.2691   -0.7981   C.3       1 RES1   0.0000
   271 C105     -1.6114   -8.1428   -0.3744   C.3       1 RES1   0.0000
   272 C106     -1.4641   -8.6153    1.0727   C.3       1 RES1   0.0000
   273 C107     -2.6953   -9.3550    1.5968   C.3       1 RES1   0.0000
   274 C108     -3.9637   -8.5063    1.6288   C.3       1 RES1   0.0000
   275 C109     -5.1251   -9.2132    2.3214   C.3       1 RES1   0.0000
   276 C110     -6.4093   -8.3927    2.2390   C.3       1 RES1   0.0000
   277 C111     -0.8830   -2.0794   -4.2315   C.3       1 RES1   0.0000
   278 C112     -0.4567   -5.0578    2.7830   C.3       1 RES1   0.0000
   279 C113     -1.9502   -5.3596    2.9464   C.3       1 RES1   0.0000
   280 C114     -2.6747   -5.1105    1.6209   C.3       1 RES1   0.0000
   281 H145      3.5152   -3.4098    3.7274   H         1 RES1   0.0000
   282 H146      2.2445   -2.2252    3.4354   H         1 RES1   0.0000
   283 H147      1.8868   -3.7009    4.3330   H         1 RES1   0.0000
   284 H148      3.7088   -1.4482    5.2969   H         1 RES1   0.0000
   285 H149      3.5150   -2.9895    6.1112   H         1 RES1   0.0000
   286 H150      2.1294   -1.3430    7.2128   H         1 RES1   0.0000
   287 H151      1.1314   -2.5752    6.4607   H         1 RES1   0.0000
   288 H152      0.6539   -1.0110    4.5573   H         1 RES1   0.0000
   289 H153      1.6160    0.2336    5.3495   H         1 RES1   0.0000
   290 H154      0.0914    0.4439    7.1629   H         1 RES1   0.0000
   291 H155     -0.5822   -1.1475    6.8757   H         1 RES1   0.0000
   292 H156     -1.4565   -0.1222    4.6130   H         1 RES1   0.0000
   293 H157     -1.2028    1.4259    5.4117   H         1 RES1   0.0000
   294 H158     -3.4394    0.8485    5.9931   H         1 RES1   0.0000
   295 H159     -2.4876    0.4755    7.4098   H         1 RES1   0.0000
   296 H160     -3.4464   -1.5768    7.3757   H         1 RES1   0.0000
   297 H161     -2.3678   -1.9327    6.0454   H         1 RES1   0.0000
   298 H162     -5.5664    0.0851    6.2731   H         1 RES1   0.0000
   299 H163     -5.8527   -1.4576    7.0796   H         1 RES1   0.0000
   300 H164     -6.5295   -1.1732    5.4819   H         1 RES1   0.0000
   301 H165     -3.9388   -0.0179    4.0320   H         1 RES1   0.0000
   302 H166     -5.2196   -1.1330    3.5339   H         1 RES1   0.0000
   303 H167     -3.5250   -1.6106    3.4743   H         1 RES1   0.0000
   304 H168     -4.1400   -3.5114    3.1437   H         1 RES1   0.0000
   305 H169     -4.3537   -5.0658    3.9623   H         1 RES1   0.0000
   306 H170     -2.1468   -4.8366    5.0380   H         1 RES1   0.0000
   307 H171     -0.7463   -3.0429    4.7720   H         1 RES1   0.0000
   308 H172     -1.8171   -2.2500    3.6134   H         1 RES1   0.0000
   309 H173      0.1011   -3.9545    0.0453   H         1 RES1   0.0000
   310 H174      1.5586   -4.0515    1.0875   H         1 RES1   0.0000
   311 H175      1.8294   -3.6809   -1.5592   H         1 RES1   0.0000
   312 H176      2.5198   -2.0496   -1.6936   H         1 RES1   0.0000
   313 H177      1.5461   -3.9642   -4.0952   H         1 RES1   0.0000
   314 H178      2.3006   -2.3672   -4.2679   H         1 RES1   0.0000
   315 H179      0.9806   -1.8555   -6.1945   H         1 RES1   0.0000
   316 H180      1.1738   -4.8943   -6.3286   H         1 RES1   0.0000
   317 H181      2.3858   -3.7349   -6.8619   H         1 RES1   0.0000
   318 H182      0.8272   -3.8229   -7.6849   H         1 RES1   0.0000
   319 H183     -1.2877   -2.4152   -6.3310   H         1 RES1   0.0000
   320 H184     -1.4730   -4.7493   -6.3728   H         1 RES1   0.0000
   321 H185     -2.3224   -4.2497   -4.8980   H         1 RES1   0.0000
   322 H186     -2.6221   -4.3853   -2.7424   H         1 RES1   0.0000
   323 H187     -1.0929   -4.3425   -1.8540   H         1 RES1   0.0000
   324 H188     -2.4401   -5.3573   -1.3033   H         1 RES1   0.0000
   325 H189     -3.2405   -6.3564   -4.1259   H         1 RES1   0.0000
   326 H190     -3.0986   -7.4381   -2.7423   H         1 RES1   0.0000
   327 H191     -2.1769   -7.7661   -4.2114   H         1 RES1   0.0000
   328 H192      0.6436   -6.5143   -2.4571   H         1 RES1   0.0000
   329 H193     -0.2679   -7.9684   -2.8159   H         1 RES1   0.0000
   330 H194     -0.4595   -6.3163   -0.2595   H         1 RES1   0.0000
   331 H195      0.4912   -7.7745   -0.5077   H         1 RES1   0.0000
   332 H196     -1.6680   -9.0126   -1.0288   H         1 RES1   0.0000
   333 H197     -2.5407   -7.5835   -0.4856   H         1 RES1   0.0000
   334 H198     -1.2533   -7.7570    1.7155   H         1 RES1   0.0000
   335 H199     -0.5993   -9.2797    1.1349   H         1 RES1   0.0000
   336 H200     -2.4786   -9.7013    2.6079   H         1 RES1   0.0000
   337 H201     -2.8682  -10.2364    0.9801   H         1 RES1   0.0000
   338 H202     -4.2719   -8.2588    0.6122   H         1 RES1   0.0000
   339 H203     -3.7660   -7.5726    2.1568   H         1 RES1   0.0000
   340 H204     -4.8746   -9.3871    3.3691   H         1 RES1   0.0000
   341 H205     -5.2901  -10.1852    1.8559   H         1 RES1   0.0000
   342 H206     -6.2850   -7.4248    2.7262   H         1 RES1   0.0000
   343 H207     -7.2280   -8.9158    2.7278   H         1 RES1   0.0000
   344 H208     -6.6889   -8.2208    1.1998   H         1 RES1   0.0000
   345 H209     -1.7489   -2.3424   -3.6204   H         1 RES1   0.0000
   346 H210     -0.9364   -1.0103   -4.4698   H         1 RES1   0.0000
   347 H211      0.1011   -5.4163    3.6537   H         1 RES1   0.0000
   348 H212     -0.0143   -5.4822    1.8873   H         1 RES1   0.0000
   349 H213     -2.1229   -6.3887    3.2623   H         1 RES1   0.0000
   350 H214     -2.5443   -4.0836    1.2811   H         1 RES1   0.0000
   351 H215     -3.7374   -5.3154    1.7056   H         1 RES1   0.0000
   352 H216     -2.2743   -5.7812    0.8668   H         1 RES1   0.0000
@<TRIPOS>BOND
     1     1    19    1
     2     1    21    1
     3     1    24    1
     4     1   136    1
     5     1   138    1
     6     1   141    1
     7     1   253    1
     8     1   255    1
     9     1   258    1
    10     2     3    1
    11     2    47    1
    12     2    48    1
    13     2    49    1
    14     3     4    1
    15     3    50    1
    16     3    51    1
    17     4     5    1
    18     4    52    1
    19     4    53    1
    20     5     6    1
    21     5    54    1
    22     5    55    1
    23     6     7    1
    24     6    56    1
    25     6    57    1
    26     7     8    1
    27     7    58    1
    28     7    59    1
    29     8     9    1
    30     8    60    1
    31     8    61    1
    32     9    10    1
    33     9    62    1
    34     9    63    1
    35    10    11    1
    36    10    12    1
    37    10    13    1
    38    11    64    1
    39    11    65    1
    40    11    66    1
    41    12    67    1
    42    12    68    1
    43    12    69    1
    44    13    14    1
    45    14    15    1
    46    14    70    1
    47    14    71    1
    48    15    16    1
    49    15    45    1
    50    15    72    1
    51    16    17    1
    52    16    73    1
    53    16    74    1
    54    17    18    1
    55    17    44    1
    56    18    19    2
    57    18    20    1
    58    20    21    1
    59    20    75    1
    60    20    76    1
    61    21    22    1
    62    22    23    1
    63    22    77    1
    64    22    78    1
    65    23    24    2
    66    23    25    1
    67    25    26    1
    68    25    43    1
    69    26    27    1
    70    26    79    1
    71    26    80    1
    72    27    28    1
    73    27    29    1
    74    27    81    1
    75    28    82    1
    76    28    83    1
    77    28    84    1
    78    29    30    1
    79    29    43    1
    80    29    85    1
    81    30    31    1
    82    30    86    1
    83    30    87    1
    84    31    32    1
    85    32    33    1
    86    32    34    1
    87    32    35    1
    88    33    88    1
    89    33    89    1
    90    33    90    1
    91    34    91    1
    92    34    92    1
    93    34    93    1
    94    35    36    1
    95    35    94    1
    96    35    95    1
    97    36    37    1
    98    36    96    1
    99    36    97    1
   100    37    38    1
   101    37    98    1
   102    37    99    1
   103    38    39    1
   104    38   100    1
   105    38   101    1
   106    39    40    1
   107    39   102    1
   108    39   103    1
   109    40    41    1
   110    40   104    1
   111    40   105    1
   112    41    42    1
   113    41   106    1
   114    41   107    1
   115    42   108    1
   116    42   109    1
   117    42   110    1
   118    43   111    1
   119    43   112    1
   120    44    45    1
   121    44   113    1
   122    44   114    1
   123    45    46    1
   124    45   115    1
   125    46   116    1
   126    46   117    1
   127    46   118    1
   128   119   120    1
   129   119   164    1
   130   119   165    1
   131   119   166    1
   132   120   121    1
   133   120   167    1
   134   120   168    1
   135   121   122    1
   136   121   169    1
   137   121   170    1
   138   122   123    1
   139   122   171    1
   140   122   172    1
   141   123   124    1
   142   123   173    1
   143   123   174    1
   144   124   125    1
   145   124   175    1
   146   124   176    1
   147   125   126    1
   148   125   177    1
   149   125   178    1
   150   126   127    1
   151   126   179    1
   152   126   180    1
   153   127   128    1
   154   127   129    1
   155   127   130    1
   156   128   181    1
   157   128   182    1
   158   128   183    1
   159   129   184    1
   160   129   185    1
   161   129   186    1
   162   130   131    1
   163   131   132    1
   164   131   187    1
   165   131   188    1
   166   132   133    1
   167   132   162    1
   168   132   189    1
   169   133   134    1
   170   133   190    1
   171   133   191    1
   172   134   135    1
   173   134   161    1
   174   135   136    2
   175   135   137    1
   176   137   138    1
   177   137   192    1
   178   137   193    1
   179   138   139    1
   180   139   140    1
   181   139   194    1
   182   139   195    1
   183   140   141    2
   184   140   142    1
   185   142   143    1
   186   142   160    1
   187   143   144    1
   188   143   196    1
   189   143   197    1
   190   144   145    1
   191   144   146    1
   192   144   198    1
   193   145   199    1
   194   145   200    1
   195   145   201    1
   196   146   147    1
   197   146   160    1
   198   146   202    1
   199   147   148    1
   200   147   203    1
   201   147   204    1
   202   148   149    1
   203   149   150    1
   204   149   151    1
   205   149   152    1
   206   150   205    1
   207   150   206    1
   208   150   207    1
   209   151   208    1
   210   151   209    1
   211   151   210    1
   212   152   153    1
   213   152   211    1
   214   152   212    1
   215   153   154    1
   216   153   213    1
   217   153   214    1
   218   154   155    1
   219   154   215    1
   220   154   216    1
   221   155   156    1
   222   155   217    1
   223   155   218    1
   224   156   157    1
   225   156   219    1
   226   156   220    1
   227   157   158    1
   228   157   221    1
   229   157   222    1
   230   158   159    1
   231   158   223    1
   232   158   224    1
   233   159   225    1
   234   159   226    1
   235   159   227    1
   236   160   228    1
   237   160   229    1
   238   161   162    1
   239   161   230    1
   240   161   231    1
   241   162   163    1
   242   162   232    1
   243   163   233    1
   244   163   234    1
   245   163   235    1
   246   236   237    1
   247   236   281    1
   248   236   282    1
   249   236   283    1
   250   237   238    1
   251   237   284    1
   252   237   285    1
   253   238   239    1
   254   238   286    1
   255   238   287    1
   256   239   240    1
   257   239   288    1
   258   239   289    1
   259   240   241    1
   260   240   290    1
   261   240   291    1
   262   241   242    1
   263   241   292    1
   264   241   293    1
   265   242   243    1
   266   242   294    1
   267   242   295    1
   268   243   244    1
   269   243   296    1
   270   243   297    1
   271   244   245    1
   272   244   246    1
   273   244   247    1
   274   245   298    1
   275   245   299    1
   276   245   300    1
   277   246   301    1
   278   246   302    1
   279   246   303    1
   280   247   248    1
   281   248   249    1
   282   248   304    1
   283   248   305    1
   284   249   250    1
   285   249   279    1
   286   249   306    1
   287   250   251    1
   288   250   307    1
   289   250   308    1
   290   251   252    1
   291   251   278    1
   292   252   253    2
   293   252   254    1
   294   254   255    1
   295   254   309    1
   296   254   310    1
   297   255   256    1
   298   256   257    1
   299   256   311    1
   300   256   312    1
   301   257   258    2
   302   257   259    1
   303   259   260    1
   304   259   277    1
   305   260   261    1
   306   260   313    1
   307   260   314    1
   308   261   262    1
   309   261   263    1
   310   261   315    1
   311   262   316    1
   312   262   317    1
   313   262   318    1
   314   263   264    1
   315   263   277    1
   316   263   319    1
   317   264   265    1
   318   264   320    1
   319   264   321    1
   320   265   266    1
   321   266   267    1
   322   266   268    1
   323   266   269    1
   324   267   322    1
   325   267   323    1
   326   267   324    1
   327   268   325    1
   328   268   326    1
   329   268   327    1
   330   269   270    1
   331   269   328    1
   332   269   329    1
   333   270   271    1
   334   270   330    1
   335   270   331    1
   336   271   272    1
   337   271   332    1
   338   271   333    1
   339   272   273    1
   340   272   334    1
   341   272   335    1
   342   273   274    1
   343   273   336    1
   344   273   337    1
   345   274   275    1
   346   274   338    1
   347   274   339    1
   348   275   276    1
   349   275   340    1
   350   275   341    1
   351   276   342    1
   352   276   343    1
   353   276   344    1
   354   277   345    1
   355   277   346    1
   356   278   279    1
   357   278   347    1
   358   278   348    1
   359   279   280    1
   360   279   349    1
   361   280   350    1
   362   280   351    1
   363   280   352    1
@<TRIPOS>SUBSTRUCTURE
     1 RES1      352 GROUP             0 ****  ****    0  
