@<TRIPOS>MOLECULE
am_c3_9H2O_c0_0_nunpairedes_0_charge_3 Charge: 3 Unpaired_Electrons: 6 XTB_Unpaired_Electrons: 0 XTB_Charge: 3
   250   255     1     0     0
SMALL
NoCharges
****
Generated from Architector

@<TRIPOS>ATOM
     1 Eu1      -0.1915    0.1512   -0.1875   Eu        1 RES1   0.0000
     2 C1       -2.9277   -0.0500    6.9537   C.3       1 RES1   0.0000
     3 C2       -3.3070    1.4255    6.9749   C.3       1 RES1   0.0000
     4 C3       -4.8205    1.6421    6.9596   C.3       1 RES1   0.0000
     5 C4       -5.5133    1.3637    5.6236   C.3       1 RES1   0.0000
     6 C5       -5.3009    2.4546    4.5699   C.3       1 RES1   0.0000
     7 C6       -6.3446    2.3943    3.4422   C.3       1 RES1   0.0000
     8 C7       -5.8199    1.8673    2.1086   C.3       1 RES1   0.0000
     9 C8       -5.1789    0.4900    2.2837   C.3       1 RES1   0.0000
    10 N1       -4.4294    0.0100    1.1382   N.am      1 RES1   0.0000
    11 C9       -5.0075   -1.0055    0.2627   C.3       1 RES1   0.0000
    12 C10      -5.1488   -0.5435   -1.1896   C.3       1 RES1   0.0000
    13 C11      -6.0575    0.6658   -1.3439   C.3       1 RES1   0.0000
    14 C12      -3.1748    0.3660    0.9100   C.2       1 RES1   0.0000
    15 O1       -2.4744   -0.1886    0.0472   O.2       1 RES1   0.0000
    16 C13      -2.5145    1.5175    1.6887   C.3       1 RES1   0.0000
    17 O2       -1.5031    2.0844    0.8621   O.3       1 RES1   0.0000
    18 C14      -1.9762    3.0078   -0.1272   C.3       1 RES1   0.0000
    19 C15      -1.2532    2.7279   -1.4548   C.2       1 RES1   0.0000
    20 O3       -0.9303    1.5392   -1.6704   O.2       1 RES1   0.0000
    21 N2       -1.0580    3.6729   -2.3603   N.am      1 RES1   0.0000
    22 C16      -0.5746    3.2579   -3.6790   C.3       1 RES1   0.0000
    23 C17      -1.6392    3.4782   -4.7539   C.3       1 RES1   0.0000
    24 C18      -1.1519    3.0265   -6.1223   C.3       1 RES1   0.0000
    25 C19      -1.1824    5.1142   -2.1659   C.3       1 RES1   0.0000
    26 C20       0.1813    5.7606   -1.8672   C.3       1 RES1   0.0000
    27 C21       0.9501    6.2846   -3.0881   C.3       1 RES1   0.0000
    28 C22       2.4674    6.1773   -2.9067   C.3       1 RES1   0.0000
    29 C23       2.9837    4.7361   -2.9350   C.3       1 RES1   0.0000
    30 C24       4.4626    4.6665   -2.5575   C.3       1 RES1   0.0000
    31 C25       5.0597    3.2632   -2.6643   C.3       1 RES1   0.0000
    32 C26       4.5137    2.2977   -1.6156   C.3       1 RES1   0.0000
    33 H1       -1.8518   -0.1758    7.0599   H         1 RES1   0.0000
    34 H2       -3.2380   -0.5222    6.0255   H         1 RES1   0.0000
    35 H3       -3.4125   -0.5725    7.7738   H         1 RES1   0.0000
    36 H4       -2.8452    1.9435    6.1323   H         1 RES1   0.0000
    37 H5       -2.9117    1.8702    7.8892   H         1 RES1   0.0000
    38 H6       -5.0324    2.6725    7.2490   H         1 RES1   0.0000
    39 H7       -5.2640    0.9927    7.7171   H         1 RES1   0.0000
    40 H8       -6.5829    1.2939    5.8218   H         1 RES1   0.0000
    41 H9       -5.1956    0.3933    5.2381   H         1 RES1   0.0000
    42 H10      -4.2873    2.3946    4.1638   H         1 RES1   0.0000
    43 H11      -5.3801    3.4221    5.0636   H         1 RES1   0.0000
    44 H12      -6.7618    3.3857    3.2678   H         1 RES1   0.0000
    45 H13      -7.1696    1.7592    3.7581   H         1 RES1   0.0000
    46 H14      -5.1100    2.5807    1.6878   H         1 RES1   0.0000
    47 H15      -6.6432    1.8055    1.4015   H         1 RES1   0.0000
    48 H16      -5.9609   -0.2430    2.4910   H         1 RES1   0.0000
    49 H17      -4.4868    0.5251    3.1263   H         1 RES1   0.0000
    50 H18      -5.9896   -1.2584    0.6608   H         1 RES1   0.0000
    51 H19      -4.3501   -1.8812    0.2885   H         1 RES1   0.0000
    52 H20      -5.5681   -1.3765   -1.7504   H         1 RES1   0.0000
    53 H21      -4.1649   -0.3279   -1.6076   H         1 RES1   0.0000
    54 H22      -7.0245    0.4782   -0.8887   H         1 RES1   0.0000
    55 H23      -6.2267    0.8909   -2.3927   H         1 RES1   0.0000
    56 H24      -5.6234    1.5467   -0.8794   H         1 RES1   0.0000
    57 H25      -1.9913    1.0915    2.5553   H         1 RES1   0.0000
    58 H26      -3.2124    2.2902    2.0220   H         1 RES1   0.0000
    59 H27      -1.8058    4.0232    0.2394   H         1 RES1   0.0000
    60 H28      -3.0460    2.8778   -0.3483   H         1 RES1   0.0000
    61 H29      -0.3109    2.1997   -3.6254   H         1 RES1   0.0000
    62 H30       0.3277    3.8188   -3.9096   H         1 RES1   0.0000
    63 H31      -1.9015    4.5340   -4.8233   H         1 RES1   0.0000
    64 H32      -2.5399    2.9242   -4.4863   H         1 RES1   0.0000
    65 H33      -0.2682    3.5835   -6.4223   H         1 RES1   0.0000
    66 H34      -1.9279    3.1993   -6.8621   H         1 RES1   0.0000
    67 H35      -0.9145    1.9664   -6.1231   H         1 RES1   0.0000
    68 H36      -1.8954    5.3226   -1.3678   H         1 RES1   0.0000
    69 H37      -1.5981    5.5522   -3.0736   H         1 RES1   0.0000
    70 H38       0.7920    5.0190   -1.3581   H         1 RES1   0.0000
    71 H39       0.0236    6.5869   -1.1775   H         1 RES1   0.0000
    72 H40       0.6914    7.3284   -3.2599   H         1 RES1   0.0000
    73 H41       0.6742    5.7462   -3.9926   H         1 RES1   0.0000
    74 H42       2.7549    6.6515   -1.9653   H         1 RES1   0.0000
    75 H43       2.9544    6.7315   -3.7107   H         1 RES1   0.0000
    76 H44       2.8571    4.3230   -3.9386   H         1 RES1   0.0000
    77 H45       2.4080    4.1110   -2.2473   H         1 RES1   0.0000
    78 H46       4.5933    5.0330   -1.5361   H         1 RES1   0.0000
    79 H47       5.0207    5.3341   -3.2152   H         1 RES1   0.0000
    80 H48       6.1400    3.3416   -2.5310   H         1 RES1   0.0000
    81 H49       4.8813    2.8651   -3.6657   H         1 RES1   0.0000
    82 H50       4.6806    2.7004   -0.6171   H         1 RES1   0.0000
    83 H51       5.0281    1.3404   -1.6858   H         1 RES1   0.0000
    84 H52       3.4453    2.1251   -1.7428   H         1 RES1   0.0000
    85 C27      -1.2411    9.2561    4.3574   C.3       1 RES1   0.0000
    86 C28       0.2618    9.4195    4.5534   C.3       1 RES1   0.0000
    87 C29       1.0205    8.1519    4.1699   C.3       1 RES1   0.0000
    88 C30       2.5258    8.2541    4.4197   C.3       1 RES1   0.0000
    89 C31       3.2566    6.9152    4.2423   C.3       1 RES1   0.0000
    90 C32       3.3904    6.5185    2.7706   C.3       1 RES1   0.0000
    91 C33       3.8684    5.0808    2.5265   C.3       1 RES1   0.0000
    92 C34       2.8962    3.9622    2.9518   C.3       1 RES1   0.0000
    93 N3        2.0077    3.5128    1.8867   N.am      1 RES1   0.0000
    94 C35       1.1663    4.5378    1.2816   C.3       1 RES1   0.0000
    95 C36       0.1229    5.0800    2.2594   C.3       1 RES1   0.0000
    96 C37      -0.7102    6.1964    1.6458   C.3       1 RES1   0.0000
    97 C38       1.8405    2.2616    1.4746   C.2       1 RES1   0.0000
    98 O4        1.0686    1.9639    0.5395   O.2       1 RES1   0.0000
    99 C39       2.5707    1.1025    2.1533   C.3       1 RES1   0.0000
   100 O5        2.2669   -0.1065    1.4640   O.3       1 RES1   0.0000
   101 C40       3.3373   -0.6746    0.7160   C.3       1 RES1   0.0000
   102 C41       2.9084   -0.8498   -0.7505   C.2       1 RES1   0.0000
   103 O6        1.9609   -0.1464   -1.1381   O.2       1 RES1   0.0000
   104 N4        3.5866   -1.6632   -1.5616   N.am      1 RES1   0.0000
   105 C42       3.6171   -1.4264   -3.0186   C.3       1 RES1   0.0000
   106 C43       2.5384   -0.5633   -3.6701   C.3       1 RES1   0.0000
   107 C44       2.7359   -0.6122   -5.1804   C.3       1 RES1   0.0000
   108 C45       4.5081   -2.7389   -1.1610   C.3       1 RES1   0.0000
   109 C46       3.9683   -4.1643   -1.4448   C.3       1 RES1   0.0000
   110 C47       3.1512   -4.8044   -0.3125   C.3       1 RES1   0.0000
   111 C48       2.1604   -5.8830   -0.7854   C.3       1 RES1   0.0000
   112 C49       1.2929   -6.4530    0.3568   C.3       1 RES1   0.0000
   113 C50      -0.1099   -6.9253   -0.0650   C.3       1 RES1   0.0000
   114 C51      -1.1608   -5.8231   -0.2270   C.3       1 RES1   0.0000
   115 C52      -2.5816   -6.3701   -0.2415   C.3       1 RES1   0.0000
   116 H53      -1.7619   10.1594    4.6606   H         1 RES1   0.0000
   117 H54      -1.6205    8.4313    4.9589   H         1 RES1   0.0000
   118 H55      -1.4802    9.0645    3.3123   H         1 RES1   0.0000
   119 H56       0.4624    9.6555    5.5984   H         1 RES1   0.0000
   120 H57       0.6186   10.2545    3.9498   H         1 RES1   0.0000
   121 H58       0.8368    7.9498    3.1145   H         1 RES1   0.0000
   122 H59       0.6168    7.3179    4.7522   H         1 RES1   0.0000
   123 H60       2.6828    8.6062    5.4410   H         1 RES1   0.0000
   124 H61       2.9575    9.0012    3.7505   H         1 RES1   0.0000
   125 H62       2.7100    6.1519    4.8024   H         1 RES1   0.0000
   126 H63       4.2491    6.9947    4.6877   H         1 RES1   0.0000
   127 H64       4.1158    7.1867    2.3054   H         1 RES1   0.0000
   128 H65       2.4377    6.6992    2.2810   H         1 RES1   0.0000
   129 H66       4.7887    4.9351    3.0915   H         1 RES1   0.0000
   130 H67       4.1210    4.9644    1.4699   H         1 RES1   0.0000
   131 H68       2.2815    4.3225    3.7808   H         1 RES1   0.0000
   132 H69       3.4628    3.1073    3.3164   H         1 RES1   0.0000
   133 H70       0.6627    4.0745    0.4351   H         1 RES1   0.0000
   134 H71       1.8064    5.3388    0.9114   H         1 RES1   0.0000
   135 H72       0.6199    5.4778    3.1411   H         1 RES1   0.0000
   136 H73      -0.5298    4.2657    2.5756   H         1 RES1   0.0000
   137 H74      -0.0720    6.9752    1.2372   H         1 RES1   0.0000
   138 H75      -1.3454    6.6451    2.4048   H         1 RES1   0.0000
   139 H76      -1.3485    5.8311    0.8455   H         1 RES1   0.0000
   140 H77       2.1983    0.9932    3.1786   H         1 RES1   0.0000
   141 H78       3.6488    1.2713    2.1778   H         1 RES1   0.0000
   142 H79       3.6341   -1.5999    1.2197   H         1 RES1   0.0000
   143 H80       4.2029    0.0046    0.6899   H         1 RES1   0.0000
   144 H81       3.6245   -2.4007   -3.5099   H         1 RES1   0.0000
   145 H82       4.5835   -0.9579   -3.2295   H         1 RES1   0.0000
   146 H83       2.6102    0.4704   -3.3329   H         1 RES1   0.0000
   147 H84       1.5388   -0.9229   -3.4226   H         1 RES1   0.0000
   148 H85       3.7045   -0.2012   -5.4498   H         1 RES1   0.0000
   149 H86       1.9662   -0.0378   -5.6859   H         1 RES1   0.0000
   150 H87       2.6840   -1.6340   -5.5461   H         1 RES1   0.0000
   151 H88       4.7644   -2.6437   -0.1082   H         1 RES1   0.0000
   152 H89       5.4275   -2.6004   -1.7379   H         1 RES1   0.0000
   153 H90       4.8315   -4.7975   -1.6478   H         1 RES1   0.0000
   154 H91       3.3671   -4.1482   -2.3529   H         1 RES1   0.0000
   155 H92       2.6013   -4.0210    0.2014   H         1 RES1   0.0000
   156 H93       3.8330   -5.2483    0.4120   H         1 RES1   0.0000
   157 H94       2.7104   -6.7073   -1.2384   H         1 RES1   0.0000
   158 H95       1.5131   -5.4755   -1.5653   H         1 RES1   0.0000
   159 H96       1.1914   -5.7132    1.1569   H         1 RES1   0.0000
   160 H97       1.8089   -7.3068    0.8005   H         1 RES1   0.0000
   161 H98      -0.4750   -7.6132    0.7003   H         1 RES1   0.0000
   162 H99      -0.0308   -7.4900   -0.9950   H         1 RES1   0.0000
   163 H100     -1.0045   -5.2821   -1.1624   H         1 RES1   0.0000
   164 H101     -1.0864   -5.1131    0.6034   H         1 RES1   0.0000
   165 H102     -2.7151   -7.0682   -1.0619   H         1 RES1   0.0000
   166 H103     -3.2997   -5.5607   -0.3593   H         1 RES1   0.0000
   167 H104     -2.7986   -6.8833    0.6906   H         1 RES1   0.0000
   168 C53       5.8592   -2.9943   -5.6321   C.3       1 RES1   0.0000
   169 C54       5.8554   -4.2097   -4.7139   C.3       1 RES1   0.0000
   170 C55       5.4110   -5.5037   -5.4006   C.3       1 RES1   0.0000
   171 C56       3.9938   -5.4922   -5.9850   C.3       1 RES1   0.0000
   172 C57       2.9084   -5.2643   -4.9325   C.3       1 RES1   0.0000
   173 C58       1.4935   -5.4274   -5.4896   C.3       1 RES1   0.0000
   174 C59       0.3784   -5.0019   -4.5218   C.3       1 RES1   0.0000
   175 C60       0.5436   -3.5227   -4.1766   C.3       1 RES1   0.0000
   176 N5       -0.5240   -2.8531   -3.4444   N.am      1 RES1   0.0000
   177 C61      -1.6793   -2.4216   -4.2400   C.3       1 RES1   0.0000
   178 C62      -2.9953   -2.9266   -3.6508   C.3       1 RES1   0.0000
   179 C63      -3.1214   -4.4428   -3.7012   C.3       1 RES1   0.0000
   180 C64      -0.3563   -2.2865   -2.2453   C.2       1 RES1   0.0000
   181 O7       -1.0266   -1.3180   -1.8553   O.2       1 RES1   0.0000
   182 C65       0.6214   -2.9097   -1.2353   C.3       1 RES1   0.0000
   183 O8        0.6263   -2.0985   -0.0499   O.3       1 RES1   0.0000
   184 C66       0.7134   -2.7791    1.1975   C.3       1 RES1   0.0000
   185 C67      -0.1539   -2.0390    2.2168   C.2       1 RES1   0.0000
   186 O9       -0.6839   -0.9578    1.8879   O.2       1 RES1   0.0000
   187 N6       -0.3541   -2.6436    3.3827   N.am      1 RES1   0.0000
   188 C68      -1.5423   -2.3156    4.1658   C.3       1 RES1   0.0000
   189 C69      -2.7676   -2.9441    3.4926   C.3       1 RES1   0.0000
   190 C70      -4.0334   -2.7651    4.3165   C.3       1 RES1   0.0000
   191 C71       0.6203   -3.5812    3.9295   C.3       1 RES1   0.0000
   192 C72       1.8328   -2.8159    4.4929   C.3       1 RES1   0.0000
   193 C73       1.6661   -2.3213    5.9395   C.3       1 RES1   0.0000
   194 C74       2.1578   -0.8840    6.1432   C.3       1 RES1   0.0000
   195 C75       1.0919    0.1367    5.7487   C.3       1 RES1   0.0000
   196 C76       1.5572    1.5832    5.9182   C.3       1 RES1   0.0000
   197 C77       0.4009    2.5834    5.8593   C.3       1 RES1   0.0000
   198 C78      -0.4743    2.4205    4.6216   C.3       1 RES1   0.0000
   199 H105      6.2491   -2.1227   -5.1091   H         1 RES1   0.0000
   200 H106      4.8590   -2.7613   -5.9880   H         1 RES1   0.0000
   201 H107      6.4924   -3.1761   -6.4948   H         1 RES1   0.0000
   202 H108      5.2168   -4.0148   -3.8512   H         1 RES1   0.0000
   203 H109      6.8677   -4.3622   -4.3358   H         1 RES1   0.0000
   204 H110      5.4911   -6.3218   -4.6797   H         1 RES1   0.0000
   205 H111      6.1078   -5.7155   -6.2127   H         1 RES1   0.0000
   206 H112      3.8205   -6.4509   -6.4754   H         1 RES1   0.0000
   207 H113      3.9257   -4.7193   -6.7524   H         1 RES1   0.0000
   208 H114      3.0331   -4.2499   -4.5538   H         1 RES1   0.0000
   209 H115      3.0587   -5.9620   -4.1068   H         1 RES1   0.0000
   210 H116      1.3357   -6.4705   -5.7600   H         1 RES1   0.0000
   211 H117      1.3991   -4.8380   -6.4041   H         1 RES1   0.0000
   212 H118      0.3920   -5.6141   -3.6190   H         1 RES1   0.0000
   213 H119     -0.5788   -5.1649   -5.0133   H         1 RES1   0.0000
   214 H120      0.6496   -2.9776   -5.1209   H         1 RES1   0.0000
   215 H121      1.4661   -3.3988   -3.6159   H         1 RES1   0.0000
   216 H122     -1.5558   -2.8220   -5.2457   H         1 RES1   0.0000
   217 H123     -1.6954   -1.3279   -4.2853   H         1 RES1   0.0000
   218 H124     -3.8057   -2.4860   -4.2292   H         1 RES1   0.0000
   219 H125     -3.0847   -2.5688   -2.6251   H         1 RES1   0.0000
   220 H126     -3.1021   -4.7966   -4.7281   H         1 RES1   0.0000
   221 H127     -4.0635   -4.7635   -3.2672   H         1 RES1   0.0000
   222 H128     -2.3174   -4.9239   -3.1516   H         1 RES1   0.0000
   223 H129      1.6322   -2.9708   -1.6464   H         1 RES1   0.0000
   224 H130      0.2565   -3.9120   -0.9996   H         1 RES1   0.0000
   225 H131      1.7495   -2.8204    1.5580   H         1 RES1   0.0000
   226 H132      0.3167   -3.7986    1.1085   H         1 RES1   0.0000
   227 H133     -1.6605   -1.2327    4.2382   H         1 RES1   0.0000
   228 H134     -1.4205   -2.7188    5.1701   H         1 RES1   0.0000
   229 H135     -2.5872   -4.0112    3.3573   H         1 RES1   0.0000
   230 H136     -2.8897   -2.4970    2.5024   H         1 RES1   0.0000
   231 H137     -3.9268   -3.2317    5.2919   H         1 RES1   0.0000
   232 H138     -4.8789   -3.2322    3.8204   H         1 RES1   0.0000
   233 H139     -4.2566   -1.7117    4.4593   H         1 RES1   0.0000
   234 H140      0.9461   -4.2859    3.1606   H         1 RES1   0.0000
   235 H141      0.1330   -4.1566    4.7155   H         1 RES1   0.0000
   236 H142      2.0143   -1.9556    3.8447   H         1 RES1   0.0000
   237 H143      2.7042   -3.4662    4.4322   H         1 RES1   0.0000
   238 H144      2.2078   -2.9812    6.6138   H         1 RES1   0.0000
   239 H145      0.6190   -2.3608    6.2365   H         1 RES1   0.0000
   240 H146      3.0688   -0.7154    5.5656   H         1 RES1   0.0000
   241 H147      2.4095   -0.7343    7.1938   H         1 RES1   0.0000
   242 H148      0.2195   -0.0130    6.3872   H         1 RES1   0.0000
   243 H149      0.7805   -0.0419    4.7138   H         1 RES1   0.0000
   244 H150      2.3012    1.8331    5.1547   H         1 RES1   0.0000
   245 H151      2.0488    1.6830    6.8868   H         1 RES1   0.0000
   246 H152      0.8104    3.5945    5.8891   H         1 RES1   0.0000
   247 H153     -0.2244    2.4636    6.7448   H         1 RES1   0.0000
   248 H154      0.1252    2.4182    3.7114   H         1 RES1   0.0000
   249 H155     -1.1907    3.2370    4.5695   H         1 RES1   0.0000
   250 H156     -1.0269    1.4852    4.6729   H         1 RES1   0.0000
@<TRIPOS>BOND
     1     1    15    1
     2     1    17    1
     3     1    20    1
     4     1    98    1
     5     1   100    1
     6     1   103    1
     7     1   181    1
     8     1   183    1
     9     1   186    1
    10     2     3    1
    11     2    33    1
    12     2    34    1
    13     2    35    1
    14     3     4    1
    15     3    36    1
    16     3    37    1
    17     4     5    1
    18     4    38    1
    19     4    39    1
    20     5     6    1
    21     5    40    1
    22     5    41    1
    23     6     7    1
    24     6    42    1
    25     6    43    1
    26     7     8    1
    27     7    44    1
    28     7    45    1
    29     8     9    1
    30     8    46    1
    31     8    47    1
    32     9    10    1
    33     9    48    1
    34     9    49    1
    35    10    11    1
    36    10    14    1
    37    11    12    1
    38    11    50    1
    39    11    51    1
    40    12    13    1
    41    12    52    1
    42    12    53    1
    43    13    54    1
    44    13    55    1
    45    13    56    1
    46    14    15    2
    47    14    16    1
    48    16    17    1
    49    16    57    1
    50    16    58    1
    51    17    18    1
    52    18    19    1
    53    18    59    1
    54    18    60    1
    55    19    20    2
    56    19    21    1
    57    21    22    1
    58    21    25    1
    59    22    23    1
    60    22    61    1
    61    22    62    1
    62    23    24    1
    63    23    63    1
    64    23    64    1
    65    24    65    1
    66    24    66    1
    67    24    67    1
    68    25    26    1
    69    25    68    1
    70    25    69    1
    71    26    27    1
    72    26    70    1
    73    26    71    1
    74    27    28    1
    75    27    72    1
    76    27    73    1
    77    28    29    1
    78    28    74    1
    79    28    75    1
    80    29    30    1
    81    29    76    1
    82    29    77    1
    83    30    31    1
    84    30    78    1
    85    30    79    1
    86    31    32    1
    87    31    80    1
    88    31    81    1
    89    32    82    1
    90    32    83    1
    91    32    84    1
    92    85    86    1
    93    85   116    1
    94    85   117    1
    95    85   118    1
    96    86    87    1
    97    86   119    1
    98    86   120    1
    99    87    88    1
   100    87   121    1
   101    87   122    1
   102    88    89    1
   103    88   123    1
   104    88   124    1
   105    89    90    1
   106    89   125    1
   107    89   126    1
   108    90    91    1
   109    90   127    1
   110    90   128    1
   111    91    92    1
   112    91   129    1
   113    91   130    1
   114    92    93    1
   115    92   131    1
   116    92   132    1
   117    93    94    1
   118    93    97    1
   119    94    95    1
   120    94   133    1
   121    94   134    1
   122    95    96    1
   123    95   135    1
   124    95   136    1
   125    96   137    1
   126    96   138    1
   127    96   139    1
   128    97    98    2
   129    97    99    1
   130    99   100    1
   131    99   140    1
   132    99   141    1
   133   100   101    1
   134   101   102    1
   135   101   142    1
   136   101   143    1
   137   102   103    2
   138   102   104    1
   139   104   105    1
   140   104   108    1
   141   105   106    1
   142   105   144    1
   143   105   145    1
   144   106   107    1
   145   106   146    1
   146   106   147    1
   147   107   148    1
   148   107   149    1
   149   107   150    1
   150   108   109    1
   151   108   151    1
   152   108   152    1
   153   109   110    1
   154   109   153    1
   155   109   154    1
   156   110   111    1
   157   110   155    1
   158   110   156    1
   159   111   112    1
   160   111   157    1
   161   111   158    1
   162   112   113    1
   163   112   159    1
   164   112   160    1
   165   113   114    1
   166   113   161    1
   167   113   162    1
   168   114   115    1
   169   114   163    1
   170   114   164    1
   171   115   165    1
   172   115   166    1
   173   115   167    1
   174   168   169    1
   175   168   199    1
   176   168   200    1
   177   168   201    1
   178   169   170    1
   179   169   202    1
   180   169   203    1
   181   170   171    1
   182   170   204    1
   183   170   205    1
   184   171   172    1
   185   171   206    1
   186   171   207    1
   187   172   173    1
   188   172   208    1
   189   172   209    1
   190   173   174    1
   191   173   210    1
   192   173   211    1
   193   174   175    1
   194   174   212    1
   195   174   213    1
   196   175   176    1
   197   175   214    1
   198   175   215    1
   199   176   177    1
   200   176   180    1
   201   177   178    1
   202   177   216    1
   203   177   217    1
   204   178   179    1
   205   178   218    1
   206   178   219    1
   207   179   220    1
   208   179   221    1
   209   179   222    1
   210   180   181    2
   211   180   182    1
   212   182   183    1
   213   182   223    1
   214   182   224    1
   215   183   184    1
   216   184   185    1
   217   184   225    1
   218   184   226    1
   219   185   186    2
   220   185   187    1
   221   187   188    1
   222   187   191    1
   223   188   189    1
   224   188   227    1
   225   188   228    1
   226   189   190    1
   227   189   229    1
   228   189   230    1
   229   190   231    1
   230   190   232    1
   231   190   233    1
   232   191   192    1
   233   191   234    1
   234   191   235    1
   235   192   193    1
   236   192   236    1
   237   192   237    1
   238   193   194    1
   239   193   238    1
   240   193   239    1
   241   194   195    1
   242   194   240    1
   243   194   241    1
   244   195   196    1
   245   195   242    1
   246   195   243    1
   247   196   197    1
   248   196   244    1
   249   196   245    1
   250   197   198    1
   251   197   246    1
   252   197   247    1
   253   198   248    1
   254   198   249    1
   255   198   250    1
@<TRIPOS>SUBSTRUCTURE
     1 RES1      250 GROUP             0 ****  ****    0  
