@<TRIPOS>MOLECULE
capped_square_antiprismatic_0_nunpairedes_0_charge_2 Charge: 2 Unpaired_Electrons: 6 XTB_Unpaired_Electrons: 0 XTB_Charge: 2
    70    83     1     0     0
SMALL
NoCharges
****
Generated from Architector

@<TRIPOS>ATOM
     1 Eu1       0.1003    0.0007    0.5193   Eu        1 RES1   0.0000
     2 C1        5.7442    0.1915    3.2841   C.3       1 RES1   0.0000
     3 C2        5.2459   -0.3475    1.9620   C.3       1 RES1   0.0000
     4 C3        4.4115   -1.6686    2.1296   C.3       1 RES1   0.0000
     5 C4        4.4222   -2.3424    0.7437   C.3       1 RES1   0.0000
     6 C5        5.0879   -1.2605   -0.1398   C.3       1 RES1   0.0000
     7 C6        4.0823   -0.1674   -0.0457   C.ar      1 RES1   0.0000
     8 N1        2.8893   -0.0408   -0.5696   N.ar      1 RES1   0.0000
     9 N2        2.1157    0.9845   -0.1541   N.ar      1 RES1   0.0000
    10 C7        2.6212    1.8669    0.7247   C.ar      1 RES1   0.0000
    11 C8        1.6661    2.8191    1.3562   C.ar      1 RES1   0.0000
    12 C9        1.8894    4.0401    1.9771   C.ar      1 RES1   0.0000
    13 C10       1.0622    4.3867    3.0421   C.ar      1 RES1   0.0000
    14 C11       0.2063    3.4371    3.6079   C.ar      1 RES1   0.0000
    15 C12       0.0205    2.2617    2.9114   C.ar      1 RES1   0.0000
    16 C13      -0.3201    0.8434    3.2692   C.ar      1 RES1   0.0000
    17 N3        0.8324    0.1940    3.4889   N.ar      1 RES1   0.0000
    18 N4        0.9593   -1.0532    3.0903   N.ar      1 RES1   0.0000
    19 C14      -0.1194   -1.6755    2.6565   C.ar      1 RES1   0.0000
    20 C15      -1.4073   -1.0440    2.7194   C.ar      1 RES1   0.0000
    21 N5       -1.4747    0.2614    2.9195   N.ar      1 RES1   0.0000
    22 C16      -2.4235   -2.1007    2.3930   C.3       1 RES1   0.0000
    23 C17      -3.8405   -1.8070    2.8303   C.3       1 RES1   0.0000
    24 C18      -2.2224   -2.2950    0.8509   C.3       1 RES1   0.0000
    25 C19      -0.8157   -2.9530    0.7157   C.3       1 RES1   0.0000
    26 C20      -0.3472   -3.0766    2.1903   C.3       1 RES1   0.0000
    27 C21      -1.6835   -3.3750    2.9450   C.3       1 RES1   0.0000
    28 C22      -1.4966   -3.3602    4.4592   C.3       1 RES1   0.0000
    29 C23      -2.3256   -4.7004    2.5655   C.3       1 RES1   0.0000
    30 N6        0.6229    2.0489    1.7234   N.ar      1 RES1   0.0000
    31 N7        3.6699    1.6027    1.5036   N.ar      1 RES1   0.0000
    32 C24       4.3377    0.5243    1.1859   C.ar      1 RES1   0.0000
    33 C25       6.2238   -0.7427    0.7962   C.3       1 RES1   0.0000
    34 C26       7.2606   -1.7704    1.2261   C.3       1 RES1   0.0000
    35 C27       6.9448    0.4766    0.2297   C.3       1 RES1   0.0000
    36 H1        4.9121    0.2849    3.9808   H         1 RES1   0.0000
    37 H2        6.1978    1.1697    3.1641   H         1 RES1   0.0000
    38 H3        6.4722   -0.4901    3.7141   H         1 RES1   0.0000
    39 H4        3.3970   -1.4441    2.4755   H         1 RES1   0.0000
    40 H5        4.8767   -2.2897    2.8941   H         1 RES1   0.0000
    41 H6        3.4211   -2.6102    0.3953   H         1 RES1   0.0000
    42 H7        5.0371   -3.2413    0.7278   H         1 RES1   0.0000
    43 H8        5.3642   -1.5771   -1.1401   H         1 RES1   0.0000
    44 H9        2.6930    4.6956    1.6813   H         1 RES1   0.0000
    45 H10       1.1930    5.3424    3.5307   H         1 RES1   0.0000
    46 H11      -0.2475    3.6041    4.5700   H         1 RES1   0.0000
    47 H12      -4.1813   -0.8685    2.4002   H         1 RES1   0.0000
    48 H13      -3.9004   -1.7245    3.9119   H         1 RES1   0.0000
    49 H14      -4.5166   -2.5925    2.5118   H         1 RES1   0.0000
    50 H15      -2.3326   -1.3400    0.3155   H         1 RES1   0.0000
    51 H16      -3.0067   -2.9588    0.4816   H         1 RES1   0.0000
    52 H17      -0.0752   -2.3912    0.0661   H         1 RES1   0.0000
    53 H18      -0.8861   -3.9557    0.2888   H         1 RES1   0.0000
    54 H19       0.4718   -3.7698    2.3658   H         1 RES1   0.0000
    55 H20      -1.0614   -2.4315    4.8207   H         1 RES1   0.0000
    56 H21      -0.8407   -4.1756    4.7544   H         1 RES1   0.0000
    57 H22      -2.4527   -3.5102    4.9522   H         1 RES1   0.0000
    58 H23      -2.4581   -4.8463    1.4999   H         1 RES1   0.0000
    59 H24      -3.2989   -4.7745    3.0432   H         1 RES1   0.0000
    60 H25      -1.7143   -5.5187    2.9392   H         1 RES1   0.0000
    61 H26       6.8292   -2.6817    1.6233   H         1 RES1   0.0000
    62 H27       7.8858   -1.3367    2.0032   H         1 RES1   0.0000
    63 H28       7.9040   -2.0288    0.3895   H         1 RES1   0.0000
    64 H29       6.2564    1.1986   -0.2027   H         1 RES1   0.0000
    65 H30       7.6473    0.1795   -0.5419   H         1 RES1   0.0000
    66 H31       7.5054    0.9833    1.0102   H         1 RES1   0.0000
    67 N8       -1.5071    0.6129   -1.2094   N.3       1 RES1   0.0000
    68 O1       -2.1150    1.1116   -2.0761   O.2       1 RES1   0.0000
    69 O2       -1.6797    0.9024    0.0036   O.co2     1 RES1   0.0000
    70 O3       -0.6443   -0.2796   -1.3920   O.co2     1 RES1   0.0000
@<TRIPOS>BOND
     1     1     8    1
     2     1     9    1
     3     1    17    1
     4     1    18    1
     5     1    21    1
     6     1    30    1
     7     1    31    1
     8     1    69    1
     9     1    70    1
    10     2     3    1
    11     2    36    1
    12     2    37    1
    13     2    38    1
    14     3     4    1
    15     3    32    1
    16     3    33    1
    17     4     5    1
    18     4    39    1
    19     4    40    1
    20     5     6    1
    21     5    41    1
    22     5    42    1
    23     6     7    1
    24     6    33    1
    25     6    43    1
    26     7     8    1
    27     7    32    2
    28     8     9    2
    29     9    10    1
    30    10    11    1
    31    10    31    2
    32    11    12    1
    33    11    30    2
    34    12    13    2
    35    12    44    1
    36    13    14    1
    37    13    45    1
    38    14    15    2
    39    14    46    1
    40    15    16    1
    41    15    30    1
    42    16    17    1
    43    16    21    2
    44    17    18    2
    45    18    19    1
    46    19    20    2
    47    19    26    1
    48    20    21    1
    49    20    22    1
    50    22    23    1
    51    22    24    1
    52    22    27    1
    53    23    47    1
    54    23    48    1
    55    23    49    1
    56    24    25    1
    57    24    50    1
    58    24    51    1
    59    25    26    1
    60    25    52    1
    61    25    53    1
    62    26    27    1
    63    26    54    1
    64    27    28    1
    65    27    29    1
    66    28    55    1
    67    28    56    1
    68    28    57    1
    69    29    58    1
    70    29    59    1
    71    29    60    1
    72    31    32    1
    73    33    34    1
    74    33    35    1
    75    34    61    1
    76    34    62    1
    77    34    63    1
    78    35    64    1
    79    35    65    1
    80    35    66    1
    81    67    68    2
    82    67    69    1
    83    67    70    1
@<TRIPOS>SUBSTRUCTURE
     1 RES1       70 GROUP             0 ****  ****    0  
