@<TRIPOS>MOLECULE
am_c3_9H2O_c0_0_nunpairedes_0_charge_3 Charge: 3 Unpaired_Electrons: 6 XTB_Unpaired_Electrons: 0 XTB_Charge: 3
   448   453     1     0     0
SMALL
NoCharges
****
Generated from Architector

@<TRIPOS>ATOM
     1 Eu1       0.4753    0.2166   -0.1598   Eu        1 RES1   0.0000
     2 C1      -10.9421    4.0791    0.5222   C.3       1 RES1   0.0000
     3 C2      -10.0522    4.1830   -0.7140   C.3       1 RES1   0.0000
     4 C3      -10.4236    3.1576   -1.7898   C.3       1 RES1   0.0000
     5 C4       -9.9484    1.7328   -1.4937   C.3       1 RES1   0.0000
     6 C5       -8.4284    1.5330   -1.5513   C.3       1 RES1   0.0000
     7 C6       -7.8569    1.6067   -2.9692   C.3       1 RES1   0.0000
     8 C7       -6.3473    1.3498   -3.0515   C.3       1 RES1   0.0000
     9 C8       -5.5307    2.5389   -2.5343   C.3       1 RES1   0.0000
    10 N1       -4.1091    2.3775   -2.7978   N.am      1 RES1   0.0000
    11 C9       -3.5699    3.0552   -3.9721   C.3       1 RES1   0.0000
    12 C10      -3.0002    4.4221   -3.5311   C.3       1 RES1   0.0000
    13 C11      -4.0360    5.5560   -3.4873   C.3       1 RES1   0.0000
    14 C12      -3.7199    6.6856   -2.4907   C.3       1 RES1   0.0000
    15 C13      -2.7197    7.7546   -2.9558   C.3       1 RES1   0.0000
    16 C14      -1.2548    7.3853   -2.7364   C.3       1 RES1   0.0000
    17 C15      -0.3232    8.5885   -2.8781   C.3       1 RES1   0.0000
    18 C16       1.1122    8.2307   -2.5077   C.3       1 RES1   0.0000
    19 C17      -3.2791    1.7825   -1.9305   C.2       1 RES1   0.0000
    20 O1       -2.1510    1.3593   -2.1905   O.2       1 RES1   0.0000
    21 C18      -3.7468    1.7248   -0.4777   C.3       1 RES1   0.0000
    22 O2       -2.6276    1.3477    0.3018   O.3       1 RES1   0.0000
    23 C19      -2.9790    1.3657    1.6709   C.3       1 RES1   0.0000
    24 C20      -1.9641    0.5471    2.4427   C.2       1 RES1   0.0000
    25 O3       -0.8345    0.3369    1.9577   O.2       1 RES1   0.0000
    26 N2       -2.3923    0.0078    3.5691   N.am      1 RES1   0.0000
    27 C21      -3.5723    0.2654    4.3745   C.3       1 RES1   0.0000
    28 C22      -3.2604    1.2095    5.5548   C.3       1 RES1   0.0000
    29 C23      -3.8771    0.7436    6.8792   C.3       1 RES1   0.0000
    30 C24      -3.2597   -0.5548    7.3977   C.3       1 RES1   0.0000
    31 C25      -4.0927   -1.2090    8.5057   C.3       1 RES1   0.0000
    32 C26      -3.8280   -2.7118    8.6161   C.3       1 RES1   0.0000
    33 C27      -4.4301   -3.4960    7.4331   C.3       1 RES1   0.0000
    34 N3       -3.4578   -4.3581    6.7989   N.am      1 RES1   0.0000
    35 C28      -2.7588   -3.9526    5.7392   C.2       1 RES1   0.0000
    36 O4       -2.9210   -2.8659    5.1992   O.2       1 RES1   0.0000
    37 C29      -1.7719   -4.9526    5.1613   C.3       1 RES1   0.0000
    38 O5       -1.7311   -4.7096    3.7738   O.3       1 RES1   0.0000
    39 C30      -0.5316   -4.2369    3.2371   C.3       1 RES1   0.0000
    40 C31       0.0538   -5.3559    2.3909   C.2       1 RES1   0.0000
    41 O6       -0.1121   -6.5046    2.7327   O.2       1 RES1   0.0000
    42 N4        0.7684   -5.0251    1.2821   N.am      1 RES1   0.0000
    43 C32       1.0420   -3.7029    0.7231   C.3       1 RES1   0.0000
    44 C33       1.6927   -2.5637    1.5691   C.3       1 RES1   0.0000
    45 C34       3.2359   -2.4779    1.5587   C.3       1 RES1   0.0000
    46 C35       4.1064   -1.4136    0.8636   C.3       1 RES1   0.0000
    47 C36       5.5347   -1.6377    1.4004   C.3       1 RES1   0.0000
    48 C37       6.7047   -1.0033    0.6537   C.3       1 RES1   0.0000
    49 C38       6.8685    0.5022    0.8053   C.3       1 RES1   0.0000
    50 C39       8.2434    0.9452    0.3190   C.3       1 RES1   0.0000
    51 C40       0.9969   -6.1394    0.3665   C.3       1 RES1   0.0000
    52 C41       0.0973   -6.1351   -0.8735   C.3       1 RES1   0.0000
    53 C42       0.5592   -7.1922   -1.8885   C.3       1 RES1   0.0000
    54 C43       0.4805   -6.7769   -3.3655   C.3       1 RES1   0.0000
    55 C44      -0.8031   -7.1295   -4.1260   C.3       1 RES1   0.0000
    56 C45      -2.0645   -6.3061   -3.8409   C.3       1 RES1   0.0000
    57 C46      -2.8668   -6.7687   -2.6209   C.3       1 RES1   0.0000
    58 C47      -4.3568   -6.5289   -2.8133   C.3       1 RES1   0.0000
    59 H1      -10.6364    4.7992    1.2801   H         1 RES1   0.0000
    60 H2      -11.9738    4.2956    0.2529   H         1 RES1   0.0000
    61 H3      -10.8992    3.0838    0.9627   H         1 RES1   0.0000
    62 H4      -10.1580    5.1847   -1.1368   H         1 RES1   0.0000
    63 H5       -9.0054    4.0654   -0.4241   H         1 RES1   0.0000
    64 H6      -11.5124    3.1442   -1.8749   H         1 RES1   0.0000
    65 H7      -10.0248    3.4738   -2.7554   H         1 RES1   0.0000
    66 H8      -10.2933    1.4555   -0.4966   H         1 RES1   0.0000
    67 H9      -10.4298    1.0544   -2.2009   H         1 RES1   0.0000
    68 H10      -7.9517    2.2786   -0.9133   H         1 RES1   0.0000
    69 H11      -8.1993    0.5493   -1.1327   H         1 RES1   0.0000
    70 H12      -8.3570    0.8608   -3.5881   H         1 RES1   0.0000
    71 H13      -8.0740    2.5820   -3.4053   H         1 RES1   0.0000
    72 H14      -6.0996    0.4483   -2.4859   H         1 RES1   0.0000
    73 H15      -6.0671    1.1908   -4.0961   H         1 RES1   0.0000
    74 H16      -5.8726    3.4317   -3.0554   H         1 RES1   0.0000
    75 H17      -5.7021    2.6854   -1.4701   H         1 RES1   0.0000
    76 H18      -2.8035    2.4180   -4.4156   H         1 RES1   0.0000
    77 H19      -4.3533    3.1808   -4.7163   H         1 RES1   0.0000
    78 H20      -2.5919    4.2811   -2.5268   H         1 RES1   0.0000
    79 H21      -2.1875    4.7145   -4.1979   H         1 RES1   0.0000
    80 H22      -4.1566    5.9831   -4.4837   H         1 RES1   0.0000
    81 H23      -5.0025    5.1488   -3.1907   H         1 RES1   0.0000
    82 H24      -4.6628    7.1961   -2.2729   H         1 RES1   0.0000
    83 H25      -3.3782    6.2479   -1.5456   H         1 RES1   0.0000
    84 H26      -2.9012    7.9821   -4.0075   H         1 RES1   0.0000
    85 H27      -2.9190    8.6702   -2.3927   H         1 RES1   0.0000
    86 H28      -1.1436    6.9850   -1.7253   H         1 RES1   0.0000
    87 H29      -0.9525    6.6104   -3.4448   H         1 RES1   0.0000
    88 H30      -0.3518    8.9546   -3.9051   H         1 RES1   0.0000
    89 H31      -0.6649    9.4004   -2.2307   H         1 RES1   0.0000
    90 H32       1.4952    7.4400   -3.1506   H         1 RES1   0.0000
    91 H33       1.7599    9.0951   -2.6191   H         1 RES1   0.0000
    92 H34       1.1703    7.8948   -1.4734   H         1 RES1   0.0000
    93 H35      -4.0920    2.7298   -0.1789   H         1 RES1   0.0000
    94 H36      -4.5762    1.0101   -0.3621   H         1 RES1   0.0000
    95 H37      -2.9678    2.3878    2.0742   H         1 RES1   0.0000
    96 H38      -3.9859    0.9419    1.7826   H         1 RES1   0.0000
    97 H39      -1.7247   -0.5557    4.0750   H         1 RES1   0.0000
    98 H40      -4.3777    0.6875    3.7791   H         1 RES1   0.0000
    99 H41      -3.8968   -0.7064    4.7571   H         1 RES1   0.0000
   100 H42      -2.1798    1.2757    5.6631   H         1 RES1   0.0000
   101 H43      -3.5956    2.2253    5.3293   H         1 RES1   0.0000
   102 H44      -3.7361    1.5240    7.6314   H         1 RES1   0.0000
   103 H45      -4.9504    0.6104    6.7454   H         1 RES1   0.0000
   104 H46      -3.1489   -1.2560    6.5719   H         1 RES1   0.0000
   105 H47      -2.2542   -0.3397    7.7659   H         1 RES1   0.0000
   106 H48      -3.8696   -0.7370    9.4626   H         1 RES1   0.0000
   107 H49      -5.1541   -1.0517    8.3033   H         1 RES1   0.0000
   108 H50      -2.7495   -2.8864    8.6413   H         1 RES1   0.0000
   109 H51      -4.2403   -3.0846    9.5518   H         1 RES1   0.0000
   110 H52      -5.2859   -4.1044    7.7339   H         1 RES1   0.0000
   111 H53      -4.7585   -2.8035    6.6532   H         1 RES1   0.0000
   112 H54      -3.2336   -5.2409    7.2239   H         1 RES1   0.0000
   113 H55      -0.8046   -4.7943    5.6442   H         1 RES1   0.0000
   114 H56      -2.0764   -5.9859    5.3422   H         1 RES1   0.0000
   115 H57      -0.7342   -3.3198    2.6722   H         1 RES1   0.0000
   116 H58       0.1760   -4.0100    4.0308   H         1 RES1   0.0000
   117 H59       1.7122   -3.9341   -0.0965   H         1 RES1   0.0000
   118 H60       0.1087   -3.3118    0.3024   H         1 RES1   0.0000
   119 H61       1.2570   -1.5910    1.2458   H         1 RES1   0.0000
   120 H62       1.3964   -2.7110    2.6053   H         1 RES1   0.0000
   121 H63       3.5272   -2.3896    2.5964   H         1 RES1   0.0000
   122 H64       3.6085   -3.4307    1.2228   H         1 RES1   0.0000
   123 H65       4.0907   -1.4902   -0.2218   H         1 RES1   0.0000
   124 H66       3.7719   -0.4162    1.1148   H         1 RES1   0.0000
   125 H67       5.5754   -1.3157    2.4397   H         1 RES1   0.0000
   126 H68       5.7269   -2.7128    1.3997   H         1 RES1   0.0000
   127 H69       7.6153   -1.4757    1.0248   H         1 RES1   0.0000
   128 H70       6.6320   -1.2408   -0.4030   H         1 RES1   0.0000
   129 H71       6.0992    0.9996    0.2121   H         1 RES1   0.0000
   130 H72       6.7351    0.7842    1.8521   H         1 RES1   0.0000
   131 H73       8.3971    0.6456   -0.7159   H         1 RES1   0.0000
   132 H74       8.3545    2.0242    0.3859   H         1 RES1   0.0000
   133 H75       9.0235    0.4880    0.9234   H         1 RES1   0.0000
   134 H76       2.0370   -6.1153    0.0620   H         1 RES1   0.0000
   135 H77       0.8319   -7.0528    0.9430   H         1 RES1   0.0000
   136 H78      -0.9283   -6.3224   -0.5644   H         1 RES1   0.0000
   137 H79       0.1389   -5.1449   -1.3293   H         1 RES1   0.0000
   138 H80       1.6016   -7.4387   -1.6710   H         1 RES1   0.0000
   139 H81      -0.0060   -8.1109   -1.7455   H         1 RES1   0.0000
   140 H82       0.6824   -5.7040   -3.4646   H         1 RES1   0.0000
   141 H83       1.2858   -7.2945   -3.8902   H         1 RES1   0.0000
   142 H84      -0.5761   -7.0224   -5.1901   H         1 RES1   0.0000
   143 H85      -1.0276   -8.1858   -3.9666   H         1 RES1   0.0000
   144 H86      -1.8098   -5.2399   -3.7681   H         1 RES1   0.0000
   145 H87      -2.7068   -6.4155   -4.7188   H         1 RES1   0.0000
   146 H88      -2.7066   -7.8366   -2.4707   H         1 RES1   0.0000
   147 H89      -2.5393   -6.2524   -1.7180   H         1 RES1   0.0000
   148 H90      -4.7218   -7.0896   -3.6697   H         1 RES1   0.0000
   149 H91      -4.9059   -6.8588   -1.9362   H         1 RES1   0.0000
   150 H92      -4.5598   -5.4743   -2.9837   H         1 RES1   0.0000
   151 C48       8.3896   -4.6118   -1.9380   C.3       1 RES1   0.0000
   152 C49       9.3096   -3.6350   -2.6624   C.3       1 RES1   0.0000
   153 C50       9.0164   -2.1640   -2.3698   C.3       1 RES1   0.0000
   154 C51       7.6058   -1.7122   -2.7448   C.3       1 RES1   0.0000
   155 C52       7.2581   -1.8671   -4.2247   C.3       1 RES1   0.0000
   156 C53       6.1031   -0.9455   -4.6328   C.3       1 RES1   0.0000
   157 C54       4.8097   -1.2449   -3.8694   C.3       1 RES1   0.0000
   158 C55       3.6345   -0.3104   -4.1992   C.3       1 RES1   0.0000
   159 N5        3.7578    0.9993   -3.5615   N.am      1 RES1   0.0000
   160 C56       4.5033    2.0610   -4.2399   C.3       1 RES1   0.0000
   161 C57       4.3078    2.1447   -5.7645   C.3       1 RES1   0.0000
   162 C58       2.8739    2.4609   -6.2471   C.3       1 RES1   0.0000
   163 C59       2.2895    1.3769   -7.1587   C.3       1 RES1   0.0000
   164 C60       0.8611    1.6437   -7.6463   C.3       1 RES1   0.0000
   165 C61       0.2183    0.3483   -8.1565   C.3       1 RES1   0.0000
   166 C62      -1.2479    0.4795   -8.5782   C.3       1 RES1   0.0000
   167 C63      -2.2061    0.7066   -7.4115   C.3       1 RES1   0.0000
   168 C64       3.2467    1.1338   -2.3346   C.2       1 RES1   0.0000
   169 O7        2.3651    0.3887   -1.8698   O.2       1 RES1   0.0000
   170 C65       3.8172    2.2001   -1.3959   C.3       1 RES1   0.0000
   171 O8        3.0119    2.1642   -0.2339   O.3       1 RES1   0.0000
   172 C66       3.6584    2.5048    0.9801   C.3       1 RES1   0.0000
   173 C67       3.2064    1.4916    2.0416   C.2       1 RES1   0.0000
   174 O9        2.1372    0.8894    1.8780   O.2       1 RES1   0.0000
   175 N6        4.0954    1.2894    3.0136   N.am      1 RES1   0.0000
   176 C68       3.9864    0.3823    4.1514   C.3       1 RES1   0.0000
   177 C69       5.3400    0.0141    4.7724   C.3       1 RES1   0.0000
   178 C70       5.3933    0.1326    6.3040   C.3       1 RES1   0.0000
   179 C71       4.5656   -0.9030    7.0870   C.3       1 RES1   0.0000
   180 C72       3.2081   -0.3683    7.5505   C.3       1 RES1   0.0000
   181 C73       2.5327   -1.2806    8.5752   C.3       1 RES1   0.0000
   182 C74       1.2418   -0.6820    9.1951   C.3       1 RES1   0.0000
   183 N7        0.8564    0.6138    8.6750   N.am      1 RES1   0.0000
   184 C75       1.1096    1.7443    9.3665   C.2       1 RES1   0.0000
   185 O10       1.7446    1.7831   10.3961   O.2       1 RES1   0.0000
   186 C76       0.5759    3.0258    8.7095   C.3       1 RES1   0.0000
   187 O11      -0.4221    2.7568    7.7357   O.3       1 RES1   0.0000
   188 C77      -1.5595    3.5861    7.8155   C.3       1 RES1   0.0000
   189 C78      -1.4286    4.8843    7.0006   C.2       1 RES1   0.0000
   190 O12      -0.4961    5.0346    6.2275   O.2       1 RES1   0.0000
   191 N8       -2.4039    5.8084    7.1561   N.am      1 RES1   0.0000
   192 C79      -3.3779    5.7865    8.2399   C.3       1 RES1   0.0000
   193 C80      -4.8242    6.1253    7.8679   C.3       1 RES1   0.0000
   194 C81      -5.6119    4.9751    7.2320   C.3       1 RES1   0.0000
   195 C82      -5.3813    4.7726    5.7344   C.3       1 RES1   0.0000
   196 C83      -6.2498    3.6388    5.1847   C.3       1 RES1   0.0000
   197 C84      -6.1348    3.5183    3.6669   C.3       1 RES1   0.0000
   198 C85      -6.8857    2.3206    3.0823   C.3       1 RES1   0.0000
   199 C86      -8.3986    2.4222    3.2343   C.3       1 RES1   0.0000
   200 C87      -2.1548    7.1225    6.5717   C.3       1 RES1   0.0000
   201 C88      -2.9130    7.4585    5.2809   C.3       1 RES1   0.0000
   202 C89      -2.3433    6.7870    4.0320   C.3       1 RES1   0.0000
   203 C90      -2.9971    7.2895    2.7415   C.3       1 RES1   0.0000
   204 C91      -4.4229    6.7868    2.5347   C.3       1 RES1   0.0000
   205 C92      -4.9850    7.2434    1.1904   C.3       1 RES1   0.0000
   206 C93      -6.3333    6.6135    0.8377   C.3       1 RES1   0.0000
   207 C94      -7.4777    7.0968    1.7186   C.3       1 RES1   0.0000
   208 H93       8.7153   -5.6300   -2.1306   H         1 RES1   0.0000
   209 H94       7.3607   -4.5244   -2.2801   H         1 RES1   0.0000
   210 H95       8.4106   -4.4446   -0.8635   H         1 RES1   0.0000
   211 H96       9.2455   -3.8105   -3.7363   H         1 RES1   0.0000
   212 H97      10.3386   -3.8395   -2.3637   H         1 RES1   0.0000
   213 H98       9.7362   -1.5513   -2.9149   H         1 RES1   0.0000
   214 H99       9.1707   -1.9733   -1.3041   H         1 RES1   0.0000
   215 H100      7.5171   -0.6538   -2.4858   H         1 RES1   0.0000
   216 H101      6.8880   -2.2713   -2.1429   H         1 RES1   0.0000
   217 H102      7.0087   -2.9067   -4.4425   H         1 RES1   0.0000
   218 H103      8.1277   -1.6025   -4.8275   H         1 RES1   0.0000
   219 H104      5.9186   -1.0561   -5.7039   H         1 RES1   0.0000
   220 H105      6.4170    0.0847   -4.4561   H         1 RES1   0.0000
   221 H106      4.9800   -1.2026   -2.7913   H         1 RES1   0.0000
   222 H107      4.5016   -2.2652   -4.1161   H         1 RES1   0.0000
   223 H108      2.7197   -0.7601   -3.8108   H         1 RES1   0.0000
   224 H109      3.5477   -0.1880   -5.2754   H         1 RES1   0.0000
   225 H110      5.5735    1.9549   -4.0346   H         1 RES1   0.0000
   226 H111      4.1881    3.0127   -3.8130   H         1 RES1   0.0000
   227 H112      4.6777    1.2400   -6.2438   H         1 RES1   0.0000
   228 H113      4.9757    2.9441   -6.0853   H         1 RES1   0.0000
   229 H114      2.8715    3.4020   -6.7956   H         1 RES1   0.0000
   230 H115      2.2162    2.5926   -5.3880   H         1 RES1   0.0000
   231 H116      2.2750    0.4337   -6.6115   H         1 RES1   0.0000
   232 H117      2.9336    1.2421   -8.0272   H         1 RES1   0.0000
   233 H118      0.8671    2.3812   -8.4488   H         1 RES1   0.0000
   234 H119      0.2644    2.0477   -6.8285   H         1 RES1   0.0000
   235 H120      0.2883   -0.4176   -7.3778   H         1 RES1   0.0000
   236 H121      0.7898   -0.0106   -9.0143   H         1 RES1   0.0000
   237 H122     -1.5422   -0.4388   -9.0941   H         1 RES1   0.0000
   238 H123     -1.3439    1.2990   -9.2904   H         1 RES1   0.0000
   239 H124     -2.2094   -0.1512   -6.7386   H         1 RES1   0.0000
   240 H125     -3.2166    0.8396   -7.7886   H         1 RES1   0.0000
   241 H126     -1.9381    1.6001   -6.8496   H         1 RES1   0.0000
   242 H127      3.8484    3.2165   -1.8020   H         1 RES1   0.0000
   243 H128      4.8485    1.8999   -1.1755   H         1 RES1   0.0000
   244 H129      3.3726    3.5178    1.2781   H         1 RES1   0.0000
   245 H130      4.7445    2.4848    0.8786   H         1 RES1   0.0000
   246 H131      4.9156    1.8787    3.0373   H         1 RES1   0.0000
   247 H132      3.4343   -0.4863    3.8023   H         1 RES1   0.0000
   248 H133      3.3847    0.8439    4.9314   H         1 RES1   0.0000
   249 H134      6.1100    0.6741    4.3678   H         1 RES1   0.0000
   250 H135      5.6203   -1.0085    4.5164   H         1 RES1   0.0000
   251 H136      5.0965    1.1371    6.6132   H         1 RES1   0.0000
   252 H137      6.4408    0.0181    6.5869   H         1 RES1   0.0000
   253 H138      5.1330   -1.1885    7.9737   H         1 RES1   0.0000
   254 H139      4.4286   -1.8032    6.4835   H         1 RES1   0.0000
   255 H140      2.5553   -0.2474    6.6893   H         1 RES1   0.0000
   256 H141      3.3542    0.6087    8.0148   H         1 RES1   0.0000
   257 H142      3.2407   -1.4755    9.3820   H         1 RES1   0.0000
   258 H143      2.2792   -2.2333    8.1096   H         1 RES1   0.0000
   259 H144      1.3986   -0.5383   10.2668   H         1 RES1   0.0000
   260 H145      0.4093   -1.3744    9.0515   H         1 RES1   0.0000
   261 H146      0.2072    0.6793    7.9066   H         1 RES1   0.0000
   262 H147      1.4348    3.5328    8.2468   H         1 RES1   0.0000
   263 H148      0.2063    3.6744    9.5158   H         1 RES1   0.0000
   264 H149     -1.7633    3.8066    8.8700   H         1 RES1   0.0000
   265 H150     -2.3904    3.0100    7.3978   H         1 RES1   0.0000
   266 H151     -3.0507    6.5122    8.9942   H         1 RES1   0.0000
   267 H152     -3.3871    4.8038    8.7027   H         1 RES1   0.0000
   268 H153     -4.8747    7.0114    7.2373   H         1 RES1   0.0000
   269 H154     -5.3145    6.3769    8.8107   H         1 RES1   0.0000
   270 H155     -6.6740    5.1798    7.3847   H         1 RES1   0.0000
   271 H156     -5.3798    4.0472    7.7619   H         1 RES1   0.0000
   272 H157     -4.3237    4.5705    5.5418   H         1 RES1   0.0000
   273 H158     -5.6486    5.6894    5.2064   H         1 RES1   0.0000
   274 H159     -7.2882    3.8319    5.4550   H         1 RES1   0.0000
   275 H160     -5.9534    2.6964    5.6489   H         1 RES1   0.0000
   276 H161     -5.0745    3.4346    3.4071   H         1 RES1   0.0000
   277 H162     -6.5160    4.4306    3.2057   H         1 RES1   0.0000
   278 H163     -6.5412    1.3994    3.5588   H         1 RES1   0.0000
   279 H164     -6.6503    2.2478    2.0158   H         1 RES1   0.0000
   280 H165     -8.6930    2.3893    4.2788   H         1 RES1   0.0000
   281 H166     -8.8926    1.5961    2.7264   H         1 RES1   0.0000
   282 H167     -8.7600    3.3524    2.8048   H         1 RES1   0.0000
   283 H168     -1.0811    7.1916    6.3701   H         1 RES1   0.0000
   284 H169     -2.4086    7.8608    7.3340   H         1 RES1   0.0000
   285 H170     -2.8414    8.5424    5.1587   H         1 RES1   0.0000
   286 H171     -3.9661    7.2034    5.3787   H         1 RES1   0.0000
   287 H172     -2.4630    5.7029    4.1062   H         1 RES1   0.0000
   288 H173     -1.2734    7.0050    3.9854   H         1 RES1   0.0000
   289 H174     -2.3949    6.9568    1.8906   H         1 RES1   0.0000
   290 H175     -2.9924    8.3807    2.7370   H         1 RES1   0.0000
   291 H176     -5.0608    7.1496    3.3371   H         1 RES1   0.0000
   292 H177     -4.4220    5.6951    2.5724   H         1 RES1   0.0000
   293 H178     -4.2651    6.9816    0.4114   H         1 RES1   0.0000
   294 H179     -5.0857    8.3297    1.1856   H         1 RES1   0.0000
   295 H180     -6.2557    5.5241    0.9045   H         1 RES1   0.0000
   296 H181     -6.5686    6.8592   -0.1997   H         1 RES1   0.0000
   297 H182     -7.3165    6.8278    2.7587   H         1 RES1   0.0000
   298 H183     -8.4172    6.6561    1.3938   H         1 RES1   0.0000
   299 H184     -7.5720    8.1772    1.6579   H         1 RES1   0.0000
   300 C95      -5.9201   -5.3633   -7.5267   C.3       1 RES1   0.0000
   301 C96      -6.6782   -5.1464   -6.2218   C.3       1 RES1   0.0000
   302 C97      -6.1243   -3.9610   -5.4393   C.3       1 RES1   0.0000
   303 C98      -6.7822   -3.7737   -4.0746   C.3       1 RES1   0.0000
   304 C99      -6.0674   -2.6744   -3.2915   C.3       1 RES1   0.0000
   305 C100     -6.4659   -2.6227   -1.8154   C.3       1 RES1   0.0000
   306 C101     -5.3285   -2.0901   -0.9358   C.3       1 RES1   0.0000
   307 C102     -4.2283   -3.1505   -0.7785   C.3       1 RES1   0.0000
   308 N9       -3.1046   -2.6564   -0.0081   N.am      1 RES1   0.0000
   309 C103     -3.3127   -2.4653    1.4352   C.3       1 RES1   0.0000
   310 C104     -4.3276   -3.3440    2.1749   C.3       1 RES1   0.0000
   311 C105     -4.1998   -4.8646    2.0209   C.3       1 RES1   0.0000
   312 C106     -4.7858   -5.5663    3.2491   C.3       1 RES1   0.0000
   313 C107     -4.9775   -7.0793    3.0952   C.3       1 RES1   0.0000
   314 C108     -3.7186   -7.8455    2.6557   C.3       1 RES1   0.0000
   315 C109     -3.7062   -8.1429    1.1577   C.3       1 RES1   0.0000
   316 C110     -2.4553   -8.9018    0.7453   C.3       1 RES1   0.0000
   317 C111     -2.0091   -2.1269   -0.5348   C.2       1 RES1   0.0000
   318 O13      -1.1806   -1.4821    0.1492   O.2       1 RES1   0.0000
   319 C112     -1.6279   -2.3459   -2.0086   C.3       1 RES1   0.0000
   320 O14      -0.2741   -1.9189   -2.1650   O.3       1 RES1   0.0000
   321 C113      0.6303   -2.7901   -2.8390   C.3       1 RES1   0.0000
   322 C114      1.9169   -2.8491   -1.9998   C.2       1 RES1   0.0000
   323 O15       2.0955   -1.9626   -1.1684   O.2       1 RES1   0.0000
   324 N10       2.7250   -3.9041   -2.1859   N.am      1 RES1   0.0000
   325 C115      4.0031   -4.0842   -1.4939   C.3       1 RES1   0.0000
   326 C116      4.3326   -5.4927   -0.9484   C.3       1 RES1   0.0000
   327 C117      4.9710   -5.4510    0.4693   C.3       1 RES1   0.0000
   328 C118      4.0305   -5.6781    1.6892   C.3       1 RES1   0.0000
   329 C119      4.7446   -5.4652    3.0541   C.3       1 RES1   0.0000
   330 C120      4.3324   -4.3581    4.0631   C.3       1 RES1   0.0000
   331 C121      2.8767   -4.2709    4.5720   C.3       1 RES1   0.0000
   332 N11       2.3582   -2.8924    4.6951   N.am      1 RES1   0.0000
   333 C122      1.2874   -2.5167    5.4318   C.2       1 RES1   0.0000
   334 O16       0.7517   -3.2345    6.2514   O.2       1 RES1   0.0000
   335 C123      0.5577   -1.1830    5.0672   C.3       1 RES1   0.0000
   336 O17       1.3105   -0.0156    4.7841   O.3       1 RES1   0.0000
   337 C124      0.8430    1.2300    5.3109   C.3       1 RES1   0.0000
   338 C125      0.3040    2.3041    4.3382   C.2       1 RES1   0.0000
   339 O18      -0.8726    2.2446    4.0047   O.2       1 RES1   0.0000
   340 N12       1.0905    3.3261    3.9591   N.am      1 RES1   0.0000
   341 C126      2.4552    3.5780    4.3657   C.3       1 RES1   0.0000
   342 C127      2.6226    4.6626    5.4345   C.3       1 RES1   0.0000
   343 C128      4.0216    5.2851    5.3626   C.3       1 RES1   0.0000
   344 C129      4.1575    6.4933    4.4238   C.3       1 RES1   0.0000
   345 C130      4.3580    6.1867    2.9367   C.3       1 RES1   0.0000
   346 C131      4.6261    7.4664    2.1421   C.3       1 RES1   0.0000
   347 C132      4.8630    7.2337    0.6494   C.3       1 RES1   0.0000
   348 C133      5.1084    8.5515   -0.0775   C.3       1 RES1   0.0000
   349 C134      0.4737    4.5245    3.3807   C.3       1 RES1   0.0000
   350 C135     -0.4352    4.3305    2.1714   C.3       1 RES1   0.0000
   351 C136      0.2776    3.9029    0.8861   C.3       1 RES1   0.0000
   352 C137     -0.5581    4.2488   -0.3526   C.3       1 RES1   0.0000
   353 C138      0.2457    4.2612   -1.6537   C.3       1 RES1   0.0000
   354 C139      0.6140    2.8781   -2.2040   C.3       1 RES1   0.0000
   355 C140      0.0002    2.5599   -3.5659   C.3       1 RES1   0.0000
   356 C141      0.2369    1.1144   -3.9773   C.3       1 RES1   0.0000
   357 H185     -6.3325   -6.2106   -8.0674   H         1 RES1   0.0000
   358 H186     -4.8664   -5.5647   -7.3393   H         1 RES1   0.0000
   359 H187     -5.9897   -4.4830   -8.1621   H         1 RES1   0.0000
   360 H188     -6.6126   -6.0494   -5.6115   H         1 RES1   0.0000
   361 H189     -7.7309   -4.9722   -6.4436   H         1 RES1   0.0000
   362 H190     -6.2528   -3.0507   -6.0263   H         1 RES1   0.0000
   363 H191     -5.0494   -4.1096   -5.2953   H         1 RES1   0.0000
   364 H192     -6.7222   -4.7115   -3.5194   H         1 RES1   0.0000
   365 H193     -7.8387   -3.5262   -4.1859   H         1 RES1   0.0000
   366 H194     -6.2609   -1.7089   -3.7606   H         1 RES1   0.0000
   367 H195     -4.9906   -2.8519   -3.3600   H         1 RES1   0.0000
   368 H196     -6.7442   -3.6232   -1.4791   H         1 RES1   0.0000
   369 H197     -7.3506   -1.9974   -1.6928   H         1 RES1   0.0000
   370 H198     -5.7193   -1.8313    0.0497   H         1 RES1   0.0000
   371 H199     -4.9046   -1.1849   -1.3845   H         1 RES1   0.0000
   372 H200     -3.8753   -3.4695   -1.7560   H         1 RES1   0.0000
   373 H201     -4.6454   -4.0211   -0.2720   H         1 RES1   0.0000
   374 H202     -3.5788   -1.4193    1.6065   H         1 RES1   0.0000
   375 H203     -2.3423   -2.6144    1.9023   H         1 RES1   0.0000
   376 H204     -5.3520   -3.0411    1.9531   H         1 RES1   0.0000
   377 H205     -4.1377   -3.1235    3.2303   H         1 RES1   0.0000
   378 H206     -3.1493   -5.1301    1.9309   H         1 RES1   0.0000
   379 H207     -4.7289   -5.2357    1.1409   H         1 RES1   0.0000
   380 H208     -5.7592   -5.1216    3.4729   H         1 RES1   0.0000
   381 H209     -4.1250   -5.3765    4.0933   H         1 RES1   0.0000
   382 H210     -5.7873   -7.2724    2.3858   H         1 RES1   0.0000
   383 H211     -5.3163   -7.4559    4.0641   H         1 RES1   0.0000
   384 H212     -3.6724   -8.8001    3.1835   H         1 RES1   0.0000
   385 H213     -2.8248   -7.2805    2.9294   H         1 RES1   0.0000
   386 H214     -3.7700   -7.2102    0.5955   H         1 RES1   0.0000
   387 H215     -4.5856   -8.7407    0.9110   H         1 RES1   0.0000
   388 H216     -1.5608   -8.3397    1.0003   H         1 RES1   0.0000
   389 H217     -2.4637   -9.0933   -0.3233   H         1 RES1   0.0000
   390 H218     -2.4113   -9.8568    1.2576   H         1 RES1   0.0000
   391 H219     -2.2612   -1.7164   -2.6462   H         1 RES1   0.0000
   392 H220     -1.7489   -3.3962   -2.2912   H         1 RES1   0.0000
   393 H221      0.8801   -2.3824   -3.8315   H         1 RES1   0.0000
   394 H222      0.2014   -3.7883   -2.9694   H         1 RES1   0.0000
   395 H223      2.5020   -4.5925   -2.8919   H         1 RES1   0.0000
   396 H224      3.9618   -3.3794   -0.6740   H         1 RES1   0.0000
   397 H225      4.8016   -3.7746   -2.1742   H         1 RES1   0.0000
   398 H226      5.0387   -5.9743   -1.6246   H         1 RES1   0.0000
   399 H227      3.4520   -6.1279   -0.9441   H         1 RES1   0.0000
   400 H228      5.5041   -4.4969    0.5571   H         1 RES1   0.0000
   401 H229      5.7374   -6.2308    0.5109   H         1 RES1   0.0000
   402 H230      3.7072   -6.7201    1.6494   H         1 RES1   0.0000
   403 H231      3.1163   -5.0906    1.6417   H         1 RES1   0.0000
   404 H232      5.8011   -5.2668    2.8536   H         1 RES1   0.0000
   405 H233      4.7070   -6.4162    3.5835   H         1 RES1   0.0000
   406 H234      4.6341   -3.3880    3.6772   H         1 RES1   0.0000
   407 H235      4.9802   -4.5368    4.9196   H         1 RES1   0.0000
   408 H236      2.7859   -4.7362    5.5563   H         1 RES1   0.0000
   409 H237      2.2232   -4.8331    3.8961   H         1 RES1   0.0000
   410 H238      2.8108   -2.1667    4.1643   H         1 RES1   0.0000
   411 H239     -0.1325   -1.0059    5.8994   H         1 RES1   0.0000
   412 H240     -0.0420   -1.4448    4.1763   H         1 RES1   0.0000
   413 H241      1.6363    1.6706    5.9193   H         1 RES1   0.0000
   414 H242     -0.0043    1.0575    5.9757   H         1 RES1   0.0000
   415 H243      2.9972    3.8902    3.4701   H         1 RES1   0.0000
   416 H244      2.9093    2.6600    4.7131   H         1 RES1   0.0000
   417 H245      2.4531    4.2147    6.4143   H         1 RES1   0.0000
   418 H246      1.8664    5.4350    5.3173   H         1 RES1   0.0000
   419 H247      4.7499    4.5194    5.0818   H         1 RES1   0.0000
   420 H248      4.2829    5.6213    6.3646   H         1 RES1   0.0000
   421 H249      5.0240    7.0668    4.7560   H         1 RES1   0.0000
   422 H250      3.2833    7.1345    4.5428   H         1 RES1   0.0000
   423 H251      3.4730    5.6955    2.5218   H         1 RES1   0.0000
   424 H252      5.2086    5.5100    2.8164   H         1 RES1   0.0000
   425 H253      5.5011    7.9628    2.5627   H         1 RES1   0.0000
   426 H254      3.7774    8.1428    2.2588   H         1 RES1   0.0000
   427 H255      3.9911    6.7391    0.2098   H         1 RES1   0.0000
   428 H256      5.7248    6.5766    0.5047   H         1 RES1   0.0000
   429 H257      4.2486    9.2088    0.0233   H         1 RES1   0.0000
   430 H258      5.2903    8.3867   -1.1367   H         1 RES1   0.0000
   431 H259      5.9735    9.0590    0.3394   H         1 RES1   0.0000
   432 H260      1.2880    5.1914    3.0921   H         1 RES1   0.0000
   433 H261     -0.0997    5.0020    4.1818   H         1 RES1   0.0000
   434 H262     -0.9122    5.2967    2.0019   H         1 RES1   0.0000
   435 H263     -1.2031    3.6125    2.4393   H         1 RES1   0.0000
   436 H264      0.4799    2.8144    0.9342   H         1 RES1   0.0000
   437 H265      1.2298    4.4370    0.8154   H         1 RES1   0.0000
   438 H266     -0.9541    5.2583   -0.2181   H         1 RES1   0.0000
   439 H267     -1.4076    3.5670   -0.4340   H         1 RES1   0.0000
   440 H268      1.1483    4.8494   -1.4782   H         1 RES1   0.0000
   441 H269     -0.3197    4.7937   -2.4136   H         1 RES1   0.0000
   442 H270      0.2753    2.0710   -1.4695   H         1 RES1   0.0000
   443 H271      1.6942    2.8212   -2.2968   H         1 RES1   0.0000
   444 H272      0.4052    3.2430   -4.3152   H         1 RES1   0.0000
   445 H273     -1.0658    2.7208   -3.5026   H         1 RES1   0.0000
   446 H274      1.2702    0.9393   -4.2445   H         1 RES1   0.0000
   447 H275     -0.3728    0.8492   -4.8339   H         1 RES1   0.0000
   448 H276     -0.0425    0.4443   -3.1558   H         1 RES1   0.0000
@<TRIPOS>BOND
     1     1    20    1
     2     1    22    1
     3     1    25    1
     4     1   169    1
     5     1   171    1
     6     1   174    1
     7     1   318    1
     8     1   320    1
     9     1   323    1
    10     2     3    1
    11     2    59    1
    12     2    60    1
    13     2    61    1
    14     3     4    1
    15     3    62    1
    16     3    63    1
    17     4     5    1
    18     4    64    1
    19     4    65    1
    20     5     6    1
    21     5    66    1
    22     5    67    1
    23     6     7    1
    24     6    68    1
    25     6    69    1
    26     7     8    1
    27     7    70    1
    28     7    71    1
    29     8     9    1
    30     8    72    1
    31     8    73    1
    32     9    10    1
    33     9    74    1
    34     9    75    1
    35    10    11    1
    36    10    19    1
    37    11    12    1
    38    11    76    1
    39    11    77    1
    40    12    13    1
    41    12    78    1
    42    12    79    1
    43    13    14    1
    44    13    80    1
    45    13    81    1
    46    14    15    1
    47    14    82    1
    48    14    83    1
    49    15    16    1
    50    15    84    1
    51    15    85    1
    52    16    17    1
    53    16    86    1
    54    16    87    1
    55    17    18    1
    56    17    88    1
    57    17    89    1
    58    18    90    1
    59    18    91    1
    60    18    92    1
    61    19    20    2
    62    19    21    1
    63    21    22    1
    64    21    93    1
    65    21    94    1
    66    22    23    1
    67    23    24    1
    68    23    95    1
    69    23    96    1
    70    24    25    2
    71    24    26    1
    72    26    27    1
    73    26    97    1
    74    27    28    1
    75    27    98    1
    76    27    99    1
    77    28    29    1
    78    28   100    1
    79    28   101    1
    80    29    30    1
    81    29   102    1
    82    29   103    1
    83    30    31    1
    84    30   104    1
    85    30   105    1
    86    31    32    1
    87    31   106    1
    88    31   107    1
    89    32    33    1
    90    32   108    1
    91    32   109    1
    92    33    34    1
    93    33   110    1
    94    33   111    1
    95    34    35    1
    96    34   112    1
    97    35    36    2
    98    35    37    1
    99    37    38    1
   100    37   113    1
   101    37   114    1
   102    38    39    1
   103    39    40    1
   104    39   115    1
   105    39   116    1
   106    40    41    2
   107    40    42    1
   108    42    43    1
   109    42    51    1
   110    43    44    1
   111    43   117    1
   112    43   118    1
   113    44    45    1
   114    44   119    1
   115    44   120    1
   116    45    46    1
   117    45   121    1
   118    45   122    1
   119    46    47    1
   120    46   123    1
   121    46   124    1
   122    47    48    1
   123    47   125    1
   124    47   126    1
   125    48    49    1
   126    48   127    1
   127    48   128    1
   128    49    50    1
   129    49   129    1
   130    49   130    1
   131    50   131    1
   132    50   132    1
   133    50   133    1
   134    51    52    1
   135    51   134    1
   136    51   135    1
   137    52    53    1
   138    52   136    1
   139    52   137    1
   140    53    54    1
   141    53   138    1
   142    53   139    1
   143    54    55    1
   144    54   140    1
   145    54   141    1
   146    55    56    1
   147    55   142    1
   148    55   143    1
   149    56    57    1
   150    56   144    1
   151    56   145    1
   152    57    58    1
   153    57   146    1
   154    57   147    1
   155    58   148    1
   156    58   149    1
   157    58   150    1
   158   151   152    1
   159   151   208    1
   160   151   209    1
   161   151   210    1
   162   152   153    1
   163   152   211    1
   164   152   212    1
   165   153   154    1
   166   153   213    1
   167   153   214    1
   168   154   155    1
   169   154   215    1
   170   154   216    1
   171   155   156    1
   172   155   217    1
   173   155   218    1
   174   156   157    1
   175   156   219    1
   176   156   220    1
   177   157   158    1
   178   157   221    1
   179   157   222    1
   180   158   159    1
   181   158   223    1
   182   158   224    1
   183   159   160    1
   184   159   168    1
   185   160   161    1
   186   160   225    1
   187   160   226    1
   188   161   162    1
   189   161   227    1
   190   161   228    1
   191   162   163    1
   192   162   229    1
   193   162   230    1
   194   163   164    1
   195   163   231    1
   196   163   232    1
   197   164   165    1
   198   164   233    1
   199   164   234    1
   200   165   166    1
   201   165   235    1
   202   165   236    1
   203   166   167    1
   204   166   237    1
   205   166   238    1
   206   167   239    1
   207   167   240    1
   208   167   241    1
   209   168   169    2
   210   168   170    1
   211   170   171    1
   212   170   242    1
   213   170   243    1
   214   171   172    1
   215   172   173    1
   216   172   244    1
   217   172   245    1
   218   173   174    2
   219   173   175    1
   220   175   176    1
   221   175   246    1
   222   176   177    1
   223   176   247    1
   224   176   248    1
   225   177   178    1
   226   177   249    1
   227   177   250    1
   228   178   179    1
   229   178   251    1
   230   178   252    1
   231   179   180    1
   232   179   253    1
   233   179   254    1
   234   180   181    1
   235   180   255    1
   236   180   256    1
   237   181   182    1
   238   181   257    1
   239   181   258    1
   240   182   183    1
   241   182   259    1
   242   182   260    1
   243   183   184    1
   244   183   261    1
   245   184   185    2
   246   184   186    1
   247   186   187    1
   248   186   262    1
   249   186   263    1
   250   187   188    1
   251   188   189    1
   252   188   264    1
   253   188   265    1
   254   189   190    2
   255   189   191    1
   256   191   192    1
   257   191   200    1
   258   192   193    1
   259   192   266    1
   260   192   267    1
   261   193   194    1
   262   193   268    1
   263   193   269    1
   264   194   195    1
   265   194   270    1
   266   194   271    1
   267   195   196    1
   268   195   272    1
   269   195   273    1
   270   196   197    1
   271   196   274    1
   272   196   275    1
   273   197   198    1
   274   197   276    1
   275   197   277    1
   276   198   199    1
   277   198   278    1
   278   198   279    1
   279   199   280    1
   280   199   281    1
   281   199   282    1
   282   200   201    1
   283   200   283    1
   284   200   284    1
   285   201   202    1
   286   201   285    1
   287   201   286    1
   288   202   203    1
   289   202   287    1
   290   202   288    1
   291   203   204    1
   292   203   289    1
   293   203   290    1
   294   204   205    1
   295   204   291    1
   296   204   292    1
   297   205   206    1
   298   205   293    1
   299   205   294    1
   300   206   207    1
   301   206   295    1
   302   206   296    1
   303   207   297    1
   304   207   298    1
   305   207   299    1
   306   300   301    1
   307   300   357    1
   308   300   358    1
   309   300   359    1
   310   301   302    1
   311   301   360    1
   312   301   361    1
   313   302   303    1
   314   302   362    1
   315   302   363    1
   316   303   304    1
   317   303   364    1
   318   303   365    1
   319   304   305    1
   320   304   366    1
   321   304   367    1
   322   305   306    1
   323   305   368    1
   324   305   369    1
   325   306   307    1
   326   306   370    1
   327   306   371    1
   328   307   308    1
   329   307   372    1
   330   307   373    1
   331   308   309    1
   332   308   317    1
   333   309   310    1
   334   309   374    1
   335   309   375    1
   336   310   311    1
   337   310   376    1
   338   310   377    1
   339   311   312    1
   340   311   378    1
   341   311   379    1
   342   312   313    1
   343   312   380    1
   344   312   381    1
   345   313   314    1
   346   313   382    1
   347   313   383    1
   348   314   315    1
   349   314   384    1
   350   314   385    1
   351   315   316    1
   352   315   386    1
   353   315   387    1
   354   316   388    1
   355   316   389    1
   356   316   390    1
   357   317   318    2
   358   317   319    1
   359   319   320    1
   360   319   391    1
   361   319   392    1
   362   320   321    1
   363   321   322    1
   364   321   393    1
   365   321   394    1
   366   322   323    2
   367   322   324    1
   368   324   325    1
   369   324   395    1
   370   325   326    1
   371   325   396    1
   372   325   397    1
   373   326   327    1
   374   326   398    1
   375   326   399    1
   376   327   328    1
   377   327   400    1
   378   327   401    1
   379   328   329    1
   380   328   402    1
   381   328   403    1
   382   329   330    1
   383   329   404    1
   384   329   405    1
   385   330   331    1
   386   330   406    1
   387   330   407    1
   388   331   332    1
   389   331   408    1
   390   331   409    1
   391   332   333    1
   392   332   410    1
   393   333   334    2
   394   333   335    1
   395   335   336    1
   396   335   411    1
   397   335   412    1
   398   336   337    1
   399   337   338    1
   400   337   413    1
   401   337   414    1
   402   338   339    2
   403   338   340    1
   404   340   341    1
   405   340   349    1
   406   341   342    1
   407   341   415    1
   408   341   416    1
   409   342   343    1
   410   342   417    1
   411   342   418    1
   412   343   344    1
   413   343   419    1
   414   343   420    1
   415   344   345    1
   416   344   421    1
   417   344   422    1
   418   345   346    1
   419   345   423    1
   420   345   424    1
   421   346   347    1
   422   346   425    1
   423   346   426    1
   424   347   348    1
   425   347   427    1
   426   347   428    1
   427   348   429    1
   428   348   430    1
   429   348   431    1
   430   349   350    1
   431   349   432    1
   432   349   433    1
   433   350   351    1
   434   350   434    1
   435   350   435    1
   436   351   352    1
   437   351   436    1
   438   351   437    1
   439   352   353    1
   440   352   438    1
   441   352   439    1
   442   353   354    1
   443   353   440    1
   444   353   441    1
   445   354   355    1
   446   354   442    1
   447   354   443    1
   448   355   356    1
   449   355   444    1
   450   355   445    1
   451   356   446    1
   452   356   447    1
   453   356   448    1
@<TRIPOS>SUBSTRUCTURE
     1 RES1      448 GROUP             0 ****  ****    0  
