@<TRIPOS>MOLECULE
am_c3_9H2O_c0_0_nunpairedes_0_charge_3 Charge: 3 Unpaired_Electrons: 6 XTB_Unpaired_Electrons: 0 XTB_Charge: 3
   151   165     1     0     0
SMALL
NoCharges
****
Generated from Architector

@<TRIPOS>ATOM
     1 Eu1       0.0805    0.0500   -0.0681   Eu        1 RES1   0.0000
     2 C1       -3.2781    4.9056   -1.5082   C.3       1 RES1   0.0000
     3 C2       -4.5045    4.5637   -2.3463   C.3       1 RES1   0.0000
     4 C3       -4.2185    3.8444   -3.6637   C.3       1 RES1   0.0000
     5 C4       -3.6643    2.4183   -3.5740   C.3       1 RES1   0.0000
     6 N1       -2.3689    2.2887   -2.9377   N.am      1 RES1   0.0000
     7 C5       -1.2583    2.9422   -3.6444   C.3       1 RES1   0.0000
     8 C6       -0.8898    2.3683   -5.0201   C.3       1 RES1   0.0000
     9 C7        0.2665    3.1464   -5.6649   C.3       1 RES1   0.0000
    10 C8        0.6661    2.5753   -7.0213   C.3       1 RES1   0.0000
    11 C9       -2.0758    1.5801   -1.8475   C.2       1 RES1   0.0000
    12 O1       -0.8741    1.3807   -1.5644   O.2       1 RES1   0.0000
    13 C10      -3.0415    0.9724   -0.8329   C.ar      1 RES1   0.0000
    14 C11      -4.4171    1.1896   -0.6421   C.ar      1 RES1   0.0000
    15 C12      -5.0892    0.4991    0.3445   C.ar      1 RES1   0.0000
    16 C13      -4.4029   -0.4067    1.1729   C.ar      1 RES1   0.0000
    17 C14      -5.0314   -1.1932    2.1851   C.ar      1 RES1   0.0000
    18 C15      -4.3187   -2.0527    2.9564   C.ar      1 RES1   0.0000
    19 C16      -2.9087   -2.1873    2.7985   C.ar      1 RES1   0.0000
    20 C17      -2.1480   -3.0615    3.5973   C.ar      1 RES1   0.0000
    21 C18      -0.7907   -3.1079    3.3959   C.ar      1 RES1   0.0000
    22 C19      -0.2255   -2.2905    2.4189   C.ar      1 RES1   0.0000
    23 N2       -0.9060   -1.4745    1.6378   N.ar      1 RES1   0.0000
    24 C20      -2.2449   -1.4183    1.8116   C.ar      1 RES1   0.0000
    25 C21      -3.0088   -0.5263    0.9604   C.ar      1 RES1   0.0000
    26 N3       -2.3789    0.1535   -0.0055   N.ar      1 RES1   0.0000
    27 H1       -3.5840    5.5012   -0.6542   H         1 RES1   0.0000
    28 H2       -2.5705    5.4949   -2.0840   H         1 RES1   0.0000
    29 H3       -2.7679    4.0232   -1.1302   H         1 RES1   0.0000
    30 H4       -4.9990    5.4967   -2.6150   H         1 RES1   0.0000
    31 H5       -5.2147    3.9909   -1.7480   H         1 RES1   0.0000
    32 H6       -3.5484    4.4569   -4.2686   H         1 RES1   0.0000
    33 H7       -5.1551    3.7530   -4.2170   H         1 RES1   0.0000
    34 H8       -3.5360    2.0540   -4.5988   H         1 RES1   0.0000
    35 H9       -4.3542    1.7524   -3.0646   H         1 RES1   0.0000
    36 H10      -0.3904    2.8824   -2.9852   H         1 RES1   0.0000
    37 H11      -1.5367    3.9887   -3.7683   H         1 RES1   0.0000
    38 H12      -1.7428    2.4272   -5.6967   H         1 RES1   0.0000
    39 H13      -0.6082    1.3197   -4.9134   H         1 RES1   0.0000
    40 H14       1.1300    3.1412   -4.9956   H         1 RES1   0.0000
    41 H15      -0.0290    4.1870   -5.8035   H         1 RES1   0.0000
    42 H16       1.0173    1.5514   -6.9378   H         1 RES1   0.0000
    43 H17       1.4625    3.1669   -7.4608   H         1 RES1   0.0000
    44 H18      -0.1694    2.5866   -7.7128   H         1 RES1   0.0000
    45 H19      -4.9639    1.8910   -1.2408   H         1 RES1   0.0000
    46 H20      -6.1524    0.6299    0.4914   H         1 RES1   0.0000
    47 H21      -6.0969   -1.1025    2.3223   H         1 RES1   0.0000
    48 H22      -4.7929   -2.6624    3.7127   H         1 RES1   0.0000
    49 H23      -2.6363   -3.6773    4.3397   H         1 RES1   0.0000
    50 H24      -0.1558   -3.7563    3.9718   H         1 RES1   0.0000
    51 H25       0.8433   -2.3156    2.2685   H         1 RES1   0.0000
    52 C22       5.6986    1.1229    1.3715   C.3       1 RES1   0.0000
    53 C23       6.3847   -0.0883    1.9920   C.3       1 RES1   0.0000
    54 C24       5.8345   -0.5089    3.3540   C.3       1 RES1   0.0000
    55 C25       4.4477   -1.1718    3.3736   C.3       1 RES1   0.0000
    56 N4        3.3659   -0.3629    2.8422   N.am      1 RES1   0.0000
    57 C26       2.9973    0.7781    3.6953   C.3       1 RES1   0.0000
    58 C27       1.7137    0.5380    4.5030   C.3       1 RES1   0.0000
    59 C28       1.3494    1.7108    5.4202   C.3       1 RES1   0.0000
    60 C29       0.1097    1.3961    6.2467   C.3       1 RES1   0.0000
    61 C30       2.6323   -0.5788    1.7518   C.2       1 RES1   0.0000
    62 O2        1.7105    0.2296    1.4903   O.2       1 RES1   0.0000
    63 C31       2.7353   -1.7388    0.7639   C.ar      1 RES1   0.0000
    64 C32       3.7942   -2.6293    0.5130   C.ar      1 RES1   0.0000
    65 C33       3.6118   -3.6554   -0.3887   C.ar      1 RES1   0.0000
    66 C34       2.4059   -3.7790   -1.0994   C.ar      1 RES1   0.0000
    67 C35       2.1341   -4.8458   -2.0068   C.ar      1 RES1   0.0000
    68 C36       0.9540   -4.9155   -2.6741   C.ar      1 RES1   0.0000
    69 C37      -0.0453   -3.9111   -2.5121   C.ar      1 RES1   0.0000
    70 C38      -1.2649   -3.9697   -3.2124   C.ar      1 RES1   0.0000
    71 C39      -2.1712   -2.9543   -3.0307   C.ar      1 RES1   0.0000
    72 C40      -1.8455   -1.9197   -2.1554   C.ar      1 RES1   0.0000
    73 N5       -0.7346   -1.8566   -1.4459   N.ar      1 RES1   0.0000
    74 C41       0.1781   -2.8385   -1.6143   C.ar      1 RES1   0.0000
    75 C42       1.4189   -2.7914   -0.8596   C.ar      1 RES1   0.0000
    76 N6        1.6010   -1.8396    0.0645   N.ar      1 RES1   0.0000
    77 H26       6.2494    1.4348    0.4902   H         1 RES1   0.0000
    78 H27       5.6903    1.9552    2.0689   H         1 RES1   0.0000
    79 H28       4.6763    0.9122    1.0689   H         1 RES1   0.0000
    80 H29       7.4328    0.1663    2.1502   H         1 RES1   0.0000
    81 H30       6.3611   -0.9316    1.2988   H         1 RES1   0.0000
    82 H31       5.8414    0.3572    4.0182   H         1 RES1   0.0000
    83 H32       6.5115   -1.2483    3.7870   H         1 RES1   0.0000
    84 H33       4.1990   -1.3794    4.4202   H         1 RES1   0.0000
    85 H34       4.4646   -2.1147    2.8372   H         1 RES1   0.0000
    86 H35       2.8744    1.6688    3.0728   H         1 RES1   0.0000
    87 H36       3.8297    0.9318    4.3796   H         1 RES1   0.0000
    88 H37       1.8432   -0.3547    5.1183   H         1 RES1   0.0000
    89 H38       0.8910    0.3590    3.8057   H         1 RES1   0.0000
    90 H39       1.1758    2.6087    4.8235   H         1 RES1   0.0000
    91 H40       2.1779    1.9249    6.0944   H         1 RES1   0.0000
    92 H41      -0.7349    1.1619    5.6060   H         1 RES1   0.0000
    93 H42      -0.1583    2.2411    6.8704   H         1 RES1   0.0000
    94 H43       0.2858    0.5479    6.8987   H         1 RES1   0.0000
    95 H44       4.7438   -2.5360    1.0019   H         1 RES1   0.0000
    96 H45       4.3804   -4.3979   -0.5458   H         1 RES1   0.0000
    97 H46       2.8772   -5.6177   -2.1319   H         1 RES1   0.0000
    98 H47       0.7315   -5.7356   -3.3431   H         1 RES1   0.0000
    99 H48      -1.4661   -4.8068   -3.8650   H         1 RES1   0.0000
   100 H49      -3.1172   -2.9446   -3.5395   H         1 RES1   0.0000
   101 H50      -2.5451   -1.1063   -2.0299   H         1 RES1   0.0000
   102 C43       5.3816   -0.3532   -1.9602   C.3       1 RES1   0.0000
   103 C44       5.7948    0.8998   -2.7246   C.3       1 RES1   0.0000
   104 C45       5.1703    1.0442   -4.1134   C.3       1 RES1   0.0000
   105 C46       3.6845    1.4317   -4.1879   C.3       1 RES1   0.0000
   106 N7        2.7944    0.5613   -3.4463   N.am      1 RES1   0.0000
   107 C47       2.6139   -0.7612   -4.0725   C.3       1 RES1   0.0000
   108 C48       1.2546   -0.9643   -4.7557   C.3       1 RES1   0.0000
   109 C49       1.1707   -2.2733   -5.5506   C.3       1 RES1   0.0000
   110 C50      -0.1611   -2.3903   -6.2805   C.3       1 RES1   0.0000
   111 C51       2.1548    0.8068   -2.2985   C.2       1 RES1   0.0000
   112 O3        1.4161   -0.0949   -1.8531   O.2       1 RES1   0.0000
   113 C52       2.2252    2.0683   -1.4313   C.ar      1 RES1   0.0000
   114 C53       3.0822    3.1800   -1.5306   C.ar      1 RES1   0.0000
   115 C54       2.9261    4.2378   -0.6631   C.ar      1 RES1   0.0000
   116 C55       1.9402    4.2089    0.3364   C.ar      1 RES1   0.0000
   117 C56       1.7134    5.2918    1.2357   C.ar      1 RES1   0.0000
   118 C57       0.7694    5.2089    2.2080   C.ar      1 RES1   0.0000
   119 C58      -0.0140    4.0286    2.3699   C.ar      1 RES1   0.0000
   120 C59      -0.9724    3.9322    3.3973   C.ar      1 RES1   0.0000
   121 C60      -1.6653    2.7546    3.5385   C.ar      1 RES1   0.0000
   122 C61      -1.3958    1.7183    2.6458   C.ar      1 RES1   0.0000
   123 N8       -0.5453    1.7918    1.6380   N.ar      1 RES1   0.0000
   124 C62       0.1700    2.9300    1.4913   C.ar      1 RES1   0.0000
   125 C63       1.1617    3.0283    0.4283   C.ar      1 RES1   0.0000
   126 N9        1.3316    2.0227   -0.4420   N.ar      1 RES1   0.0000
   127 H51       5.9972   -0.4459   -1.0724   H         1 RES1   0.0000
   128 H52       5.5367   -1.2405   -2.5670   H         1 RES1   0.0000
   129 H53       4.3430   -0.3247   -1.6404   H         1 RES1   0.0000
   130 H54       6.8714    0.8472   -2.8876   H         1 RES1   0.0000
   131 H55       5.6014    1.7848   -2.1156   H         1 RES1   0.0000
   132 H56       5.3264    0.1120   -4.6601   H         1 RES1   0.0000
   133 H57       5.7031    1.8299   -4.6533   H         1 RES1   0.0000
   134 H58       3.3815    1.3752   -5.2387   H         1 RES1   0.0000
   135 H59       3.5243    2.4515   -3.8576   H         1 RES1   0.0000
   136 H60       2.7585   -1.5376   -3.3158   H         1 RES1   0.0000
   137 H61       3.3998   -0.8495   -4.8222   H         1 RES1   0.0000
   138 H62       1.0864   -0.1371   -5.4470   H         1 RES1   0.0000
   139 H63       0.4680   -0.9456   -3.9970   H         1 RES1   0.0000
   140 H64       1.3020   -3.1269   -4.8828   H         1 RES1   0.0000
   141 H65       1.9777   -2.3106   -6.2823   H         1 RES1   0.0000
   142 H66      -0.9935   -2.3713   -5.5837   H         1 RES1   0.0000
   143 H67      -0.2102   -3.3166   -6.8411   H         1 RES1   0.0000
   144 H68      -0.2868   -1.5741   -6.9835   H         1 RES1   0.0000
   145 H69       3.8692    3.2270   -2.2537   H         1 RES1   0.0000
   146 H70       3.5550    5.1122   -0.7372   H         1 RES1   0.0000
   147 H71       2.3071    6.1858    1.1221   H         1 RES1   0.0000
   148 H72       0.5859    6.0282    2.8901   H         1 RES1   0.0000
   149 H73      -1.1385    4.7771    4.0508   H         1 RES1   0.0000
   150 H74      -2.3973    2.6226    4.3142   H         1 RES1   0.0000
   151 H75      -1.9106    0.7758    2.7740   H         1 RES1   0.0000
@<TRIPOS>BOND
     1     1    12    1
     2     1    23    1
     3     1    26    1
     4     1    62    1
     5     1    73    1
     6     1    76    1
     7     1   112    1
     8     1   123    1
     9     1   126    1
    10     2     3    1
    11     2    27    1
    12     2    28    1
    13     2    29    1
    14     3     4    1
    15     3    30    1
    16     3    31    1
    17     4     5    1
    18     4    32    1
    19     4    33    1
    20     5     6    1
    21     5    34    1
    22     5    35    1
    23     6     7    1
    24     6    11    1
    25     7     8    1
    26     7    36    1
    27     7    37    1
    28     8     9    1
    29     8    38    1
    30     8    39    1
    31     9    10    1
    32     9    40    1
    33     9    41    1
    34    10    42    1
    35    10    43    1
    36    10    44    1
    37    11    12    2
    38    11    13    1
    39    13    14    1
    40    13    26    2
    41    14    15    2
    42    14    45    1
    43    15    16    1
    44    15    46    1
    45    16    17    1
    46    16    25    2
    47    17    18    2
    48    17    47    1
    49    18    19    1
    50    18    48    1
    51    19    20    1
    52    19    24    2
    53    20    21    2
    54    20    49    1
    55    21    22    1
    56    21    50    1
    57    22    23    2
    58    22    51    1
    59    23    24    1
    60    24    25    1
    61    25    26    1
    62    52    53    1
    63    52    77    1
    64    52    78    1
    65    52    79    1
    66    53    54    1
    67    53    80    1
    68    53    81    1
    69    54    55    1
    70    54    82    1
    71    54    83    1
    72    55    56    1
    73    55    84    1
    74    55    85    1
    75    56    57    1
    76    56    61    1
    77    57    58    1
    78    57    86    1
    79    57    87    1
    80    58    59    1
    81    58    88    1
    82    58    89    1
    83    59    60    1
    84    59    90    1
    85    59    91    1
    86    60    92    1
    87    60    93    1
    88    60    94    1
    89    61    62    2
    90    61    63    1
    91    63    64    1
    92    63    76    2
    93    64    65    2
    94    64    95    1
    95    65    66    1
    96    65    96    1
    97    66    67    1
    98    66    75    2
    99    67    68    2
   100    67    97    1
   101    68    69    1
   102    68    98    1
   103    69    70    1
   104    69    74    2
   105    70    71    2
   106    70    99    1
   107    71    72    1
   108    71   100    1
   109    72    73    2
   110    72   101    1
   111    73    74    1
   112    74    75    1
   113    75    76    1
   114   102   103    1
   115   102   127    1
   116   102   128    1
   117   102   129    1
   118   103   104    1
   119   103   130    1
   120   103   131    1
   121   104   105    1
   122   104   132    1
   123   104   133    1
   124   105   106    1
   125   105   134    1
   126   105   135    1
   127   106   107    1
   128   106   111    1
   129   107   108    1
   130   107   136    1
   131   107   137    1
   132   108   109    1
   133   108   138    1
   134   108   139    1
   135   109   110    1
   136   109   140    1
   137   109   141    1
   138   110   142    1
   139   110   143    1
   140   110   144    1
   141   111   112    2
   142   111   113    1
   143   113   114    1
   144   113   126    2
   145   114   115    2
   146   114   145    1
   147   115   116    1
   148   115   146    1
   149   116   117    1
   150   116   125    2
   151   117   118    2
   152   117   147    1
   153   118   119    1
   154   118   148    1
   155   119   120    1
   156   119   124    2
   157   120   121    2
   158   120   149    1
   159   121   122    1
   160   121   150    1
   161   122   123    2
   162   122   151    1
   163   123   124    1
   164   124   125    1
   165   125   126    1
@<TRIPOS>SUBSTRUCTURE
     1 RES1      151 GROUP             0 ****  ****    0  
