@<TRIPOS>MOLECULE
capped_square_antiprismatic_0_nunpairedes_0_charge_3 Charge: 3 Unpaired_Electrons: 6 XTB_Unpaired_Electrons: 0 XTB_Charge: 3
   442   447     1     0     0
SMALL
NoCharges
****
Generated from Architector

@<TRIPOS>ATOM
     1 Eu1      -0.2715    0.1029    0.7108   Eu        1 RES1   0.0000
     2 C1       -7.5385   -2.3575    6.5224   C.3       1 RES1   0.0000
     3 C2       -6.6012   -3.5196    6.2248   C.3       1 RES1   0.0000
     4 C3       -5.1524   -3.0606    6.0831   C.3       1 RES1   0.0000
     5 C4       -4.2000   -4.2235    5.8153   C.3       1 RES1   0.0000
     6 C5       -2.7624   -3.7345    5.6681   C.3       1 RES1   0.0000
     7 C6       -1.8080   -4.8607    5.2822   C.3       1 RES1   0.0000
     8 C7       -0.3328   -4.4357    5.2235   C.3       1 RES1   0.0000
     9 C8       -0.1435   -3.1810    4.3740   C.3       1 RES1   0.0000
    10 N1        1.2338   -2.6961    4.1950   N.am      1 RES1   0.0000
    11 C9        2.2748   -3.1231    5.1149   C.3       1 RES1   0.0000
    12 C10       2.4545   -2.2758    6.3954   C.3       1 RES1   0.0000
    13 C11       1.1810   -1.6614    6.9929   C.3       1 RES1   0.0000
    14 C12       0.8042   -0.3445    6.2964   C.3       1 RES1   0.0000
    15 C13      -0.6995   -0.0749    6.1117   C.3       1 RES1   0.0000
    16 C14      -0.9451    0.6526    4.7808   C.3       1 RES1   0.0000
    17 C15      -2.4085    0.7083    4.3489   C.3       1 RES1   0.0000
    18 C16      -2.5254    1.0885    2.8749   C.3       1 RES1   0.0000
    19 C17       1.3758   -1.7632    3.2535   C.2       1 RES1   0.0000
    20 O1        0.3983   -1.3627    2.5842   O.2       1 RES1   0.0000
    21 C18       2.7393   -1.1693    2.9321   C.3       1 RES1   0.0000
    22 O2        2.6813   -0.7564    1.5767   O.3       1 RES1   0.0000
    23 C19       3.6194    0.2476    1.2025   C.3       1 RES1   0.0000
    24 C20       2.8869    1.1410    0.2298   C.2       1 RES1   0.0000
    25 O3        1.6429    1.0839    0.2215   O.2       1 RES1   0.0000
    26 N2        3.5009    1.9443   -0.6211   N.am      1 RES1   0.0000
    27 C21       4.9152    2.1476   -0.8473   C.3       1 RES1   0.0000
    28 C22       5.1914    3.2113   -1.9307   C.3       1 RES1   0.0000
    29 C23       4.0772    3.5659   -2.9374   C.3       1 RES1   0.0000
    30 O4        3.1968    2.4895   -3.2547   O.3       1 RES1   0.0000
    31 C24       2.1876    2.8865   -4.1805   C.3       1 RES1   0.0000
    32 C25       1.5042    1.6611   -4.7742   C.3       1 RES1   0.0000
    33 C26       0.4970    2.0382   -5.8718   C.3       1 RES1   0.0000
    34 N3       -0.8345    2.3752   -5.4005   N.am      1 RES1   0.0000
    35 C27      -1.4745    3.5244   -5.7638   C.2       1 RES1   0.0000
    36 O5       -0.9196    4.4623   -6.2751   O.2       1 RES1   0.0000
    37 C28      -2.9744    3.5323   -5.4276   C.3       1 RES1   0.0000
    38 O6       -3.1619    3.4091   -4.0104   O.3       1 RES1   0.0000
    39 C29      -4.0967    4.3108   -3.4092   C.3       1 RES1   0.0000
    40 C30      -3.6695    5.7838   -3.5641   C.2       1 RES1   0.0000
    41 O7       -3.8396    6.2988   -4.6495   O.2       1 RES1   0.0000
    42 N4       -3.0726    6.4108   -2.5191   N.am      1 RES1   0.0000
    43 C31      -3.2125    5.8854   -1.1551   C.3       1 RES1   0.0000
    44 C32      -2.9194    6.7980    0.0449   C.3       1 RES1   0.0000
    45 C33      -3.1749    6.0077    1.3374   C.3       1 RES1   0.0000
    46 C34      -2.9105    6.7925    2.6344   C.3       1 RES1   0.0000
    47 C35      -1.5214    6.5706    3.2607   C.3       1 RES1   0.0000
    48 C36      -0.5009    7.6902    3.0380   C.3       1 RES1   0.0000
    49 C37       0.6660    7.5640    4.0233   C.3       1 RES1   0.0000
    50 C38       1.8404    8.4782    3.6942   C.3       1 RES1   0.0000
    51 C39      -2.6471    7.8014   -2.7173   C.3       1 RES1   0.0000
    52 C40      -1.8621    8.1165   -3.9995   C.3       1 RES1   0.0000
    53 C41      -0.6579    7.2187   -4.2909   C.3       1 RES1   0.0000
    54 C42       0.3355    7.9307   -5.2157   C.3       1 RES1   0.0000
    55 C43       1.6743    7.2062   -5.4304   C.3       1 RES1   0.0000
    56 C44       1.7144    6.2431   -6.6175   C.3       1 RES1   0.0000
    57 C45       3.1420    5.7697   -6.8982   C.3       1 RES1   0.0000
    58 C46       3.2064    4.7062   -7.9879   C.3       1 RES1   0.0000
    59 H1       -8.5588   -2.7149    6.6153   H         1 RES1   0.0000
    60 H2       -7.5059   -1.6184    5.7254   H         1 RES1   0.0000
    61 H3       -7.2631   -1.8715    7.4544   H         1 RES1   0.0000
    62 H4       -6.9156   -4.0169    5.3036   H         1 RES1   0.0000
    63 H5       -6.6645   -4.2492    7.0332   H         1 RES1   0.0000
    64 H6       -4.8417   -2.5515    6.9987   H         1 RES1   0.0000
    65 H7       -5.0788   -2.3378    5.2643   H         1 RES1   0.0000
    66 H8       -4.5041   -4.7443    4.9030   H         1 RES1   0.0000
    67 H9       -4.2569   -4.9400    6.6348   H         1 RES1   0.0000
    68 H10      -2.4338   -3.2925    6.6110   H         1 RES1   0.0000
    69 H11      -2.7460   -2.9578    4.9001   H         1 RES1   0.0000
    70 H12      -2.1086   -5.2757    4.3209   H         1 RES1   0.0000
    71 H13      -1.8883   -5.6638    6.0163   H         1 RES1   0.0000
    72 H14       0.2451   -5.2677    4.8106   H         1 RES1   0.0000
    73 H15      -0.0011   -4.2666    6.2492   H         1 RES1   0.0000
    74 H16      -0.7179   -2.3596    4.8020   H         1 RES1   0.0000
    75 H17      -0.5425   -3.3605    3.3694   H         1 RES1   0.0000
    76 H18       3.2324   -3.1396    4.5904   H         1 RES1   0.0000
    77 H19       2.0512   -4.1508    5.3953   H         1 RES1   0.0000
    78 H20       3.1671   -1.4714    6.2014   H         1 RES1   0.0000
    79 H21       2.9131   -2.9449    7.1255   H         1 RES1   0.0000
    80 H22       1.3589   -1.4691    8.0531   H         1 RES1   0.0000
    81 H23       0.3643   -2.3770    6.9316   H         1 RES1   0.0000
    82 H24       1.2597   -0.3355    5.3062   H         1 RES1   0.0000
    83 H25       1.2555    0.4776    6.8527   H         1 RES1   0.0000
    84 H26      -1.0854    0.5213    6.9419   H         1 RES1   0.0000
    85 H27      -1.2618   -1.0128    6.1306   H         1 RES1   0.0000
    86 H28      -0.3844    0.1502    3.9809   H         1 RES1   0.0000
    87 H29      -0.5450    1.6638    4.8469   H         1 RES1   0.0000
    88 H30      -2.9452    1.4383    4.9556   H         1 RES1   0.0000
    89 H31      -2.8782   -0.2637    4.5114   H         1 RES1   0.0000
    90 H32      -2.0589    2.0587    2.7062   H         1 RES1   0.0000
    91 H33      -3.5673    1.1537    2.5750   H         1 RES1   0.0000
    92 H34      -2.0317    0.3142    2.2444   H         1 RES1   0.0000
    93 H35       3.5429   -1.9015    3.0795   H         1 RES1   0.0000
    94 H36       2.9156   -0.2928    3.5691   H         1 RES1   0.0000
    95 H37       4.5036   -0.2107    0.7381   H         1 RES1   0.0000
    96 H38       3.9549    0.8360    2.0657   H         1 RES1   0.0000
    97 H39       2.8990    2.3166   -1.3513   H         1 RES1   0.0000
    98 H40       5.3864    1.1969   -1.1170   H         1 RES1   0.0000
    99 H41       5.3725    2.4464    0.0962   H         1 RES1   0.0000
   100 H42       6.0698    2.8909   -2.4884   H         1 RES1   0.0000
   101 H43       5.4604    4.1473   -1.4435   H         1 RES1   0.0000
   102 H44       4.5560    3.9083   -3.8633   H         1 RES1   0.0000
   103 H45       3.4767    4.4102   -2.5615   H         1 RES1   0.0000
   104 H46       2.6487    3.4669   -4.9873   H         1 RES1   0.0000
   105 H47       1.4586    3.5325   -3.6691   H         1 RES1   0.0000
   106 H48       1.0222    1.0804   -3.9873   H         1 RES1   0.0000
   107 H49       2.2743    1.0415   -5.2365   H         1 RES1   0.0000
   108 H50       0.4080    1.1972   -6.5651   H         1 RES1   0.0000
   109 H51       0.8581    2.9035   -6.4303   H         1 RES1   0.0000
   110 H52      -1.4226    1.5875   -5.1824   H         1 RES1   0.0000
   111 H53      -3.4610    2.6783   -5.9211   H         1 RES1   0.0000
   112 H54      -3.3956    4.4652   -5.8101   H         1 RES1   0.0000
   113 H55      -4.1645    3.9826   -2.3733   H         1 RES1   0.0000
   114 H56      -5.0779    4.2091   -3.8905   H         1 RES1   0.0000
   115 H57      -2.5624    5.0027   -1.0611   H         1 RES1   0.0000
   116 H58      -4.2476    5.5506   -1.0156   H         1 RES1   0.0000
   117 H59      -3.5834    7.6609    0.0230   H         1 RES1   0.0000
   118 H60      -1.8915    7.1563    0.0442   H         1 RES1   0.0000
   119 H61      -2.5593    5.1018    1.3407   H         1 RES1   0.0000
   120 H62      -4.2172    5.6789    1.3308   H         1 RES1   0.0000
   121 H63      -3.6601    6.4816    3.3640   H         1 RES1   0.0000
   122 H64      -3.0763    7.8564    2.4614   H         1 RES1   0.0000
   123 H65      -1.1006    5.6241    2.9047   H         1 RES1   0.0000
   124 H66      -1.6445    6.4621    4.3378   H         1 RES1   0.0000
   125 H67      -0.9769    8.6622    3.1781   H         1 RES1   0.0000
   126 H68      -0.1233    7.6642    2.0169   H         1 RES1   0.0000
   127 H69       1.0110    6.5242    4.0548   H         1 RES1   0.0000
   128 H70       0.2964    7.8200    5.0161   H         1 RES1   0.0000
   129 H71       2.2961    8.2098    2.7436   H         1 RES1   0.0000
   130 H72       2.6003    8.4137    4.4688   H         1 RES1   0.0000
   131 H73       1.5171    9.5133    3.6367   H         1 RES1   0.0000
   132 H74      -2.0312    8.0697   -1.8598   H         1 RES1   0.0000
   133 H75      -3.5381    8.4369   -2.7106   H         1 RES1   0.0000
   134 H76      -1.5129    9.1433   -3.8694   H         1 RES1   0.0000
   135 H77      -2.5281    8.1002   -4.8592   H         1 RES1   0.0000
   136 H78      -0.9904    6.2964   -4.7644   H         1 RES1   0.0000
   137 H79      -0.1563    6.9643   -3.3540   H         1 RES1   0.0000
   138 H80       0.5452    8.9185   -4.7934   H         1 RES1   0.0000
   139 H81      -0.1423    8.0828   -6.1822   H         1 RES1   0.0000
   140 H82       1.9514    6.6624   -4.5213   H         1 RES1   0.0000
   141 H83       2.4427    7.9644   -5.6012   H         1 RES1   0.0000
   142 H84       1.3358    6.7496   -7.5054   H         1 RES1   0.0000
   143 H85       1.0629    5.3914   -6.4329   H         1 RES1   0.0000
   144 H86       3.5903    5.3791   -5.9776   H         1 RES1   0.0000
   145 H87       3.7435    6.6267   -7.2072   H         1 RES1   0.0000
   146 H88       2.6810    3.8005   -7.6886   H         1 RES1   0.0000
   147 H89       4.2377    4.4438   -8.2087   H         1 RES1   0.0000
   148 H90       2.7484    5.0737   -8.9010   H         1 RES1   0.0000
   149 C47       3.7247  -10.4604   -0.3545   C.3       1 RES1   0.0000
   150 C48       2.6640  -11.1479    0.4961   C.3       1 RES1   0.0000
   151 C49       1.2299  -10.7178    0.1674   C.3       1 RES1   0.0000
   152 C50       0.8531   -9.3823    0.8105   C.3       1 RES1   0.0000
   153 C51      -0.5518   -8.8907    0.4410   C.3       1 RES1   0.0000
   154 C52      -0.9536   -7.6971    1.3244   C.3       1 RES1   0.0000
   155 C53      -1.4751   -6.4646    0.5745   C.3       1 RES1   0.0000
   156 C54      -1.6442   -5.3760    1.6389   C.3       1 RES1   0.0000
   157 N5       -2.1114   -4.0425    1.2878   N.am      1 RES1   0.0000
   158 C55      -3.5152   -3.7293    1.5440   C.3       1 RES1   0.0000
   159 C56      -4.4192   -4.0976    0.3648   C.3       1 RES1   0.0000
   160 C57      -4.2700   -3.1366   -0.8184   C.3       1 RES1   0.0000
   161 C58      -3.0930   -3.4241   -1.7607   C.3       1 RES1   0.0000
   162 C59      -2.7036   -2.1364   -2.4911   C.3       1 RES1   0.0000
   163 C60      -1.5754   -2.2766   -3.5152   C.3       1 RES1   0.0000
   164 C61      -1.7016   -1.2492   -4.6379   C.3       1 RES1   0.0000
   165 C62      -0.6560   -1.4325   -5.7288   C.3       1 RES1   0.0000
   166 C63      -1.3162   -3.0623    0.8805   C.2       1 RES1   0.0000
   167 O8       -1.6639   -1.8687    0.8420   O.2       1 RES1   0.0000
   168 C64       0.0807   -3.4238    0.3647   C.3       1 RES1   0.0000
   169 O9        0.6455   -2.2069   -0.0753   O.3       1 RES1   0.0000
   170 C65       1.7955   -2.3484   -0.8845   C.3       1 RES1   0.0000
   171 C66       1.8796   -1.0445   -1.6734   C.2       1 RES1   0.0000
   172 O10       0.8623   -0.3478   -1.7559   O.2       1 RES1   0.0000
   173 N6        3.0311   -0.7421   -2.2600   N.am      1 RES1   0.0000
   174 C67       4.2648   -1.5072   -2.1617   C.3       1 RES1   0.0000
   175 C68       5.3806   -0.8850   -2.9998   C.3       1 RES1   0.0000
   176 C69       6.7518   -1.3955   -2.5450   C.3       1 RES1   0.0000
   177 O11       6.9044   -1.1693   -1.1575   O.3       1 RES1   0.0000
   178 C70       8.1083   -1.7029   -0.6292   C.3       1 RES1   0.0000
   179 C71       8.0819   -1.5462    0.8884   C.3       1 RES1   0.0000
   180 C72       8.4271   -0.1322    1.3720   C.3       1 RES1   0.0000
   181 N7        7.8421    0.0976    2.6791   N.am      1 RES1   0.0000
   182 C73       6.6776    0.7430    2.8293   C.2       1 RES1   0.0000
   183 O12       6.1285    1.3709    1.9439   O.2       1 RES1   0.0000
   184 C74       6.0772    0.6328    4.2342   C.3       1 RES1   0.0000
   185 O13       4.7300    1.0393    4.1937   O.3       1 RES1   0.0000
   186 C75       4.2325    1.4269    5.4587   C.3       1 RES1   0.0000
   187 C76       2.8690    2.0990    5.2662   C.2       1 RES1   0.0000
   188 O14       2.2010    1.8370    4.2728   O.2       1 RES1   0.0000
   189 N8        2.4701    2.9407    6.2358   N.am      1 RES1   0.0000
   190 C77       3.2864    3.3372    7.3730   C.3       1 RES1   0.0000
   191 C78       4.1065    4.6031    7.0728   C.3       1 RES1   0.0000
   192 C79       5.3428    4.7150    7.9683   C.3       1 RES1   0.0000
   193 C80       6.5542    3.9677    7.4048   C.3       1 RES1   0.0000
   194 C81       7.2501    4.7583    6.2953   C.3       1 RES1   0.0000
   195 C82       8.3240    3.9445    5.5757   C.3       1 RES1   0.0000
   196 C83       9.1300    4.7861    4.5891   C.3       1 RES1   0.0000
   197 C84      10.2593    3.9769    3.9655   C.3       1 RES1   0.0000
   198 C85       1.2540    3.7241    6.0432   C.3       1 RES1   0.0000
   199 C86       0.2009    3.4929    7.1269   C.3       1 RES1   0.0000
   200 C87      -1.0994    4.2563    6.8628   C.3       1 RES1   0.0000
   201 C88      -1.0274    5.7452    7.2060   C.3       1 RES1   0.0000
   202 C89      -2.4205    6.3744    7.1892   C.3       1 RES1   0.0000
   203 C90      -2.4065    7.8955    7.4223   C.3       1 RES1   0.0000
   204 C91      -3.0186    8.6607    6.2490   C.3       1 RES1   0.0000
   205 C92      -3.0800   10.1603    6.5077   C.3       1 RES1   0.0000
   206 H91       4.7146  -10.7703   -0.0319   H         1 RES1   0.0000
   207 H92       3.6665   -9.3784   -0.2711   H         1 RES1   0.0000
   208 H93       3.6091  -10.7346   -1.4002   H         1 RES1   0.0000
   209 H94       2.8575  -10.9549    1.5533   H         1 RES1   0.0000
   210 H95       2.7513  -12.2233    0.3424   H         1 RES1   0.0000
   211 H96       0.5431  -11.4819    0.5373   H         1 RES1   0.0000
   212 H97       1.1052  -10.6605   -0.9151   H         1 RES1   0.0000
   213 H98       1.5813   -8.6184    0.5265   H         1 RES1   0.0000
   214 H99       0.9066   -9.4997    1.8961   H         1 RES1   0.0000
   215 H100     -1.2642   -9.7060    0.5670   H         1 RES1   0.0000
   216 H101     -0.5789   -8.6145   -0.6147   H         1 RES1   0.0000
   217 H102     -0.0803   -7.3912    1.9083   H         1 RES1   0.0000
   218 H103     -1.7152   -8.0097    2.0404   H         1 RES1   0.0000
   219 H104     -2.4206   -6.6944    0.0886   H         1 RES1   0.0000
   220 H105     -0.7668   -6.1705   -0.2005   H         1 RES1   0.0000
   221 H106     -0.6836   -5.2731    2.1539   H         1 RES1   0.0000
   222 H107     -2.3635   -5.7602    2.3639   H         1 RES1   0.0000
   223 H108     -3.5829   -2.6543    1.7287   H         1 RES1   0.0000
   224 H109     -3.8364   -4.2593    2.4413   H         1 RES1   0.0000
   225 H110     -5.4481   -4.0435    0.7224   H         1 RES1   0.0000
   226 H111     -4.2349   -5.1252    0.0500   H         1 RES1   0.0000
   227 H112     -4.1571   -2.1266   -0.4156   H         1 RES1   0.0000
   228 H113     -5.1877   -3.1574   -1.4089   H         1 RES1   0.0000
   229 H114     -3.3693   -4.2065   -2.4688   H         1 RES1   0.0000
   230 H115     -2.2369   -3.7968   -1.2041   H         1 RES1   0.0000
   231 H116     -2.4099   -1.4024   -1.7340   H         1 RES1   0.0000
   232 H117     -3.5909   -1.7606   -3.0062   H         1 RES1   0.0000
   233 H118     -1.6168   -3.2679   -3.9596   H         1 RES1   0.0000
   234 H119     -0.6139   -2.1584   -3.0096   H         1 RES1   0.0000
   235 H120     -1.6290   -0.2424   -4.2193   H         1 RES1   0.0000
   236 H121     -2.6900   -1.3406   -5.0825   H         1 RES1   0.0000
   237 H122      0.3476   -1.2601   -5.3455   H         1 RES1   0.0000
   238 H123     -0.8314   -0.7353   -6.5436   H         1 RES1   0.0000
   239 H124     -0.7023   -2.4389   -6.1361   H         1 RES1   0.0000
   240 H125      0.7151   -3.8865    1.1327   H         1 RES1   0.0000
   241 H126     -0.0215   -4.1173   -0.4816   H         1 RES1   0.0000
   242 H127      1.6697   -3.1796   -1.5954   H         1 RES1   0.0000
   243 H128      2.6852   -2.5177   -0.2654   H         1 RES1   0.0000
   244 H129      3.0814    0.1461   -2.7522   H         1 RES1   0.0000
   245 H130      4.0876   -2.5306   -2.4955   H         1 RES1   0.0000
   246 H131      4.6003   -1.5398   -1.1200   H         1 RES1   0.0000
   247 H132      5.3501    0.1993   -2.9114   H         1 RES1   0.0000
   248 H133      5.2561   -1.1350   -4.0529   H         1 RES1   0.0000
   249 H134      7.5457   -0.8771   -3.0992   H         1 RES1   0.0000
   250 H135      6.8379   -2.4711   -2.7535   H         1 RES1   0.0000
   251 H136      8.9759   -1.1933   -1.0642   H         1 RES1   0.0000
   252 H137      8.1771   -2.7701   -0.8826   H         1 RES1   0.0000
   253 H138      8.7643   -2.2675    1.3385   H         1 RES1   0.0000
   254 H139      7.0659   -1.7798    1.2168   H         1 RES1   0.0000
   255 H140      8.0076    0.6144    0.6980   H         1 RES1   0.0000
   256 H141      9.5054    0.0075    1.4262   H         1 RES1   0.0000
   257 H142      8.2288   -0.4237    3.4538   H         1 RES1   0.0000
   258 H143      6.6637    1.2748    4.9085   H         1 RES1   0.0000
   259 H144      6.1606   -0.4026    4.6001   H         1 RES1   0.0000
   260 H145      4.9458    2.1179    5.9194   H         1 RES1   0.0000
   261 H146      4.1192    0.5429    6.1130   H         1 RES1   0.0000
   262 H147      3.9275    2.5093    7.6754   H         1 RES1   0.0000
   263 H148      2.6188    3.5304    8.2143   H         1 RES1   0.0000
   264 H149      3.4718    5.4761    7.2197   H         1 RES1   0.0000
   265 H150      4.4099    4.5912    6.0240   H         1 RES1   0.0000
   266 H151      5.0955    4.3351    8.9614   H         1 RES1   0.0000
   267 H152      5.6159    5.7646    8.0821   H         1 RES1   0.0000
   268 H153      6.2415    2.9920    7.0225   H         1 RES1   0.0000
   269 H154      7.2665    3.7777    8.2084   H         1 RES1   0.0000
   270 H155      7.7124    5.6430    6.7370   H         1 RES1   0.0000
   271 H156      6.5135    5.1041    5.5643   H         1 RES1   0.0000
   272 H157      7.8555    3.1186    5.0285   H         1 RES1   0.0000
   273 H158      9.0040    3.5129    6.3141   H         1 RES1   0.0000
   274 H159      9.5489    5.6477    5.1101   H         1 RES1   0.0000
   275 H160      8.4664    5.1619    3.8075   H         1 RES1   0.0000
   276 H161     10.9388    3.6234    4.7360   H         1 RES1   0.0000
   277 H162     10.8259    4.5839    3.2658   H         1 RES1   0.0000
   278 H163      9.8681    3.1112    3.4330   H         1 RES1   0.0000
   279 H164      0.8547    3.4359    5.0700   H         1 RES1   0.0000
   280 H165      1.5309    4.7798    6.0127   H         1 RES1   0.0000
   281 H166      0.5741    3.8028    8.1033   H         1 RES1   0.0000
   282 H167     -0.0163    2.4269    7.1797   H         1 RES1   0.0000
   283 H168     -1.8827    3.8147    7.4832   H         1 RES1   0.0000
   284 H169     -1.3983    4.1343    5.8175   H         1 RES1   0.0000
   285 H170     -0.3822    6.2640    6.4962   H         1 RES1   0.0000
   286 H171     -0.5989    5.8768    8.2010   H         1 RES1   0.0000
   287 H172     -3.0268    5.8820    7.9508   H         1 RES1   0.0000
   288 H173     -2.8878    6.1622    6.2243   H         1 RES1   0.0000
   289 H174     -1.3799    8.2373    7.5763   H         1 RES1   0.0000
   290 H175     -2.9625    8.1440    8.3272   H         1 RES1   0.0000
   291 H176     -4.0284    8.2862    6.0629   H         1 RES1   0.0000
   292 H177     -2.4246    8.4726    5.3518   H         1 RES1   0.0000
   293 H178     -3.7065   10.3734    7.3702   H         1 RES1   0.0000
   294 H179     -3.5019   10.6791    5.6495   H         1 RES1   0.0000
   295 H180     -2.0862   10.5595    6.7002   H         1 RES1   0.0000
   296 C93       9.1291    3.1473   -1.0669   C.3       1 RES1   0.0000
   297 C94       8.4889    4.4371   -0.5638   C.3       1 RES1   0.0000
   298 C95       7.7637    4.2156    0.7641   C.3       1 RES1   0.0000
   299 C96       6.8231    5.3622    1.1514   C.3       1 RES1   0.0000
   300 C97       5.7346    4.9149    2.1492   C.3       1 RES1   0.0000
   301 C98       4.3086    5.1264    1.6169   C.3       1 RES1   0.0000
   302 C99       3.3141    4.1550    2.2621   C.3       1 RES1   0.0000
   303 C100      1.8206    4.4476    2.0807   C.3       1 RES1   0.0000
   304 N9        1.2575    4.2303    0.7515   N.am      1 RES1   0.0000
   305 C101      1.6407    5.2159   -0.2519   C.3       1 RES1   0.0000
   306 C102      0.6084    6.3435   -0.4112   C.3       1 RES1   0.0000
   307 C103      1.2581    7.7337   -0.4413   C.3       1 RES1   0.0000
   308 C104      2.1723    7.9532   -1.6453   C.3       1 RES1   0.0000
   309 C105      2.8521    9.3220   -1.6123   C.3       1 RES1   0.0000
   310 C106      3.6956    9.5838   -2.8630   C.3       1 RES1   0.0000
   311 C107      5.0464    8.8718   -2.8544   C.3       1 RES1   0.0000
   312 C108      5.7541    8.9872   -4.1987   C.3       1 RES1   0.0000
   313 C109      0.3083    3.3240    0.5522   C.2       1 RES1   0.0000
   314 O15      -0.1037    2.5113    1.4044   O.2       1 RES1   0.0000
   315 C110     -0.4077    3.2731   -0.7993   C.3       1 RES1   0.0000
   316 O16      -0.4705    1.9099   -1.1811   O.3       1 RES1   0.0000
   317 C111     -1.4549    1.6315   -2.1611   C.3       1 RES1   0.0000
   318 C112     -2.6992    1.0778   -1.4680   C.2       1 RES1   0.0000
   319 O17      -2.5627    0.5974   -0.3324   O.2       1 RES1   0.0000
   320 N10      -3.8193    1.1369   -2.1670   N.am      1 RES1   0.0000
   321 C113     -5.1033    0.5403   -1.8181   C.3       1 RES1   0.0000
   322 C114     -6.2664    1.2181   -2.5431   C.3       1 RES1   0.0000
   323 C115     -6.2258    1.1064   -4.0694   C.3       1 RES1   0.0000
   324 O18      -6.2911   -0.2384   -4.4890   O.3       1 RES1   0.0000
   325 C116     -6.7032   -0.3649   -5.8456   C.3       1 RES1   0.0000
   326 C117     -6.3895   -1.7614   -6.3830   C.3       1 RES1   0.0000
   327 C118     -4.9124   -2.0907   -6.1404   C.3       1 RES1   0.0000
   328 N11      -4.4176   -3.1778   -6.9513   N.am      1 RES1   0.0000
   329 C119     -3.6193   -4.2445   -6.6842   C.2       1 RES1   0.0000
   330 O19      -3.0526   -4.8033   -7.5966   O.2       1 RES1   0.0000
   331 C120     -3.5494   -4.7581   -5.2430   C.3       1 RES1   0.0000
   332 O20      -2.2670   -5.1907   -4.8254   O.3       1 RES1   0.0000
   333 C121     -1.7726   -6.3194   -5.5496   C.3       1 RES1   0.0000
   334 C122     -0.6610   -7.2092   -4.9781   C.2       1 RES1   0.0000
   335 O21      -0.6395   -8.3484   -5.3990   O.2       1 RES1   0.0000
   336 N12       0.3037   -6.7641   -4.1266   N.am      1 RES1   0.0000
   337 C123      0.3161   -5.4444   -3.5568   C.3       1 RES1   0.0000
   338 C124      1.2712   -4.4132   -4.2073   C.3       1 RES1   0.0000
   339 C125      1.8298   -4.7829   -5.5804   C.3       1 RES1   0.0000
   340 C126      2.8204   -3.7209   -6.0686   C.3       1 RES1   0.0000
   341 C127      4.1822   -3.7682   -5.3634   C.3       1 RES1   0.0000
   342 C128      5.1568   -4.7911   -5.9690   C.3       1 RES1   0.0000
   343 C129      5.4457   -6.0131   -5.0946   C.3       1 RES1   0.0000
   344 C130      6.2855   -5.7088   -3.8584   C.3       1 RES1   0.0000
   345 C131      1.3621   -7.7147   -3.7819   C.3       1 RES1   0.0000
   346 C132      1.8254   -7.6676   -2.3234   C.3       1 RES1   0.0000
   347 C133      2.9863   -6.6827   -2.1121   C.3       1 RES1   0.0000
   348 C134      2.9892   -5.9131   -0.7802   C.3       1 RES1   0.0000
   349 C135      4.1076   -6.3502    0.1616   C.3       1 RES1   0.0000
   350 C136      4.2668   -5.4152    1.3582   C.3       1 RES1   0.0000
   351 C137      5.3955   -5.8826    2.2778   C.3       1 RES1   0.0000
   352 C138      5.8487   -4.7826    3.2292   C.3       1 RES1   0.0000
   353 H181      9.6187    3.3099   -2.0236   H         1 RES1   0.0000
   354 H182      8.3781    2.3673   -1.1944   H         1 RES1   0.0000
   355 H183      9.8748    2.7922   -0.3604   H         1 RES1   0.0000
   356 H184      7.7845    4.7992   -1.3158   H         1 RES1   0.0000
   357 H185      9.2560    5.2032   -0.4470   H         1 RES1   0.0000
   358 H186      8.4984    4.0678    1.5553   H         1 RES1   0.0000
   359 H187      7.1852    3.2929    0.6894   H         1 RES1   0.0000
   360 H188      6.3444    5.7395    0.2442   H         1 RES1   0.0000
   361 H189      7.4062    6.1863    1.5651   H         1 RES1   0.0000
   362 H190      5.8498    5.4465    3.0948   H         1 RES1   0.0000
   363 H191      5.8611    3.8518    2.3604   H         1 RES1   0.0000
   364 H192      4.3297    4.9633    0.5382   H         1 RES1   0.0000
   365 H193      4.0071    6.1609    1.8014   H         1 RES1   0.0000
   366 H194      3.4734    4.1674    3.3418   H         1 RES1   0.0000
   367 H195      3.5249    3.1409    1.9229   H         1 RES1   0.0000
   368 H196      1.6274    5.4892    2.3440   H         1 RES1   0.0000
   369 H197      1.2746    3.7924    2.7574   H         1 RES1   0.0000
   370 H198      1.8311    4.7167   -1.2028   H         1 RES1   0.0000
   371 H199      2.5736    5.6528    0.0859   H         1 RES1   0.0000
   372 H200     -0.0719    6.2896    0.4410   H         1 RES1   0.0000
   373 H201      0.0208    6.2003   -1.3201   H         1 RES1   0.0000
   374 H202      1.8271    7.8873    0.4788   H         1 RES1   0.0000
   375 H203      0.4689    8.4903   -0.4627   H         1 RES1   0.0000
   376 H204      1.5788    7.8881   -2.5561   H         1 RES1   0.0000
   377 H205      2.9394    7.1769   -1.6790   H         1 RES1   0.0000
   378 H206      3.4770    9.4004   -0.7196   H         1 RES1   0.0000
   379 H207      2.0830   10.0924   -1.5375   H         1 RES1   0.0000
   380 H208      3.8695   10.6558   -2.9556   H         1 RES1   0.0000
   381 H209      3.1330    9.2738   -3.7444   H         1 RES1   0.0000
   382 H210      4.9107    7.8138   -2.6154   H         1 RES1   0.0000
   383 H211      5.6754    9.3138   -2.0802   H         1 RES1   0.0000
   384 H212      5.1888    8.4837   -4.9798   H         1 RES1   0.0000
   385 H213      6.7439    8.5401   -4.1502   H         1 RES1   0.0000
   386 H214      5.8674   10.0290   -4.4836   H         1 RES1   0.0000
   387 H215      0.0617    3.8604   -1.5927   H         1 RES1   0.0000
   388 H216     -1.4178    3.6696   -0.6105   H         1 RES1   0.0000
   389 H217     -1.0289    0.8275   -2.7722   H         1 RES1   0.0000
   390 H218     -1.6822    2.4974   -2.7894   H         1 RES1   0.0000
   391 H219     -3.7845    1.5903   -3.0753   H         1 RES1   0.0000
   392 H220     -5.2362    0.6117   -0.7353   H         1 RES1   0.0000
   393 H221     -5.0960   -0.5189   -2.0920   H         1 RES1   0.0000
   394 H222     -6.3107    2.2754   -2.2802   H         1 RES1   0.0000
   395 H223     -7.1892    0.7462   -2.2041   H         1 RES1   0.0000
   396 H224     -5.3117    1.5665   -4.4797   H         1 RES1   0.0000
   397 H225     -7.0792    1.6645   -4.4721   H         1 RES1   0.0000
   398 H226     -6.1676    0.3822   -6.4503   H         1 RES1   0.0000
   399 H227     -7.7786   -0.1583   -5.9287   H         1 RES1   0.0000
   400 H228     -6.6031   -1.7585   -7.4534   H         1 RES1   0.0000
   401 H229     -7.0282   -2.5035   -5.9067   H         1 RES1   0.0000
   402 H230     -4.7819   -2.3145   -5.0821   H         1 RES1   0.0000
   403 H231     -4.3339   -1.1847   -6.3823   H         1 RES1   0.0000
   404 H232     -4.4611   -2.9967   -7.9490   H         1 RES1   0.0000
   405 H233     -4.2614   -5.5949   -5.1793   H         1 RES1   0.0000
   406 H234     -3.8466   -3.9827   -4.5361   H         1 RES1   0.0000
   407 H235     -1.4107   -5.9933   -6.5323   H         1 RES1   0.0000
   408 H236     -2.6042   -7.0089   -5.7322   H         1 RES1   0.0000
   409 H237      0.5846   -5.5325   -2.4989   H         1 RES1   0.0000
   410 H238     -0.7050   -5.0796   -3.6019   H         1 RES1   0.0000
   411 H239      2.1179   -4.2355   -3.5343   H         1 RES1   0.0000
   412 H240      0.7394   -3.4669   -4.3071   H         1 RES1   0.0000
   413 H241      1.0114   -4.8870   -6.2965   H         1 RES1   0.0000
   414 H242      2.3497   -5.7374   -5.5371   H         1 RES1   0.0000
   415 H243      2.3766   -2.7302   -5.9261   H         1 RES1   0.0000
   416 H244      2.9712   -3.8495   -7.1404   H         1 RES1   0.0000
   417 H245      4.0395   -3.9833   -4.3039   H         1 RES1   0.0000
   418 H246      4.6325   -2.7765   -5.4291   H         1 RES1   0.0000
   419 H247      6.1061   -4.2995   -6.1890   H         1 RES1   0.0000
   420 H248      4.7566   -5.1495   -6.9186   H         1 RES1   0.0000
   421 H249      5.9927   -6.7329   -5.7040   H         1 RES1   0.0000
   422 H250      4.5115   -6.4865   -4.7899   H         1 RES1   0.0000
   423 H251      7.2024   -5.1972   -4.1429   H         1 RES1   0.0000
   424 H252      6.5604   -6.6351   -3.3572   H         1 RES1   0.0000
   425 H253      5.7471   -5.0846   -3.1455   H         1 RES1   0.0000
   426 H254      2.2295   -7.5706   -4.4352   H         1 RES1   0.0000
   427 H255      0.9565   -8.6998   -4.0217   H         1 RES1   0.0000
   428 H256      2.1552   -8.6686   -2.0539   H         1 RES1   0.0000
   429 H257      0.9810   -7.4320   -1.6749   H         1 RES1   0.0000
   430 H258      2.9775   -5.9651   -2.9286   H         1 RES1   0.0000
   431 H259      3.9256   -7.2277   -2.1991   H         1 RES1   0.0000
   432 H260      2.0306   -6.0300   -0.2663   H         1 RES1   0.0000
   433 H261      3.1327   -4.8458   -0.9789   H         1 RES1   0.0000
   434 H262      5.0487   -6.3653   -0.3923   H         1 RES1   0.0000
   435 H263      3.9178   -7.3632    0.5163   H         1 RES1   0.0000
   436 H264      3.3282   -5.3505    1.9192   H         1 RES1   0.0000
   437 H265      4.4975   -4.4084    0.9928   H         1 RES1   0.0000
   438 H266      6.2454   -6.1871    1.6642   H         1 RES1   0.0000
   439 H267      5.0668   -6.7571    2.8420   H         1 RES1   0.0000
   440 H268      6.2092   -3.9261    2.6610   H         1 RES1   0.0000
   441 H269      6.6584   -5.1366    3.8594   H         1 RES1   0.0000
   442 H270      5.0294   -4.4606    3.8709   H         1 RES1   0.0000
@<TRIPOS>BOND
     1     1    20    1
     2     1    22    1
     3     1    25    1
     4     1   167    1
     5     1   169    1
     6     1   172    1
     7     1   314    1
     8     1   316    1
     9     1   319    1
    10     2     3    1
    11     2    59    1
    12     2    60    1
    13     2    61    1
    14     3     4    1
    15     3    62    1
    16     3    63    1
    17     4     5    1
    18     4    64    1
    19     4    65    1
    20     5     6    1
    21     5    66    1
    22     5    67    1
    23     6     7    1
    24     6    68    1
    25     6    69    1
    26     7     8    1
    27     7    70    1
    28     7    71    1
    29     8     9    1
    30     8    72    1
    31     8    73    1
    32     9    10    1
    33     9    74    1
    34     9    75    1
    35    10    11    1
    36    10    19    1
    37    11    12    1
    38    11    76    1
    39    11    77    1
    40    12    13    1
    41    12    78    1
    42    12    79    1
    43    13    14    1
    44    13    80    1
    45    13    81    1
    46    14    15    1
    47    14    82    1
    48    14    83    1
    49    15    16    1
    50    15    84    1
    51    15    85    1
    52    16    17    1
    53    16    86    1
    54    16    87    1
    55    17    18    1
    56    17    88    1
    57    17    89    1
    58    18    90    1
    59    18    91    1
    60    18    92    1
    61    19    20    2
    62    19    21    1
    63    21    22    1
    64    21    93    1
    65    21    94    1
    66    22    23    1
    67    23    24    1
    68    23    95    1
    69    23    96    1
    70    24    25    2
    71    24    26    1
    72    26    27    1
    73    26    97    1
    74    27    28    1
    75    27    98    1
    76    27    99    1
    77    28    29    1
    78    28   100    1
    79    28   101    1
    80    29    30    1
    81    29   102    1
    82    29   103    1
    83    30    31    1
    84    31    32    1
    85    31   104    1
    86    31   105    1
    87    32    33    1
    88    32   106    1
    89    32   107    1
    90    33    34    1
    91    33   108    1
    92    33   109    1
    93    34    35    1
    94    34   110    1
    95    35    36    2
    96    35    37    1
    97    37    38    1
    98    37   111    1
    99    37   112    1
   100    38    39    1
   101    39    40    1
   102    39   113    1
   103    39   114    1
   104    40    41    2
   105    40    42    1
   106    42    43    1
   107    42    51    1
   108    43    44    1
   109    43   115    1
   110    43   116    1
   111    44    45    1
   112    44   117    1
   113    44   118    1
   114    45    46    1
   115    45   119    1
   116    45   120    1
   117    46    47    1
   118    46   121    1
   119    46   122    1
   120    47    48    1
   121    47   123    1
   122    47   124    1
   123    48    49    1
   124    48   125    1
   125    48   126    1
   126    49    50    1
   127    49   127    1
   128    49   128    1
   129    50   129    1
   130    50   130    1
   131    50   131    1
   132    51    52    1
   133    51   132    1
   134    51   133    1
   135    52    53    1
   136    52   134    1
   137    52   135    1
   138    53    54    1
   139    53   136    1
   140    53   137    1
   141    54    55    1
   142    54   138    1
   143    54   139    1
   144    55    56    1
   145    55   140    1
   146    55   141    1
   147    56    57    1
   148    56   142    1
   149    56   143    1
   150    57    58    1
   151    57   144    1
   152    57   145    1
   153    58   146    1
   154    58   147    1
   155    58   148    1
   156   149   150    1
   157   149   206    1
   158   149   207    1
   159   149   208    1
   160   150   151    1
   161   150   209    1
   162   150   210    1
   163   151   152    1
   164   151   211    1
   165   151   212    1
   166   152   153    1
   167   152   213    1
   168   152   214    1
   169   153   154    1
   170   153   215    1
   171   153   216    1
   172   154   155    1
   173   154   217    1
   174   154   218    1
   175   155   156    1
   176   155   219    1
   177   155   220    1
   178   156   157    1
   179   156   221    1
   180   156   222    1
   181   157   158    1
   182   157   166    1
   183   158   159    1
   184   158   223    1
   185   158   224    1
   186   159   160    1
   187   159   225    1
   188   159   226    1
   189   160   161    1
   190   160   227    1
   191   160   228    1
   192   161   162    1
   193   161   229    1
   194   161   230    1
   195   162   163    1
   196   162   231    1
   197   162   232    1
   198   163   164    1
   199   163   233    1
   200   163   234    1
   201   164   165    1
   202   164   235    1
   203   164   236    1
   204   165   237    1
   205   165   238    1
   206   165   239    1
   207   166   167    2
   208   166   168    1
   209   168   169    1
   210   168   240    1
   211   168   241    1
   212   169   170    1
   213   170   171    1
   214   170   242    1
   215   170   243    1
   216   171   172    2
   217   171   173    1
   218   173   174    1
   219   173   244    1
   220   174   175    1
   221   174   245    1
   222   174   246    1
   223   175   176    1
   224   175   247    1
   225   175   248    1
   226   176   177    1
   227   176   249    1
   228   176   250    1
   229   177   178    1
   230   178   179    1
   231   178   251    1
   232   178   252    1
   233   179   180    1
   234   179   253    1
   235   179   254    1
   236   180   181    1
   237   180   255    1
   238   180   256    1
   239   181   182    1
   240   181   257    1
   241   182   183    2
   242   182   184    1
   243   184   185    1
   244   184   258    1
   245   184   259    1
   246   185   186    1
   247   186   187    1
   248   186   260    1
   249   186   261    1
   250   187   188    2
   251   187   189    1
   252   189   190    1
   253   189   198    1
   254   190   191    1
   255   190   262    1
   256   190   263    1
   257   191   192    1
   258   191   264    1
   259   191   265    1
   260   192   193    1
   261   192   266    1
   262   192   267    1
   263   193   194    1
   264   193   268    1
   265   193   269    1
   266   194   195    1
   267   194   270    1
   268   194   271    1
   269   195   196    1
   270   195   272    1
   271   195   273    1
   272   196   197    1
   273   196   274    1
   274   196   275    1
   275   197   276    1
   276   197   277    1
   277   197   278    1
   278   198   199    1
   279   198   279    1
   280   198   280    1
   281   199   200    1
   282   199   281    1
   283   199   282    1
   284   200   201    1
   285   200   283    1
   286   200   284    1
   287   201   202    1
   288   201   285    1
   289   201   286    1
   290   202   203    1
   291   202   287    1
   292   202   288    1
   293   203   204    1
   294   203   289    1
   295   203   290    1
   296   204   205    1
   297   204   291    1
   298   204   292    1
   299   205   293    1
   300   205   294    1
   301   205   295    1
   302   296   297    1
   303   296   353    1
   304   296   354    1
   305   296   355    1
   306   297   298    1
   307   297   356    1
   308   297   357    1
   309   298   299    1
   310   298   358    1
   311   298   359    1
   312   299   300    1
   313   299   360    1
   314   299   361    1
   315   300   301    1
   316   300   362    1
   317   300   363    1
   318   301   302    1
   319   301   364    1
   320   301   365    1
   321   302   303    1
   322   302   366    1
   323   302   367    1
   324   303   304    1
   325   303   368    1
   326   303   369    1
   327   304   305    1
   328   304   313    1
   329   305   306    1
   330   305   370    1
   331   305   371    1
   332   306   307    1
   333   306   372    1
   334   306   373    1
   335   307   308    1
   336   307   374    1
   337   307   375    1
   338   308   309    1
   339   308   376    1
   340   308   377    1
   341   309   310    1
   342   309   378    1
   343   309   379    1
   344   310   311    1
   345   310   380    1
   346   310   381    1
   347   311   312    1
   348   311   382    1
   349   311   383    1
   350   312   384    1
   351   312   385    1
   352   312   386    1
   353   313   314    2
   354   313   315    1
   355   315   316    1
   356   315   387    1
   357   315   388    1
   358   316   317    1
   359   317   318    1
   360   317   389    1
   361   317   390    1
   362   318   319    2
   363   318   320    1
   364   320   321    1
   365   320   391    1
   366   321   322    1
   367   321   392    1
   368   321   393    1
   369   322   323    1
   370   322   394    1
   371   322   395    1
   372   323   324    1
   373   323   396    1
   374   323   397    1
   375   324   325    1
   376   325   326    1
   377   325   398    1
   378   325   399    1
   379   326   327    1
   380   326   400    1
   381   326   401    1
   382   327   328    1
   383   327   402    1
   384   327   403    1
   385   328   329    1
   386   328   404    1
   387   329   330    2
   388   329   331    1
   389   331   332    1
   390   331   405    1
   391   331   406    1
   392   332   333    1
   393   333   334    1
   394   333   407    1
   395   333   408    1
   396   334   335    2
   397   334   336    1
   398   336   337    1
   399   336   345    1
   400   337   338    1
   401   337   409    1
   402   337   410    1
   403   338   339    1
   404   338   411    1
   405   338   412    1
   406   339   340    1
   407   339   413    1
   408   339   414    1
   409   340   341    1
   410   340   415    1
   411   340   416    1
   412   341   342    1
   413   341   417    1
   414   341   418    1
   415   342   343    1
   416   342   419    1
   417   342   420    1
   418   343   344    1
   419   343   421    1
   420   343   422    1
   421   344   423    1
   422   344   424    1
   423   344   425    1
   424   345   346    1
   425   345   426    1
   426   345   427    1
   427   346   347    1
   428   346   428    1
   429   346   429    1
   430   347   348    1
   431   347   430    1
   432   347   431    1
   433   348   349    1
   434   348   432    1
   435   348   433    1
   436   349   350    1
   437   349   434    1
   438   349   435    1
   439   350   351    1
   440   350   436    1
   441   350   437    1
   442   351   352    1
   443   351   438    1
   444   351   439    1
   445   352   440    1
   446   352   441    1
   447   352   442    1
@<TRIPOS>SUBSTRUCTURE
     1 RES1      442 GROUP             0 ****  ****    0  
