@<TRIPOS>MOLECULE
am_c3_9H2O_c0_0_nunpairedes_0_charge_2 Charge: 2 Unpaired_Electrons: 6 XTB_Unpaired_Electrons: 0 XTB_Charge: 2
    60    69     1     0     0
SMALL
NoCharges
****
Generated from Architector

@<TRIPOS>ATOM
     1 Eu1       0.1915   -0.2414    0.2304   Eu        1 RES1   0.0000
     2 C1       -1.4898    2.1760    4.3106   C.ar      1 RES1   0.0000
     3 C2       -2.3707    1.3936    3.5738   C.ar      1 RES1   0.0000
     4 C3       -2.0036    0.9915    2.2928   C.ar      1 RES1   0.0000
     5 N1       -0.8211    1.3238    1.7557   N.ar      1 RES1   0.0000
     6 C4        0.0137    2.1060    2.4556   C.ar      1 RES1   0.0000
     7 C5       -0.2829    2.5581    3.7350   C.ar      1 RES1   0.0000
     8 C6        1.3038    2.4814    1.7521   C.3       1 RES1   0.0000
     9 O1        1.2512    2.1355    0.3622   O.3       1 RES1   0.0000
    10 C7        0.7644    3.1656   -0.4621   C.ar      1 RES1   0.0000
    11 C8        1.1991    4.4824   -0.3529   C.ar      1 RES1   0.0000
    12 C9        0.7278    5.4592   -1.2104   C.ar      1 RES1   0.0000
    13 C10      -0.1813    5.1292   -2.1998   C.ar      1 RES1   0.0000
    14 C11      -0.6231    3.8256   -2.3162   C.ar      1 RES1   0.0000
    15 C12      -0.1579    2.8378   -1.4590   C.ar      1 RES1   0.0000
    16 O2       -0.5874    1.5029   -1.5849   O.3       1 RES1   0.0000
    17 C13      -0.3557    0.9829   -2.9040   C.3       1 RES1   0.0000
    18 C14       1.1135    0.5409   -2.9972   C.3       1 RES1   0.0000
    19 O3        1.4668   -0.3336   -1.9120   O.3       1 RES1   0.0000
    20 C15       1.5087   -1.7233   -2.2508   C.3       1 RES1   0.0000
    21 C16       0.0888   -2.3134   -2.3788   C.3       1 RES1   0.0000
    22 O4       -0.7523   -1.6225   -1.4412   O.3       1 RES1   0.0000
    23 C17      -2.0976   -2.0043   -1.3918   C.ar      1 RES1   0.0000
    24 C18      -2.6459   -3.0122   -2.1650   C.ar      1 RES1   0.0000
    25 C19      -3.9877   -3.3355   -2.0346   C.ar      1 RES1   0.0000
    26 C20      -4.7786   -2.6611   -1.1265   C.ar      1 RES1   0.0000
    27 C21      -4.2368   -1.6469   -0.3504   C.ar      1 RES1   0.0000
    28 C22      -2.9002   -1.2991   -0.4762   C.ar      1 RES1   0.0000
    29 O5       -2.2633   -0.2807    0.2486   O.3       1 RES1   0.0000
    30 C23      -2.9133    0.1096    1.4643   C.3       1 RES1   0.0000
    31 H1       -1.7343    2.5016    5.3125   H         1 RES1   0.0000
    32 H2       -3.3257    1.0925    3.9752   H         1 RES1   0.0000
    33 H3        0.4158    3.1816    4.2742   H         1 RES1   0.0000
    34 H4        2.1567    1.9381    2.1760   H         1 RES1   0.0000
    35 H5        1.4760    3.5524    1.8862   H         1 RES1   0.0000
    36 H6        1.9320    4.7682    0.3836   H         1 RES1   0.0000
    37 H7        1.0779    6.4737   -1.0933   H         1 RES1   0.0000
    38 H8       -0.5514    5.8809   -2.8771   H         1 RES1   0.0000
    39 H9       -1.3468    3.5868   -3.0769   H         1 RES1   0.0000
    40 H10      -0.5491    1.7406   -3.6687   H         1 RES1   0.0000
    41 H11      -1.0656    0.1620   -3.0494   H         1 RES1   0.0000
    42 H12       1.7574    1.4235   -2.8865   H         1 RES1   0.0000
    43 H13       1.3256    0.0752   -3.9647   H         1 RES1   0.0000
    44 H14       2.0417   -2.2048   -1.4224   H         1 RES1   0.0000
    45 H15       2.0778   -1.8819   -3.1760   H         1 RES1   0.0000
    46 H16       0.1229   -3.3818   -2.1371   H         1 RES1   0.0000
    47 H17      -0.3060   -2.1758   -3.3932   H         1 RES1   0.0000
    48 H18      -2.0442   -3.5764   -2.8561   H         1 RES1   0.0000
    49 H19      -4.3913   -4.1284   -2.6394   H         1 RES1   0.0000
    50 H20      -5.8170   -2.9201   -0.9976   H         1 RES1   0.0000
    51 H21      -4.8748   -1.1437    0.3547   H         1 RES1   0.0000
    52 H22      -3.1415   -0.7883    2.0558   H         1 RES1   0.0000
    53 H23      -3.8493    0.6381    1.2334   H         1 RES1   0.0000
    54 N2        0.1638   -2.4921    1.4766   N.3       1 RES1   0.0000
    55 O6        0.0624   -3.5510    1.9916   O.2       1 RES1   0.0000
    56 O7       -0.4486   -1.4823    1.8883   O.co2     1 RES1   0.0000
    57 O8        0.8974   -2.2987    0.4834   O.co2     1 RES1   0.0000
    58 O9        2.1785   -0.4632    1.9327   O.3       1 RES1   0.0000
    59 H24       2.9673   -1.0069    1.7712   H         1 RES1   0.0000
    60 H25       1.9897   -0.5617    2.8797   H         1 RES1   0.0000
@<TRIPOS>BOND
     1     1     5    1
     2     1     9    1
     3     1    16    1
     4     1    19    1
     5     1    22    1
     6     1    29    1
     7     1    56    1
     8     1    57    1
     9     1    58    1
    10     2     3    1
    11     2     7    2
    12     2    31    1
    13     3     4    2
    14     3    32    1
    15     4     5    1
    16     4    30    1
    17     5     6    2
    18     6     7    1
    19     6     8    1
    20     7    33    1
    21     8     9    1
    22     8    34    1
    23     8    35    1
    24     9    10    1
    25    10    11    1
    26    10    15    2
    27    11    12    2
    28    11    36    1
    29    12    13    1
    30    12    37    1
    31    13    14    2
    32    13    38    1
    33    14    15    1
    34    14    39    1
    35    15    16    1
    36    16    17    1
    37    17    18    1
    38    17    40    1
    39    17    41    1
    40    18    19    1
    41    18    42    1
    42    18    43    1
    43    19    20    1
    44    20    21    1
    45    20    44    1
    46    20    45    1
    47    21    22    1
    48    21    46    1
    49    21    47    1
    50    22    23    1
    51    23    24    1
    52    23    28    2
    53    24    25    2
    54    24    48    1
    55    25    26    1
    56    25    49    1
    57    26    27    2
    58    26    50    1
    59    27    28    1
    60    27    51    1
    61    28    29    1
    62    29    30    1
    63    30    52    1
    64    30    53    1
    65    54    55    2
    66    54    56    1
    67    54    57    1
    68    58    59    1
    69    58    60    1
@<TRIPOS>SUBSTRUCTURE
     1 RES1       60 GROUP             0 ****  ****    0  
