@<TRIPOS>MOLECULE
cn9_YICLED_0_nunpairedes_0_charge_3 Charge: 3 Unpaired_Electrons: 6 XTB_Unpaired_Electrons: 0 XTB_Charge: 3
   358   363     1     0     0
SMALL
NoCharges
****
Generated from Architector

@<TRIPOS>ATOM
     1 Eu1      -0.1103   -0.1544    0.0003   Eu        1 RES1   0.0000
     2 C1        3.7862   -8.7519    2.0916   C.3       1 RES1   0.0000
     3 C2        3.4766   -9.1278    3.5348   C.3       1 RES1   0.0000
     4 C3        4.3037   -8.3342    4.5490   C.3       1 RES1   0.0000
     5 C4        4.1916   -6.8088    4.4331   C.3       1 RES1   0.0000
     6 C5        2.7729   -6.2785    4.6569   C.3       1 RES1   0.0000
     7 C6        2.7129   -4.7500    4.5951   C.3       1 RES1   0.0000
     8 C7        1.3368   -4.1692    4.9323   C.3       1 RES1   0.0000
     9 C8        0.1833   -4.2556    3.9194   C.3       1 RES1   0.0000
    10 N1        0.1661   -3.4703    2.6709   N.am      1 RES1   0.0000
    11 C9        0.3562   -4.2632    1.4450   C.3       1 RES1   0.0000
    12 C10       1.6716   -5.0349    1.3284   C.3       1 RES1   0.0000
    13 C11       2.8026   -4.1171    0.8607   C.3       1 RES1   0.0000
    14 C12       4.2106   -4.7359    0.8567   C.3       1 RES1   0.0000
    15 C13       4.4746   -5.9657   -0.0227   C.3       1 RES1   0.0000
    16 C14       4.8319   -5.6786   -1.4807   C.3       1 RES1   0.0000
    17 C15       3.6540   -5.3029   -2.3727   C.3       1 RES1   0.0000
    18 C16       2.6110   -6.4026   -2.5079   C.3       1 RES1   0.0000
    19 C17      -0.3782   -2.2564    2.4802   C.2       1 RES1   0.0000
    20 O1       -0.6790   -1.8452    1.3411   O.2       1 RES1   0.0000
    21 C18      -0.5943   -1.2937    3.6621   C.3       1 RES1   0.0000
    22 N2       -1.1635    0.0306    3.3860   N.am      1 RES1   0.0000
    23 C19      -2.5422    0.3749    3.6965   C.3       1 RES1   0.0000
    24 C20      -3.1703    0.8582    2.3765   C.2       1 RES1   0.0000
    25 O2       -2.6491    0.4579    1.3324   O.2       1 RES1   0.0000
    26 N3       -4.2426    1.6580    2.4005   N.am      1 RES1   0.0000
    27 C21      -4.9108    1.9218    1.1241   C.3       1 RES1   0.0000
    28 C22      -4.6014    3.2261    0.3737   C.3       1 RES1   0.0000
    29 C23      -5.5973    3.4145   -0.7867   C.3       1 RES1   0.0000
    30 C24      -5.6276    4.8280   -1.4082   C.3       1 RES1   0.0000
    31 C25      -5.2107    4.8518   -2.8851   C.3       1 RES1   0.0000
    32 C26      -3.7050    4.6909   -3.1143   C.3       1 RES1   0.0000
    33 C27      -2.9243    6.0068   -3.1373   C.3       1 RES1   0.0000
    34 C28      -2.9140    6.7566   -1.8125   C.3       1 RES1   0.0000
    35 C29      -4.9780    1.9651    3.6252   C.3       1 RES1   0.0000
    36 C30      -4.4844    3.1881    4.4024   C.3       1 RES1   0.0000
    37 C31      -4.4585    4.4545    3.5566   C.3       1 RES1   0.0000
    38 C32      -4.2144    5.7383    4.3471   C.3       1 RES1   0.0000
    39 C33      -4.4210    6.9764    3.4670   C.3       1 RES1   0.0000
    40 C34      -3.5534    7.0650    2.2061   C.3       1 RES1   0.0000
    41 C35      -2.0625    7.3169    2.4521   C.3       1 RES1   0.0000
    42 C36      -1.2211    6.0573    2.6274   C.3       1 RES1   0.0000
    43 C37      -0.4662    0.9789    2.7153   C.2       1 RES1   0.0000
    44 C38      -0.7930    2.4222    2.9791   C.3       1 RES1   0.0000
    45 O3        0.5078    0.7067    2.0039   O.2       1 RES1   0.0000
    46 H1        3.2811   -9.4296    1.4085   H         1 RES1   0.0000
    47 H2        3.4542   -7.7397    1.8773   H         1 RES1   0.0000
    48 H3        4.8556   -8.8130    1.9020   H         1 RES1   0.0000
    49 H4        2.4104   -8.9938    3.7302   H         1 RES1   0.0000
    50 H5        3.6983  -10.1854    3.6814   H         1 RES1   0.0000
    51 H6        4.0057   -8.6346    5.5568   H         1 RES1   0.0000
    52 H7        5.3557   -8.6048    4.4209   H         1 RES1   0.0000
    53 H8        4.8582   -6.3659    5.1784   H         1 RES1   0.0000
    54 H9        4.5517   -6.4954    3.4502   H         1 RES1   0.0000
    55 H10       2.1105   -6.7261    3.9139   H         1 RES1   0.0000
    56 H11       2.4359   -6.6056    5.6420   H         1 RES1   0.0000
    57 H12       3.4158   -4.3689    5.3411   H         1 RES1   0.0000
    58 H13       3.0680   -4.3946    3.6294   H         1 RES1   0.0000
    59 H14       0.9748   -4.7103    5.8093   H         1 RES1   0.0000
    60 H15       1.4596   -3.1399    5.2388   H         1 RES1   0.0000
    61 H16       0.0901   -5.2965    3.6080   H         1 RES1   0.0000
    62 H17      -0.7085   -3.9887    4.4859   H         1 RES1   0.0000
    63 H18      -0.4877   -4.9531    1.3660   H         1 RES1   0.0000
    64 H19       0.3071   -3.5726    0.5982   H         1 RES1   0.0000
    65 H20       1.9529   -5.5177    2.2585   H         1 RES1   0.0000
    66 H21       1.5067   -5.8279    0.5996   H         1 RES1   0.0000
    67 H22       2.5373   -3.7219   -0.1220   H         1 RES1   0.0000
    68 H23       2.8293   -3.2697    1.5477   H         1 RES1   0.0000
    69 H24       4.9369   -3.9642    0.5693   H         1 RES1   0.0000
    70 H25       4.4374   -5.0092    1.8918   H         1 RES1   0.0000
    71 H26       5.3274   -6.4861    0.4181   H         1 RES1   0.0000
    72 H27       3.6275   -6.6460    0.0252   H         1 RES1   0.0000
    73 H28       5.5853   -4.8852   -1.5209   H         1 RES1   0.0000
    74 H29       5.2968   -6.5731   -1.8960   H         1 RES1   0.0000
    75 H30       3.1728   -4.4009   -1.9890   H         1 RES1   0.0000
    76 H31       4.0541   -5.0869   -3.3644   H         1 RES1   0.0000
    77 H32       2.1178   -6.6036   -1.5616   H         1 RES1   0.0000
    78 H33       1.8493   -6.1145   -3.2289   H         1 RES1   0.0000
    79 H34       3.0716   -7.3232   -2.8520   H         1 RES1   0.0000
    80 H35      -1.1978   -1.7538    4.4474   H         1 RES1   0.0000
    81 H36       0.3989   -1.0916    4.0616   H         1 RES1   0.0000
    82 H37      -3.0808   -0.5178    4.0183   H         1 RES1   0.0000
    83 H38      -2.6103    1.1119    4.4983   H         1 RES1   0.0000
    84 H39      -4.6637    1.0838    0.4709   H         1 RES1   0.0000
    85 H40      -5.9799    1.9130    1.3317   H         1 RES1   0.0000
    86 H41      -4.7122    4.0687    1.0478   H         1 RES1   0.0000
    87 H42      -3.5731    3.2166    0.0059   H         1 RES1   0.0000
    88 H43      -5.3852    2.7060   -1.5899   H         1 RES1   0.0000
    89 H44      -6.5955    3.1782   -0.4112   H         1 RES1   0.0000
    90 H45      -6.6505    5.2027   -1.3595   H         1 RES1   0.0000
    91 H46      -5.0021    5.4991   -0.8227   H         1 RES1   0.0000
    92 H47      -5.7485    4.0472   -3.3969   H         1 RES1   0.0000
    93 H48      -5.5413    5.7845   -3.3452   H         1 RES1   0.0000
    94 H49      -3.3031    4.0373   -2.3363   H         1 RES1   0.0000
    95 H50      -3.5585    4.2063   -4.0836   H         1 RES1   0.0000
    96 H51      -1.8908    5.7941   -3.4297   H         1 RES1   0.0000
    97 H52      -3.3449    6.6497   -3.9097   H         1 RES1   0.0000
    98 H53      -2.6408    6.0989   -0.9895   H         1 RES1   0.0000
    99 H54      -2.1898    7.5650   -1.8468   H         1 RES1   0.0000
   100 H55      -3.8858    7.1920   -1.6049   H         1 RES1   0.0000
   101 H56      -6.0174    2.1305    3.3358   H         1 RES1   0.0000
   102 H57      -4.9796    1.0934    4.2836   H         1 RES1   0.0000
   103 H58      -5.1733    3.3033    5.2380   H         1 RES1   0.0000
   104 H59      -3.4908    3.0207    4.8195   H         1 RES1   0.0000
   105 H60      -3.6656    4.3579    2.8161   H         1 RES1   0.0000
   106 H61      -5.4128    4.5566    3.0362   H         1 RES1   0.0000
   107 H62      -4.9252    5.7944    5.1736   H         1 RES1   0.0000
   108 H63      -3.2117    5.7441    4.7766   H         1 RES1   0.0000
   109 H64      -5.4692    6.9845    3.1535   H         1 RES1   0.0000
   110 H65      -4.2565    7.8751    4.0673   H         1 RES1   0.0000
   111 H66      -3.6791    6.1663    1.5970   H         1 RES1   0.0000
   112 H67      -3.9439    7.9006    1.6216   H         1 RES1   0.0000
   113 H68      -1.6664    7.8674    1.5971   H         1 RES1   0.0000
   114 H69      -1.9480    7.9500    3.3318   H         1 RES1   0.0000
   115 H70      -1.3475    5.3845    1.7795   H         1 RES1   0.0000
   116 H71      -0.1693    6.3262    2.6883   H         1 RES1   0.0000
   117 H72      -1.4809    5.5215    3.5352   H         1 RES1   0.0000
   118 H73      -0.9190    2.5987    4.0449   H         1 RES1   0.0000
   119 H74       0.0433    3.0029    2.5951   H         1 RES1   0.0000
   120 H75      -1.6918    2.7545    2.4710   H         1 RES1   0.0000
   121 C39      -8.7201   -4.2012    2.9188   C.3       1 RES1   0.0000
   122 C40      -9.8063   -3.7414    1.9558   C.3       1 RES1   0.0000
   123 C41     -10.1268   -2.2509    2.0836   C.3       1 RES1   0.0000
   124 C42      -8.9353   -1.3019    1.9145   C.3       1 RES1   0.0000
   125 C43      -8.2574   -1.3847    0.5426   C.3       1 RES1   0.0000
   126 C44      -7.1486   -0.3344    0.4162   C.3       1 RES1   0.0000
   127 C45      -6.5496   -0.1681   -0.9887   C.3       1 RES1   0.0000
   128 C46      -5.4687   -1.1317   -1.5078   C.3       1 RES1   0.0000
   129 N4       -4.1194   -1.1662   -0.9178   N.am      1 RES1   0.0000
   130 C47      -3.8039   -2.3992   -0.1775   C.3       1 RES1   0.0000
   131 C48      -4.7453   -2.7826    0.9758   C.3       1 RES1   0.0000
   132 C49      -4.3003   -2.1038    2.2745   C.3       1 RES1   0.0000
   133 C50      -5.2632   -2.1793    3.4692   C.3       1 RES1   0.0000
   134 C51      -5.5088   -3.5348    4.1414   C.3       1 RES1   0.0000
   135 C52      -4.5021   -3.9293    5.2226   C.3       1 RES1   0.0000
   136 C53      -3.1340   -4.3590    4.7066   C.3       1 RES1   0.0000
   137 C54      -3.1864   -5.5667    3.7810   C.3       1 RES1   0.0000
   138 C55      -3.0478   -0.4687   -1.3421   C.2       1 RES1   0.0000
   139 O4       -1.8860   -0.8677   -1.1531   O.2       1 RES1   0.0000
   140 C56      -3.2458    0.8827   -2.0576   C.3       1 RES1   0.0000
   141 N5       -2.0521    1.6924   -2.3195   N.am      1 RES1   0.0000
   142 C57      -1.5389    1.8672   -3.6665   C.3       1 RES1   0.0000
   143 C58      -0.0773    1.3712   -3.6370   C.2       1 RES1   0.0000
   144 O5        0.2302    0.5803   -2.7370   O.2       1 RES1   0.0000
   145 N6        0.7895    1.8124   -4.5553   N.am      1 RES1   0.0000
   146 C59       2.1104    1.1782   -4.5872   C.3       1 RES1   0.0000
   147 C60       3.3092    1.8963   -3.9474   C.3       1 RES1   0.0000
   148 C61       4.6092    1.1778   -4.3478   C.3       1 RES1   0.0000
   149 C62       5.9229    1.9086   -4.0060   C.3       1 RES1   0.0000
   150 C63       6.7896    1.1417   -2.9987   C.3       1 RES1   0.0000
   151 C64       6.2908    1.2146   -1.5529   C.3       1 RES1   0.0000
   152 C65       6.7697    2.4372   -0.7665   C.3       1 RES1   0.0000
   153 C66       6.1563    3.7569   -1.2188   C.3       1 RES1   0.0000
   154 C67       0.3615    2.5828   -5.7232   C.3       1 RES1   0.0000
   155 C68       0.3730    4.1047   -5.5461   C.3       1 RES1   0.0000
   156 C69       1.7562    4.6459   -5.2072   C.3       1 RES1   0.0000
   157 C70       1.8679    6.1652   -5.2885   C.3       1 RES1   0.0000
   158 C71       3.3122    6.6382   -5.0871   C.3       1 RES1   0.0000
   159 C72       4.0204    6.1751   -3.8076   C.3       1 RES1   0.0000
   160 C73       3.4765    6.7484   -2.4956   C.3       1 RES1   0.0000
   161 C74       2.3026    5.9828   -1.8940   C.3       1 RES1   0.0000
   162 C75      -1.2585    2.1907   -1.3397   C.2       1 RES1   0.0000
   163 C76      -0.3797    3.3833   -1.6332   C.3       1 RES1   0.0000
   164 O6       -1.3001    1.7805   -0.1749   O.2       1 RES1   0.0000
   165 H76      -8.6308   -5.2835    2.8999   H         1 RES1   0.0000
   166 H77      -7.7580   -3.7779    2.6462   H         1 RES1   0.0000
   167 H78      -8.9600   -3.8987    3.9360   H         1 RES1   0.0000
   168 H79      -9.5155   -3.9782    0.9306   H         1 RES1   0.0000
   169 H80     -10.7225   -4.2939    2.1660   H         1 RES1   0.0000
   170 H81     -10.8898   -1.9896    1.3467   H         1 RES1   0.0000
   171 H82     -10.5517   -2.0773    3.0762   H         1 RES1   0.0000
   172 H83      -9.2989   -0.2808    2.0643   H         1 RES1   0.0000
   173 H84      -8.2028   -1.5007    2.7004   H         1 RES1   0.0000
   174 H85      -7.8724   -2.3947    0.3948   H         1 RES1   0.0000
   175 H86      -9.0124   -1.1990   -0.2229   H         1 RES1   0.0000
   176 H87      -7.6117    0.6242    0.6671   H         1 RES1   0.0000
   177 H88      -6.3770   -0.5178    1.1638   H         1 RES1   0.0000
   178 H89      -7.3784   -0.2569   -1.6955   H         1 RES1   0.0000
   179 H90      -6.1771    0.8467   -1.0865   H         1 RES1   0.0000
   180 H91      -5.8493   -2.1511   -1.4313   H         1 RES1   0.0000
   181 H92      -5.3603   -0.8970   -2.5676   H         1 RES1   0.0000
   182 H93      -3.7603   -3.2124   -0.9077   H         1 RES1   0.0000
   183 H94      -2.8045   -2.2675    0.2460   H         1 RES1   0.0000
   184 H95      -5.7817   -2.5350    0.7648   H         1 RES1   0.0000
   185 H96      -4.6977   -3.8672    1.0776   H         1 RES1   0.0000
   186 H97      -3.3110   -2.4890    2.5270   H         1 RES1   0.0000
   187 H98      -4.1858   -1.0498    2.0325   H         1 RES1   0.0000
   188 H99      -4.9177   -1.4895    4.2484   H         1 RES1   0.0000
   189 H100     -6.2243   -1.7952    3.1215   H         1 RES1   0.0000
   190 H101     -6.4789   -3.4712    4.6364   H         1 RES1   0.0000
   191 H102     -5.5842   -4.3164    3.3884   H         1 RES1   0.0000
   192 H103     -4.3710   -3.0924    5.9157   H         1 RES1   0.0000
   193 H104     -4.9252   -4.7538    5.7976   H         1 RES1   0.0000
   194 H105     -2.6768   -3.5186    4.1801   H         1 RES1   0.0000
   195 H106     -2.5132   -4.6019    5.5720   H         1 RES1   0.0000
   196 H107     -3.7140   -5.3336    2.8607   H         1 RES1   0.0000
   197 H108     -2.1851   -5.9000    3.5194   H         1 RES1   0.0000
   198 H109     -3.6979   -6.3900    4.2694   H         1 RES1   0.0000
   199 H110     -3.7491    0.7368   -3.0167   H         1 RES1   0.0000
   200 H111     -3.8922    1.4900   -1.4255   H         1 RES1   0.0000
   201 H112     -2.1013    1.2488   -4.3687   H         1 RES1   0.0000
   202 H113     -1.6285    2.9069   -3.9846   H         1 RES1   0.0000
   203 H114      1.9914    0.2130   -4.0913   H         1 RES1   0.0000
   204 H115      2.3478    1.0152   -5.6374   H         1 RES1   0.0000
   205 H116      3.3725    2.9167   -4.3082   H         1 RES1   0.0000
   206 H117      3.1958    1.9204   -2.8614   H         1 RES1   0.0000
   207 H118      4.6536    0.1968   -3.8737   H         1 RES1   0.0000
   208 H119      4.5780    1.0071   -5.4255   H         1 RES1   0.0000
   209 H120      6.5106    2.0132   -4.9178   H         1 RES1   0.0000
   210 H121      5.7104    2.9095   -3.6409   H         1 RES1   0.0000
   211 H122      6.8229    0.0937   -3.3158   H         1 RES1   0.0000
   212 H123      7.8167    1.5091   -3.0371   H         1 RES1   0.0000
   213 H124      5.1982    1.1945   -1.5567   H         1 RES1   0.0000
   214 H125      6.6537    0.3253   -1.0288   H         1 RES1   0.0000
   215 H126      6.5280    2.2813    0.2894   H         1 RES1   0.0000
   216 H127      7.8550    2.5028   -0.8341   H         1 RES1   0.0000
   217 H128      5.0919    3.6457   -1.4164   H         1 RES1   0.0000
   218 H129      6.2737    4.5088   -0.4437   H         1 RES1   0.0000
   219 H130      6.6405    4.1271   -2.1171   H         1 RES1   0.0000
   220 H131      1.0298    2.3206   -6.5462   H         1 RES1   0.0000
   221 H132     -0.6385    2.2599   -6.0236   H         1 RES1   0.0000
   222 H133      0.0282    4.5234   -6.4912   H         1 RES1   0.0000
   223 H134     -0.3308    4.4176   -4.7724   H         1 RES1   0.0000
   224 H135      1.9988    4.3465   -4.1902   H         1 RES1   0.0000
   225 H136      2.4914    4.2125   -5.8883   H         1 RES1   0.0000
   226 H137      1.5425    6.4966   -6.2765   H         1 RES1   0.0000
   227 H138      1.2135    6.6352   -4.5535   H         1 RES1   0.0000
   228 H139      3.8990    6.2775   -5.9373   H         1 RES1   0.0000
   229 H140      3.3307    7.7307   -5.1191   H         1 RES1   0.0000
   230 H141      4.0312    5.0833   -3.7551   H         1 RES1   0.0000
   231 H142      5.0602    6.4955   -3.9033   H         1 RES1   0.0000
   232 H143      4.2881    6.7442   -1.7654   H         1 RES1   0.0000
   233 H144      3.1822    7.7858   -2.6537   H         1 RES1   0.0000
   234 H145      2.5396    4.9238   -1.7919   H         1 RES1   0.0000
   235 H146      2.0798    6.3735   -0.9038   H         1 RES1   0.0000
   236 H147      1.4070    6.0802   -2.4996   H         1 RES1   0.0000
   237 H148     -0.9885    4.2079   -2.0000   H         1 RES1   0.0000
   238 H149      0.0870    3.6540   -0.6855   H         1 RES1   0.0000
   239 H150      0.4126    3.1873   -2.3487   H         1 RES1   0.0000
   240 C77      -1.1456   -3.6798   -9.2211   C.3       1 RES1   0.0000
   241 C78       0.2389   -4.0851   -9.7104   C.3       1 RES1   0.0000
   242 C79       1.1391   -2.8885  -10.0251   C.3       1 RES1   0.0000
   243 C80       1.3383   -1.9002   -8.8708   C.3       1 RES1   0.0000
   244 C81       2.0148   -2.5171   -7.6427   C.3       1 RES1   0.0000
   245 C82       2.2575   -1.4673   -6.5554   C.3       1 RES1   0.0000
   246 C83       3.1227   -1.9359   -5.3777   C.3       1 RES1   0.0000
   247 C84       2.5619   -2.7830   -4.2219   C.3       1 RES1   0.0000
   248 N7        1.5788   -2.2470   -3.2661   N.am      1 RES1   0.0000
   249 C85       0.2151   -2.7854   -3.3983   C.3       1 RES1   0.0000
   250 C86      -0.4506   -2.6586   -4.7741   C.3       1 RES1   0.0000
   251 C87      -1.1819   -1.3193   -4.8896   C.3       1 RES1   0.0000
   252 C88      -1.7772   -0.9713   -6.2605   C.3       1 RES1   0.0000
   253 C89      -2.9453   -1.8116   -6.7891   C.3       1 RES1   0.0000
   254 C90      -4.3373   -1.3515   -6.3535   C.3       1 RES1   0.0000
   255 C91      -4.6872   -1.6213   -4.8933   C.3       1 RES1   0.0000
   256 C92      -4.6432   -3.0972   -4.5200   C.3       1 RES1   0.0000
   257 C93       1.8571   -1.7297   -2.0533   C.2       1 RES1   0.0000
   258 O7        1.0175   -1.7192   -1.1380   O.2       1 RES1   0.0000
   259 C94       3.2385   -1.1097   -1.7803   C.3       1 RES1   0.0000
   260 N8        3.4109   -0.3981   -0.5108   N.am      1 RES1   0.0000
   261 C95       4.2512   -0.9275    0.5514   C.3       1 RES1   0.0000
   262 C96       3.3769   -0.9797    1.8248   C.2       1 RES1   0.0000
   263 O8        2.1591   -1.0804    1.6575   O.2       1 RES1   0.0000
   264 N9        3.9439   -0.9614    3.0393   N.am      1 RES1   0.0000
   265 C97       3.0998   -1.3515    4.1764   C.3       1 RES1   0.0000
   266 C98       2.5281   -0.2644    5.1016   C.3       1 RES1   0.0000
   267 C99       1.8097   -0.8842    6.3134   C.3       1 RES1   0.0000
   268 C100      1.4389    0.1178    7.4284   C.3       1 RES1   0.0000
   269 C101     -0.0729    0.1917    7.6824   C.3       1 RES1   0.0000
   270 C102     -0.8360    0.9950    6.6249   C.3       1 RES1   0.0000
   271 C103     -0.9556    2.4942    6.9124   C.3       1 RES1   0.0000
   272 C104      0.3458    3.2714    6.7585   C.3       1 RES1   0.0000
   273 C105      5.3900   -0.9049    3.2490   C.3       1 RES1   0.0000
   274 C106      5.9839    0.5079    3.3414   C.3       1 RES1   0.0000
   275 C107      5.3772    1.3198    4.4804   C.3       1 RES1   0.0000
   276 C108      6.1276    2.5999    4.8394   C.3       1 RES1   0.0000
   277 C109      5.5551    3.2457    6.1083   C.3       1 RES1   0.0000
   278 C110      4.0586    3.5818    6.1012   C.3       1 RES1   0.0000
   279 C111      3.6361    4.7237    5.1722   C.3       1 RES1   0.0000
   280 C112      3.3409    4.3055    3.7359   C.3       1 RES1   0.0000
   281 C113      2.7189    0.7338   -0.2289   C.2       1 RES1   0.0000
   282 C114      3.2897    1.7440    0.7323   C.3       1 RES1   0.0000
   283 O9        1.6642    1.0220   -0.8081   O.2       1 RES1   0.0000
   284 H151     -1.7907   -4.5514   -9.1506   H         1 RES1   0.0000
   285 H152     -1.0888   -3.2207   -8.2380   H         1 RES1   0.0000
   286 H153     -1.6030   -2.9746   -9.9120   H         1 RES1   0.0000
   287 H154      0.7165   -4.7295   -8.9697   H         1 RES1   0.0000
   288 H155      0.1326   -4.6688  -10.6251   H         1 RES1   0.0000
   289 H156      2.1170   -3.2577  -10.3442   H         1 RES1   0.0000
   290 H157      0.7008   -2.3418  -10.8644   H         1 RES1   0.0000
   291 H158      1.9555   -1.0746   -9.2384   H         1 RES1   0.0000
   292 H159      0.3714   -1.4781   -8.5869   H         1 RES1   0.0000
   293 H160      1.4011   -3.3386   -7.2704   H         1 RES1   0.0000
   294 H161      2.9744   -2.9313   -7.9563   H         1 RES1   0.0000
   295 H162      2.8113   -0.6542   -7.0349   H         1 RES1   0.0000
   296 H163      1.3109   -1.0451   -6.2195   H         1 RES1   0.0000
   297 H164      3.9237   -2.5450   -5.8043   H         1 RES1   0.0000
   298 H165      3.5977   -1.0655   -4.9428   H         1 RES1   0.0000
   299 H166      2.1145   -3.6923   -4.6261   H         1 RES1   0.0000
   300 H167      3.4469   -3.0732   -3.6532   H         1 RES1   0.0000
   301 H168      0.2528   -3.8346   -3.0920   H         1 RES1   0.0000
   302 H169     -0.4059   -2.2448   -2.6784   H         1 RES1   0.0000
   303 H170      0.2638   -2.7664   -5.5844   H         1 RES1   0.0000
   304 H171     -1.1590   -3.4816   -4.8661   H         1 RES1   0.0000
   305 H172     -1.9368   -1.2867   -4.1023   H         1 RES1   0.0000
   306 H173     -0.4469   -0.5479   -4.6667   H         1 RES1   0.0000
   307 H174     -2.1039    0.0751   -6.2444   H         1 RES1   0.0000
   308 H175     -0.9608   -1.0324   -6.9832   H         1 RES1   0.0000
   309 H176     -2.9259   -1.7364   -7.8773   H         1 RES1   0.0000
   310 H177     -2.7966   -2.8602   -6.5389   H         1 RES1   0.0000
   311 H178     -4.4376   -0.2790   -6.5477   H         1 RES1   0.0000
   312 H179     -5.0739   -1.8566   -6.9797   H         1 RES1   0.0000
   313 H180     -3.9986   -1.0656   -4.2524   H         1 RES1   0.0000
   314 H181     -5.6963   -1.2410   -4.7175   H         1 RES1   0.0000
   315 H182     -3.6356   -3.4941   -4.6051   H         1 RES1   0.0000
   316 H183     -4.9776   -3.2488   -3.4958   H         1 RES1   0.0000
   317 H184     -5.2922   -3.6697   -5.1757   H         1 RES1   0.0000
   318 H185      4.0173   -1.8738   -1.8392   H         1 RES1   0.0000
   319 H186      3.4263   -0.3746   -2.5640   H         1 RES1   0.0000
   320 H187      4.5416   -1.9547    0.3089   H         1 RES1   0.0000
   321 H188      5.1684   -0.3482    0.6680   H         1 RES1   0.0000
   322 H189      2.2660   -1.9085    3.7450   H         1 RES1   0.0000
   323 H190      3.6989   -2.0259    4.7902   H         1 RES1   0.0000
   324 H191      3.3353    0.3464    5.4868   H         1 RES1   0.0000
   325 H192      1.8492    0.3811    4.5389   H         1 RES1   0.0000
   326 H193      0.8889   -1.3745    5.9981   H         1 RES1   0.0000
   327 H194      2.4567   -1.6563    6.7348   H         1 RES1   0.0000
   328 H195      1.9115   -0.1982    8.3572   H         1 RES1   0.0000
   329 H196      1.8269    1.1050    7.1885   H         1 RES1   0.0000
   330 H197     -0.4622   -0.8312    7.7053   H         1 RES1   0.0000
   331 H198     -0.2727    0.6185    8.6670   H         1 RES1   0.0000
   332 H199     -0.3404    0.8484    5.6627   H         1 RES1   0.0000
   333 H200     -1.8500    0.5900    6.5603   H         1 RES1   0.0000
   334 H201     -1.7021    2.9199    6.2329   H         1 RES1   0.0000
   335 H202     -1.3409    2.6326    7.9218   H         1 RES1   0.0000
   336 H203      0.8611    3.0022    5.8382   H         1 RES1   0.0000
   337 H204      0.1431    4.3382    6.7247   H         1 RES1   0.0000
   338 H205      1.0141    3.0882    7.5937   H         1 RES1   0.0000
   339 H206      5.6037   -1.4297    4.1828   H         1 RES1   0.0000
   340 H207      5.8999   -1.4669    2.4624   H         1 RES1   0.0000
   341 H208      7.0533    0.3748    3.5045   H         1 RES1   0.0000
   342 H209      5.8562    1.0541    2.4052   H         1 RES1   0.0000
   343 H210      4.3608    1.5905    4.2018   H         1 RES1   0.0000
   344 H211      5.3454    0.6947    5.3751   H         1 RES1   0.0000
   345 H212      7.1739    2.3585    5.0345   H         1 RES1   0.0000
   346 H213      6.1037    3.3092    4.0119   H         1 RES1   0.0000
   347 H214      5.7334    2.5535    6.9368   H         1 RES1   0.0000
   348 H215      6.1147    4.1595    6.3247   H         1 RES1   0.0000
   349 H216      3.4724    2.6880    5.8735   H         1 RES1   0.0000
   350 H217      3.8061    3.8750    7.1228   H         1 RES1   0.0000
   351 H218      2.7323    5.1768    5.5839   H         1 RES1   0.0000
   352 H219      4.4131    5.4878    5.1695   H         1 RES1   0.0000
   353 H220      2.6194    3.4887    3.7072   H         1 RES1   0.0000
   354 H221      2.9183    5.1454    3.1897   H         1 RES1   0.0000
   355 H222      4.2403    3.9882    3.2176   H         1 RES1   0.0000
   356 H223      4.3608    1.6584    0.8636   H         1 RES1   0.0000
   357 H224      3.0461    2.7310    0.3315   H         1 RES1   0.0000
   358 H225      2.8014    1.6548    1.7013   H         1 RES1   0.0000
@<TRIPOS>BOND
     1     1    20    1
     2     1    25    1
     3     1    45    1
     4     1   139    1
     5     1   144    1
     6     1   164    1
     7     1   258    1
     8     1   263    1
     9     1   283    1
    10     2     3    1
    11     2    46    1
    12     2    47    1
    13     2    48    1
    14     3     4    1
    15     3    49    1
    16     3    50    1
    17     4     5    1
    18     4    51    1
    19     4    52    1
    20     5     6    1
    21     5    53    1
    22     5    54    1
    23     6     7    1
    24     6    55    1
    25     6    56    1
    26     7     8    1
    27     7    57    1
    28     7    58    1
    29     8     9    1
    30     8    59    1
    31     8    60    1
    32     9    10    1
    33     9    61    1
    34     9    62    1
    35    10    11    1
    36    10    19    1
    37    11    12    1
    38    11    63    1
    39    11    64    1
    40    12    13    1
    41    12    65    1
    42    12    66    1
    43    13    14    1
    44    13    67    1
    45    13    68    1
    46    14    15    1
    47    14    69    1
    48    14    70    1
    49    15    16    1
    50    15    71    1
    51    15    72    1
    52    16    17    1
    53    16    73    1
    54    16    74    1
    55    17    18    1
    56    17    75    1
    57    17    76    1
    58    18    77    1
    59    18    78    1
    60    18    79    1
    61    19    20    2
    62    19    21    1
    63    21    22    1
    64    21    80    1
    65    21    81    1
    66    22    23    1
    67    22    43    1
    68    23    24    1
    69    23    82    1
    70    23    83    1
    71    24    25    2
    72    24    26    1
    73    26    27    1
    74    26    35    1
    75    27    28    1
    76    27    84    1
    77    27    85    1
    78    28    29    1
    79    28    86    1
    80    28    87    1
    81    29    30    1
    82    29    88    1
    83    29    89    1
    84    30    31    1
    85    30    90    1
    86    30    91    1
    87    31    32    1
    88    31    92    1
    89    31    93    1
    90    32    33    1
    91    32    94    1
    92    32    95    1
    93    33    34    1
    94    33    96    1
    95    33    97    1
    96    34    98    1
    97    34    99    1
    98    34   100    1
    99    35    36    1
   100    35   101    1
   101    35   102    1
   102    36    37    1
   103    36   103    1
   104    36   104    1
   105    37    38    1
   106    37   105    1
   107    37   106    1
   108    38    39    1
   109    38   107    1
   110    38   108    1
   111    39    40    1
   112    39   109    1
   113    39   110    1
   114    40    41    1
   115    40   111    1
   116    40   112    1
   117    41    42    1
   118    41   113    1
   119    41   114    1
   120    42   115    1
   121    42   116    1
   122    42   117    1
   123    43    44    1
   124    43    45    2
   125    44   118    1
   126    44   119    1
   127    44   120    1
   128   121   122    1
   129   121   165    1
   130   121   166    1
   131   121   167    1
   132   122   123    1
   133   122   168    1
   134   122   169    1
   135   123   124    1
   136   123   170    1
   137   123   171    1
   138   124   125    1
   139   124   172    1
   140   124   173    1
   141   125   126    1
   142   125   174    1
   143   125   175    1
   144   126   127    1
   145   126   176    1
   146   126   177    1
   147   127   128    1
   148   127   178    1
   149   127   179    1
   150   128   129    1
   151   128   180    1
   152   128   181    1
   153   129   130    1
   154   129   138    1
   155   130   131    1
   156   130   182    1
   157   130   183    1
   158   131   132    1
   159   131   184    1
   160   131   185    1
   161   132   133    1
   162   132   186    1
   163   132   187    1
   164   133   134    1
   165   133   188    1
   166   133   189    1
   167   134   135    1
   168   134   190    1
   169   134   191    1
   170   135   136    1
   171   135   192    1
   172   135   193    1
   173   136   137    1
   174   136   194    1
   175   136   195    1
   176   137   196    1
   177   137   197    1
   178   137   198    1
   179   138   139    2
   180   138   140    1
   181   140   141    1
   182   140   199    1
   183   140   200    1
   184   141   142    1
   185   141   162    1
   186   142   143    1
   187   142   201    1
   188   142   202    1
   189   143   144    2
   190   143   145    1
   191   145   146    1
   192   145   154    1
   193   146   147    1
   194   146   203    1
   195   146   204    1
   196   147   148    1
   197   147   205    1
   198   147   206    1
   199   148   149    1
   200   148   207    1
   201   148   208    1
   202   149   150    1
   203   149   209    1
   204   149   210    1
   205   150   151    1
   206   150   211    1
   207   150   212    1
   208   151   152    1
   209   151   213    1
   210   151   214    1
   211   152   153    1
   212   152   215    1
   213   152   216    1
   214   153   217    1
   215   153   218    1
   216   153   219    1
   217   154   155    1
   218   154   220    1
   219   154   221    1
   220   155   156    1
   221   155   222    1
   222   155   223    1
   223   156   157    1
   224   156   224    1
   225   156   225    1
   226   157   158    1
   227   157   226    1
   228   157   227    1
   229   158   159    1
   230   158   228    1
   231   158   229    1
   232   159   160    1
   233   159   230    1
   234   159   231    1
   235   160   161    1
   236   160   232    1
   237   160   233    1
   238   161   234    1
   239   161   235    1
   240   161   236    1
   241   162   163    1
   242   162   164    2
   243   163   237    1
   244   163   238    1
   245   163   239    1
   246   240   241    1
   247   240   284    1
   248   240   285    1
   249   240   286    1
   250   241   242    1
   251   241   287    1
   252   241   288    1
   253   242   243    1
   254   242   289    1
   255   242   290    1
   256   243   244    1
   257   243   291    1
   258   243   292    1
   259   244   245    1
   260   244   293    1
   261   244   294    1
   262   245   246    1
   263   245   295    1
   264   245   296    1
   265   246   247    1
   266   246   297    1
   267   246   298    1
   268   247   248    1
   269   247   299    1
   270   247   300    1
   271   248   249    1
   272   248   257    1
   273   249   250    1
   274   249   301    1
   275   249   302    1
   276   250   251    1
   277   250   303    1
   278   250   304    1
   279   251   252    1
   280   251   305    1
   281   251   306    1
   282   252   253    1
   283   252   307    1
   284   252   308    1
   285   253   254    1
   286   253   309    1
   287   253   310    1
   288   254   255    1
   289   254   311    1
   290   254   312    1
   291   255   256    1
   292   255   313    1
   293   255   314    1
   294   256   315    1
   295   256   316    1
   296   256   317    1
   297   257   258    2
   298   257   259    1
   299   259   260    1
   300   259   318    1
   301   259   319    1
   302   260   261    1
   303   260   281    1
   304   261   262    1
   305   261   320    1
   306   261   321    1
   307   262   263    2
   308   262   264    1
   309   264   265    1
   310   264   273    1
   311   265   266    1
   312   265   322    1
   313   265   323    1
   314   266   267    1
   315   266   324    1
   316   266   325    1
   317   267   268    1
   318   267   326    1
   319   267   327    1
   320   268   269    1
   321   268   328    1
   322   268   329    1
   323   269   270    1
   324   269   330    1
   325   269   331    1
   326   270   271    1
   327   270   332    1
   328   270   333    1
   329   271   272    1
   330   271   334    1
   331   271   335    1
   332   272   336    1
   333   272   337    1
   334   272   338    1
   335   273   274    1
   336   273   339    1
   337   273   340    1
   338   274   275    1
   339   274   341    1
   340   274   342    1
   341   275   276    1
   342   275   343    1
   343   275   344    1
   344   276   277    1
   345   276   345    1
   346   276   346    1
   347   277   278    1
   348   277   347    1
   349   277   348    1
   350   278   279    1
   351   278   349    1
   352   278   350    1
   353   279   280    1
   354   279   351    1
   355   279   352    1
   356   280   353    1
   357   280   354    1
   358   280   355    1
   359   281   282    1
   360   281   283    2
   361   282   356    1
   362   282   357    1
   363   282   358    1
@<TRIPOS>SUBSTRUCTURE
     1 RES1      358 GROUP             0 ****  ****    0  
