@<TRIPOS>MOLECULE
tri_tri_mer_capped_0_nunpairedes_0_charge_3 Charge: 3 Unpaired_Electrons: 6 XTB_Unpaired_Electrons: 0 XTB_Charge: 3
   103   106     1     0     0
SMALL
NoCharges
****
Generated from Architector

@<TRIPOS>ATOM
     1 Eu1       0.1885   -0.1391    0.0690   Eu        1 RES1   0.0000
     2 C1       -3.9887    1.7088    3.5807   C.3       1 RES1   0.0000
     3 C2       -3.8370    0.6671    4.6828   C.3       1 RES1   0.0000
     4 C3       -3.2367   -0.6359    4.1594   C.3       1 RES1   0.0000
     5 C4       -3.1434   -1.6995    5.2536   C.3       1 RES1   0.0000
     6 C5       -2.4554   -2.9901    4.8020   C.3       1 RES1   0.0000
     7 C6       -1.0372   -2.7970    4.2556   C.3       1 RES1   0.0000
     8 C7       -0.0679   -2.2187    5.2936   C.3       1 RES1   0.0000
     9 C8        1.1553   -1.5544    4.6531   C.3       1 RES1   0.0000
    10 N1        0.9628   -0.1221    4.4062   N.am      1 RES1   0.0000
    11 C9        1.3502    0.7773    5.4934   C.3       1 RES1   0.0000
    12 C10       2.6271    1.5884    5.2199   C.3       1 RES1   0.0000
    13 C11       3.8587    0.7444    4.8481   C.3       1 RES1   0.0000
    14 C12       4.4650    1.1114    3.4868   C.3       1 RES1   0.0000
    15 C13       5.4305    2.3027    3.5248   C.3       1 RES1   0.0000
    16 C14       4.8210    3.6805    3.7857   C.3       1 RES1   0.0000
    17 C15       3.8536    4.1756    2.7085   C.3       1 RES1   0.0000
    18 C16       4.5178    4.3863    1.3516   C.3       1 RES1   0.0000
    19 C17       0.4767    0.2657    3.2568   C.2       1 RES1   0.0000
    20 O1        0.1524   -0.5432    2.3363   O.2       1 RES1   0.0000
    21 C18       0.3475    1.7357    2.8509   C.3       1 RES1   0.0000
    22 O2        1.2398    1.8302    1.7166   O.3       1 RES1   0.0000
    23 C19       0.9915    2.9320    0.8845   C.3       1 RES1   0.0000
    24 P1        0.3395    2.3064   -1.6877   P.3       1 RES1   0.0000
    25 O3        0.0217    2.5037   -0.0557   O.2       1 RES1   0.0000
    26 O4        1.5016    1.1421   -1.4426   O.3       1 RES1   0.0000
    27 C20       2.4655    0.9085   -2.5296   C.3       1 RES1   0.0000
    28 C21       3.0424   -0.4928   -2.3638   C.3       1 RES1   0.0000
    29 C22       4.2844   -0.5391   -1.4671   C.3       1 RES1   0.0000
    30 C23       5.5147    0.1138   -2.0783   C.3       1 RES1   0.0000
    31 O5       -0.8671    1.2138   -1.7969   O.3       1 RES1   0.0000
    32 C24      -2.1851    1.6556   -2.2535   C.3       1 RES1   0.0000
    33 C25      -2.7367    0.6318   -3.2425   C.3       1 RES1   0.0000
    34 C26      -2.3320    0.8841   -4.7005   C.3       1 RES1   0.0000
    35 C27      -0.8735    0.6004   -5.0387   C.3       1 RES1   0.0000
    36 H1       -4.3888    2.6316    3.9908   H         1 RES1   0.0000
    37 H2       -4.6823    1.3601    2.8173   H         1 RES1   0.0000
    38 H3       -3.0232    1.9327    3.1161   H         1 RES1   0.0000
    39 H4       -4.8160    0.4647    5.1173   H         1 RES1   0.0000
    40 H5       -3.2034    1.0644    5.4786   H         1 RES1   0.0000
    41 H6       -2.2352   -0.4177    3.7650   H         1 RES1   0.0000
    42 H7       -3.8641   -1.0229    3.3494   H         1 RES1   0.0000
    43 H8       -4.1506   -1.9527    5.5862   H         1 RES1   0.0000
    44 H9       -2.6242   -1.2804    6.1156   H         1 RES1   0.0000
    45 H10      -3.0619   -3.4630    4.0256   H         1 RES1   0.0000
    46 H11      -2.4168   -3.6769    5.6491   H         1 RES1   0.0000
    47 H12      -1.0603   -2.1442    3.3786   H         1 RES1   0.0000
    48 H13      -0.6577   -3.7671    3.9244   H         1 RES1   0.0000
    49 H14       0.2745   -3.0248    5.9433   H         1 RES1   0.0000
    50 H15      -0.5739   -1.4833    5.9197   H         1 RES1   0.0000
    51 H16       1.3915   -2.0397    3.7024   H         1 RES1   0.0000
    52 H17       2.0122   -1.6524    5.3179   H         1 RES1   0.0000
    53 H18       1.5116    0.1479    6.3702   H         1 RES1   0.0000
    54 H19       0.5234    1.4588    5.7108   H         1 RES1   0.0000
    55 H20       2.8235    2.1514    6.1328   H         1 RES1   0.0000
    56 H21       2.4581    2.3162    4.4288   H         1 RES1   0.0000
    57 H22       3.5936   -0.3141    4.8345   H         1 RES1   0.0000
    58 H23       4.6305    0.8606    5.6090   H         1 RES1   0.0000
    59 H24       3.6631    1.2876    2.7581   H         1 RES1   0.0000
    60 H25       5.0421    0.2512    3.1365   H         1 RES1   0.0000
    61 H26       5.9695    2.3377    2.5772   H         1 RES1   0.0000
    62 H27       6.1710    2.1090    4.3026   H         1 RES1   0.0000
    63 H28       5.6432    4.3944    3.8473   H         1 RES1   0.0000
    64 H29       4.3189    3.6895    4.7540   H         1 RES1   0.0000
    65 H30       3.4366    5.1266    3.0454   H         1 RES1   0.0000
    66 H31       3.0198    3.4732    2.5978   H         1 RES1   0.0000
    67 H32       5.3843    5.0347    1.4551   H         1 RES1   0.0000
    68 H33       3.8270    4.8680    0.6600   H         1 RES1   0.0000
    69 H34       4.8448    3.4420    0.9176   H         1 RES1   0.0000
    70 H35       0.6403    2.4684    3.6050   H         1 RES1   0.0000
    71 H36      -0.6978    1.9136    2.5392   H         1 RES1   0.0000
    72 H37       1.9472    3.1980    0.4171   H         1 RES1   0.0000
    73 H38       0.5764    3.7832    1.4366   H         1 RES1   0.0000
    74 H39       3.2506    1.6599   -2.4381   H         1 RES1   0.0000
    75 H40       1.9705    1.0213   -3.4983   H         1 RES1   0.0000
    76 H41       3.2992   -0.8794   -3.3507   H         1 RES1   0.0000
    77 H42       2.2607   -1.1436   -1.9247   H         1 RES1   0.0000
    78 H43       4.5143   -1.5859   -1.2765   H         1 RES1   0.0000
    79 H44       4.0708   -0.0536   -0.5119   H         1 RES1   0.0000
    80 H45       5.6770   -0.2331   -3.0915   H         1 RES1   0.0000
    81 H46       6.3918   -0.1462   -1.4954   H         1 RES1   0.0000
    82 H47       5.4443    1.1960   -2.1002   H         1 RES1   0.0000
    83 H48      -2.1087    2.6466   -2.7110   H         1 RES1   0.0000
    84 H49      -2.8246    1.7379   -1.3675   H         1 RES1   0.0000
    85 H50      -3.8276    0.6564   -3.1869   H         1 RES1   0.0000
    86 H51      -2.4142   -0.3622   -2.9100   H         1 RES1   0.0000
    87 H52      -2.5644    1.9214   -4.9477   H         1 RES1   0.0000
    88 H53      -2.9517    0.2514   -5.3366   H         1 RES1   0.0000
    89 H54      -0.1914    1.2242   -4.4577   H         1 RES1   0.0000
    90 H55      -0.7181    0.8240   -6.0916   H         1 RES1   0.0000
    91 H56      -0.6298   -0.4529   -4.8868   H         1 RES1   0.0000
    92 O6       -0.1750   -1.4779   -2.1132   O.3       1 RES1   0.0000
    93 H57      -0.7939   -2.2149   -2.2612   H         1 RES1   0.0000
    94 H58      -0.0349   -1.0959   -2.9977   H         1 RES1   0.0000
    95 O7        2.3296   -1.1540    0.8799   O.3       1 RES1   0.0000
    96 H59       2.5053   -2.0702    1.1451   H         1 RES1   0.0000
    97 H60       3.0639   -0.6428    1.2689   H         1 RES1   0.0000
    98 O8       -2.2024   -0.0196    0.9028   O.3       1 RES1   0.0000
    99 H61      -2.8736    0.6741    1.0150   H         1 RES1   0.0000
   100 H62      -2.4344   -0.6670    1.5985   H         1 RES1   0.0000
   101 O9       -0.4665   -2.5728    0.3172   O.3       1 RES1   0.0000
   102 H63       0.1164   -3.3373    0.2013   H         1 RES1   0.0000
   103 H64      -1.2963   -2.9463    0.6504   H         1 RES1   0.0000
@<TRIPOS>BOND
     1     1    20    1
     2     1    22    1
     3     1    25    1
     4     1    26    1
     5     1    31    1
     6     1    92    1
     7     1    95    1
     8     1    98    1
     9     1   101    1
    10     2     3    1
    11     2    36    1
    12     2    37    1
    13     2    38    1
    14     3     4    1
    15     3    39    1
    16     3    40    1
    17     4     5    1
    18     4    41    1
    19     4    42    1
    20     5     6    1
    21     5    43    1
    22     5    44    1
    23     6     7    1
    24     6    45    1
    25     6    46    1
    26     7     8    1
    27     7    47    1
    28     7    48    1
    29     8     9    1
    30     8    49    1
    31     8    50    1
    32     9    10    1
    33     9    51    1
    34     9    52    1
    35    10    11    1
    36    10    19    1
    37    11    12    1
    38    11    53    1
    39    11    54    1
    40    12    13    1
    41    12    55    1
    42    12    56    1
    43    13    14    1
    44    13    57    1
    45    13    58    1
    46    14    15    1
    47    14    59    1
    48    14    60    1
    49    15    16    1
    50    15    61    1
    51    15    62    1
    52    16    17    1
    53    16    63    1
    54    16    64    1
    55    17    18    1
    56    17    65    1
    57    17    66    1
    58    18    67    1
    59    18    68    1
    60    18    69    1
    61    19    20    2
    62    19    21    1
    63    21    22    1
    64    21    70    1
    65    21    71    1
    66    22    23    1
    67    23    24    1
    68    23    72    1
    69    23    73    1
    70    24    25    2
    71    24    26    1
    72    24    31    1
    73    26    27    1
    74    27    28    1
    75    27    74    1
    76    27    75    1
    77    28    29    1
    78    28    76    1
    79    28    77    1
    80    29    30    1
    81    29    78    1
    82    29    79    1
    83    30    80    1
    84    30    81    1
    85    30    82    1
    86    31    32    1
    87    32    33    1
    88    32    83    1
    89    32    84    1
    90    33    34    1
    91    33    85    1
    92    33    86    1
    93    34    35    1
    94    34    87    1
    95    34    88    1
    96    35    89    1
    97    35    90    1
    98    35    91    1
    99    92    93    1
   100    92    94    1
   101    95    96    1
   102    95    97    1
   103    98    99    1
   104    98   100    1
   105   101   102    1
   106   101   103    1
@<TRIPOS>SUBSTRUCTURE
     1 RES1      103 GROUP             0 ****  ****    0  
