@<TRIPOS>MOLECULE
tricapped_trigonal_prismatic_0_nunpairedes_0_charge_3 Charge: 3 Unpaired_Electrons: 6 XTB_Unpaired_Electrons: 0 XTB_Charge: 3
   373   381     1     0     0
SMALL
NoCharges
****
Generated from Architector

@<TRIPOS>ATOM
     1 Eu1      -0.1488    0.0557   -0.0493   Eu        1 RES1   0.0000
     2 C1        4.4759    6.6063   -6.9058   C.3       1 RES1   0.0000
     3 C2        3.3230    6.0451   -6.0843   C.3       1 RES1   0.0000
     4 C3        3.6021    4.6367   -5.5566   C.3       1 RES1   0.0000
     5 C4        3.6949    3.6021   -6.6771   C.3       1 RES1   0.0000
     6 C5        3.8639    2.1727   -6.1640   C.3       1 RES1   0.0000
     7 C6        2.6789    1.6834   -5.3325   C.3       1 RES1   0.0000
     8 C7        2.8612    0.2574   -4.8139   C.3       1 RES1   0.0000
     9 C8        3.7942    0.0991   -3.6031   C.3       1 RES1   0.0000
    10 N1        3.7208    1.1186   -2.5617   N.am      1 RES1   0.0000
    11 C9        4.8111    2.0785   -2.5863   C.3       1 RES1   0.0000
    12 C10       6.0697    1.4869   -1.9431   C.3       1 RES1   0.0000
    13 C11       7.0963    2.5375   -1.5225   C.3       1 RES1   0.0000
    14 C12       7.9285    3.0761   -2.6840   C.3       1 RES1   0.0000
    15 C13       7.2272    4.0457   -3.6380   C.3       1 RES1   0.0000
    16 C14       6.5410    5.2410   -2.9749   C.3       1 RES1   0.0000
    17 C15       7.5056    6.1386   -2.2029   C.3       1 RES1   0.0000
    18 C16       6.7983    7.3772   -1.6674   C.3       1 RES1   0.0000
    19 C17       2.8678    0.9938   -1.5559   C.2       1 RES1   0.0000
    20 O1        1.9159    0.1798   -1.5831   O.2       1 RES1   0.0000
    21 C18       3.0266    1.8039   -0.2826   C.3       1 RES1   0.0000
    22 N2        1.7331    2.4154    0.0194   N.pl3     1 RES1   0.0000
    23 C19       1.5357    2.7976    1.4208   C.3       1 RES1   0.0000
    24 C20       0.0205    2.9510    1.5196   C.2       1 RES1   0.0000
    25 O2       -0.6574    2.0563    0.9716   O.2       1 RES1   0.0000
    26 N3       -0.5366    4.0013    2.0903   N.am      1 RES1   0.0000
    27 C21       0.1545    4.9822    2.9118   C.3       1 RES1   0.0000
    28 C22       0.2767    6.3061    2.1705   C.3       1 RES1   0.0000
    29 C23       0.9306    7.4318    2.9637   C.3       1 RES1   0.0000
    30 C24       1.1336    8.6503    2.0575   C.3       1 RES1   0.0000
    31 C25      -0.0810    9.0650    1.2200   C.3       1 RES1   0.0000
    32 C26      -1.2598    9.6488    2.0086   C.3       1 RES1   0.0000
    33 C27      -2.2417    8.6470    2.6224   C.3       1 RES1   0.0000
    34 C28      -3.4634    9.3638    3.1873   C.3       1 RES1   0.0000
    35 C29      -1.9749    4.1831    1.9349   C.3       1 RES1   0.0000
    36 C30      -2.4653    4.3273    0.4879   C.3       1 RES1   0.0000
    37 C31      -1.8280    5.4318   -0.3624   C.3       1 RES1   0.0000
    38 C32      -2.7853    5.8156   -1.4960   C.3       1 RES1   0.0000
    39 C33      -2.1302    6.2766   -2.7963   C.3       1 RES1   0.0000
    40 C34      -3.2112    6.4025   -3.8728   C.3       1 RES1   0.0000
    41 C35      -2.7050    6.5328   -5.3104   C.3       1 RES1   0.0000
    42 C36      -3.7894    6.1182   -6.3009   C.3       1 RES1   0.0000
    43 C37       1.5775    3.5517   -0.8600   C.ar      1 RES1   0.0000
    44 C38       0.9012    3.3483   -2.0526   C.ar      1 RES1   0.0000
    45 C39       0.8161    4.3654   -2.9871   C.ar      1 RES1   0.0000
    46 C40       1.3743    5.6054   -2.7160   C.ar      1 RES1   0.0000
    47 C41       2.0273    5.8200   -1.5167   C.ar      1 RES1   0.0000
    48 C42       2.1517    4.7902   -0.6021   C.ar      1 RES1   0.0000
    49 H1        4.2791    7.6389   -7.1755   H         1 RES1   0.0000
    50 H2        4.6129    6.0407   -7.8220   H         1 RES1   0.0000
    51 H3        5.4005    6.5723   -6.3346   H         1 RES1   0.0000
    52 H4        2.4131    6.0209   -6.6897   H         1 RES1   0.0000
    53 H5        3.1378    6.7035   -5.2312   H         1 RES1   0.0000
    54 H6        2.7988    4.3628   -4.8656   H         1 RES1   0.0000
    55 H7        4.5357    4.6453   -4.9901   H         1 RES1   0.0000
    56 H8        4.5531    3.8330   -7.3093   H         1 RES1   0.0000
    57 H9        2.7965    3.6682   -7.2952   H         1 RES1   0.0000
    58 H10       4.7889    2.1133   -5.5892   H         1 RES1   0.0000
    59 H11       3.9781    1.5068   -7.0213   H         1 RES1   0.0000
    60 H12       1.8015    1.6961   -5.9829   H         1 RES1   0.0000
    61 H13       2.4805    2.3546   -4.4929   H         1 RES1   0.0000
    62 H14       3.2641   -0.3613   -5.6189   H         1 RES1   0.0000
    63 H15       1.8834   -0.1516   -4.5674   H         1 RES1   0.0000
    64 H16       4.8261    0.0892   -3.9482   H         1 RES1   0.0000
    65 H17       3.5778   -0.8586   -3.1222   H         1 RES1   0.0000
    66 H18       4.5075    2.9981   -2.0870   H         1 RES1   0.0000
    67 H19       4.9999    2.3251   -3.6287   H         1 RES1   0.0000
    68 H20       6.5518    0.7957   -2.6380   H         1 RES1   0.0000
    69 H21       5.7558    0.9148   -1.0667   H         1 RES1   0.0000
    70 H22       7.7808    2.0724   -0.8119   H         1 RES1   0.0000
    71 H23       6.6071    3.3534   -0.9933   H         1 RES1   0.0000
    72 H24       8.2790    2.2225   -3.2657   H         1 RES1   0.0000
    73 H25       8.8083    3.5684   -2.2724   H         1 RES1   0.0000
    74 H26       6.5000    3.5082   -4.2507   H         1 RES1   0.0000
    75 H27       7.9839    4.4294   -4.3234   H         1 RES1   0.0000
    76 H28       5.7407    4.9061   -2.3067   H         1 RES1   0.0000
    77 H29       6.0689    5.8398   -3.7581   H         1 RES1   0.0000
    78 H30       8.3156    6.4413   -2.8687   H         1 RES1   0.0000
    79 H31       7.9470    5.5819   -1.3735   H         1 RES1   0.0000
    80 H32       6.3714    7.9558   -2.4827   H         1 RES1   0.0000
    81 H33       7.4985    8.0080   -1.1299   H         1 RES1   0.0000
    82 H34       5.9940    7.0991   -0.9884   H         1 RES1   0.0000
    83 H35       3.8329    2.5418   -0.2925   H         1 RES1   0.0000
    84 H36       3.2598    1.0546    0.4771   H         1 RES1   0.0000
    85 H37       2.0883    3.6900    1.7287   H         1 RES1   0.0000
    86 H38       1.8473    1.9668    2.0579   H         1 RES1   0.0000
    87 H39       1.1294    4.6022    3.2074   H         1 RES1   0.0000
    88 H40      -0.4253    5.1309    3.8263   H         1 RES1   0.0000
    89 H41      -0.7268    6.6357    1.9218   H         1 RES1   0.0000
    90 H42       0.8259    6.1559    1.2387   H         1 RES1   0.0000
    91 H43       1.9027    7.1233    3.3548   H         1 RES1   0.0000
    92 H44       0.3076    7.7017    3.8161   H         1 RES1   0.0000
    93 H45       1.9536    8.4310    1.3688   H         1 RES1   0.0000
    94 H46       1.4427    9.5024    2.6633   H         1 RES1   0.0000
    95 H47      -0.4208    8.2339    0.5987   H         1 RES1   0.0000
    96 H48       0.2646    9.8355    0.5280   H         1 RES1   0.0000
    97 H49      -1.8337   10.2804    1.3271   H         1 RES1   0.0000
    98 H50      -0.8681   10.2930    2.7970   H         1 RES1   0.0000
    99 H51      -1.7654    8.0817    3.4271   H         1 RES1   0.0000
   100 H52      -2.5726    7.9422    1.8507   H         1 RES1   0.0000
   101 H53      -3.1647   10.0930    3.9347   H         1 RES1   0.0000
   102 H54      -4.1416    8.6536    3.6526   H         1 RES1   0.0000
   103 H55      -3.9990    9.8858    2.3991   H         1 RES1   0.0000
   104 H56      -2.2505    5.0669    2.5085   H         1 RES1   0.0000
   105 H57      -2.4762    3.3120    2.3680   H         1 RES1   0.0000
   106 H58      -3.5376    4.5233    0.5701   H         1 RES1   0.0000
   107 H59      -2.3392    3.3776   -0.0380   H         1 RES1   0.0000
   108 H60      -0.8739    5.0833   -0.7656   H         1 RES1   0.0000
   109 H61      -1.6343    6.3165    0.2379   H         1 RES1   0.0000
   110 H62      -3.4669    6.5880   -1.1354   H         1 RES1   0.0000
   111 H63      -3.3877    4.9416   -1.7436   H         1 RES1   0.0000
   112 H64      -1.4049    5.5186   -3.1028   H         1 RES1   0.0000
   113 H65      -1.5966    7.2182   -2.6554   H         1 RES1   0.0000
   114 H66      -3.8591    7.2471   -3.6422   H         1 RES1   0.0000
   115 H67      -3.8252    5.5013   -3.8138   H         1 RES1   0.0000
   116 H68      -1.8248    5.8967   -5.4499   H         1 RES1   0.0000
   117 H69      -2.4012    7.5596   -5.5163   H         1 RES1   0.0000
   118 H70      -4.0886    5.0851   -6.1324   H         1 RES1   0.0000
   119 H71      -3.4346    6.2098   -7.3221   H         1 RES1   0.0000
   120 H72      -4.6717    6.7431   -6.1966   H         1 RES1   0.0000
   121 H73       0.4294    2.3921   -2.2414   H         1 RES1   0.0000
   122 H74       0.3199    4.1913   -3.9316   H         1 RES1   0.0000
   123 H75       1.3143    6.4043   -3.4354   H         1 RES1   0.0000
   124 H76       2.4594    6.7811   -1.2868   H         1 RES1   0.0000
   125 H77       2.7085    4.9707    0.3028   H         1 RES1   0.0000
   126 C43      -3.4952    4.2446    7.3539   C.3       1 RES1   0.0000
   127 C44      -4.7300    4.3561    6.4675   C.3       1 RES1   0.0000
   128 C45      -4.4757    3.7791    5.0745   C.3       1 RES1   0.0000
   129 C46      -5.7197    3.8481    4.1880   C.3       1 RES1   0.0000
   130 C47      -5.4707    3.3769    2.7513   C.3       1 RES1   0.0000
   131 C48      -5.1465    1.8807    2.6675   C.3       1 RES1   0.0000
   132 C49      -4.7141    1.4352    1.2710   C.3       1 RES1   0.0000
   133 C50      -4.8744   -0.0630    0.9845   C.3       1 RES1   0.0000
   134 N4       -4.0492   -1.0200    1.7385   N.am      1 RES1   0.0000
   135 C51      -4.7888   -2.0215    2.4952   C.3       1 RES1   0.0000
   136 C52      -5.2106   -1.5462    3.8926   C.3       1 RES1   0.0000
   137 C53      -6.5924   -2.0757    4.2894   C.3       1 RES1   0.0000
   138 C54      -7.7369   -1.1698    3.8361   C.3       1 RES1   0.0000
   139 C55      -7.8804    0.0810    4.7062   C.3       1 RES1   0.0000
   140 C56      -9.1613    0.8800    4.4380   C.3       1 RES1   0.0000
   141 C57      -9.1092    1.8519    3.2558   C.3       1 RES1   0.0000
   142 C58      -9.1753    1.1997    1.8787   C.3       1 RES1   0.0000
   143 C59      -2.7429   -1.0141    1.5148   C.2       1 RES1   0.0000
   144 O3       -2.2391   -0.1669    0.7469   O.2       1 RES1   0.0000
   145 C60      -1.7419   -2.0316    2.0759   C.3       1 RES1   0.0000
   146 N5       -0.5972   -1.2410    2.5715   N.pl3     1 RES1   0.0000
   147 C61       0.6518   -2.0019    2.8004   C.3       1 RES1   0.0000
   148 C62       1.8493   -1.1021    2.4585   C.2       1 RES1   0.0000
   149 O4        1.6860   -0.2623    1.5452   O.2       1 RES1   0.0000
   150 N6        3.0038   -1.1674    3.1275   N.am      1 RES1   0.0000
   151 C63       3.3916   -2.2278    4.0519   C.3       1 RES1   0.0000
   152 C64       4.7301   -2.8562    3.6452   C.3       1 RES1   0.0000
   153 C65       5.1457   -4.0538    4.5019   C.3       1 RES1   0.0000
   154 C66       6.1285   -4.9814    3.7770   C.3       1 RES1   0.0000
   155 C67       7.5194   -4.4016    3.4918   C.3       1 RES1   0.0000
   156 C68       7.6822   -3.5030    2.2578   C.3       1 RES1   0.0000
   157 C69       7.7887   -4.2302    0.9127   C.3       1 RES1   0.0000
   158 C70       6.4527   -4.6888    0.3362   C.3       1 RES1   0.0000
   159 C71       3.9624   -0.0545    3.0602   C.3       1 RES1   0.0000
   160 C72       5.1055   -0.1810    2.0429   C.3       1 RES1   0.0000
   161 C73       5.8465    1.1334    1.7653   C.3       1 RES1   0.0000
   162 C74       6.5063    1.8093    2.9741   C.3       1 RES1   0.0000
   163 C75       5.6178    2.8633    3.6383   C.3       1 RES1   0.0000
   164 C76       6.3822    3.7907    4.5891   C.3       1 RES1   0.0000
   165 C77       6.9785    3.0973    5.8151   C.3       1 RES1   0.0000
   166 C78       5.9275    2.4784    6.7299   C.3       1 RES1   0.0000
   167 C79      -0.9431   -0.5283    3.7843   C.ar      1 RES1   0.0000
   168 C80      -1.8929   -0.9916    4.6849   C.ar      1 RES1   0.0000
   169 C81      -2.1751   -0.2997    5.8483   C.ar      1 RES1   0.0000
   170 C82      -1.4769    0.8527    6.1541   C.ar      1 RES1   0.0000
   171 C83      -0.5015    1.3069    5.2833   C.ar      1 RES1   0.0000
   172 C84      -0.2477    0.6315    4.1025   C.ar      1 RES1   0.0000
   173 H78      -3.6937    4.6681    8.3332   H         1 RES1   0.0000
   174 H79      -2.6548    4.7773    6.9132   H         1 RES1   0.0000
   175 H80      -3.2131    3.2018    7.4819   H         1 RES1   0.0000
   176 H81      -5.0230    5.4044    6.3769   H         1 RES1   0.0000
   177 H82      -5.5605    3.8199    6.9322   H         1 RES1   0.0000
   178 H83      -4.1501    2.7402    5.1851   H         1 RES1   0.0000
   179 H84      -3.6595    4.3339    4.5995   H         1 RES1   0.0000
   180 H85      -6.0684    4.8832    4.1611   H         1 RES1   0.0000
   181 H86      -6.5121    3.2498    4.6429   H         1 RES1   0.0000
   182 H87      -4.6632    3.9711    2.3237   H         1 RES1   0.0000
   183 H88      -6.3673    3.5759    2.1595   H         1 RES1   0.0000
   184 H89      -6.0580    1.3520    2.9440   H         1 RES1   0.0000
   185 H90      -4.3631    1.6315    3.3877   H         1 RES1   0.0000
   186 H91      -3.6864    1.7371    1.0691   H         1 RES1   0.0000
   187 H92      -5.3552    1.9315    0.5390   H         1 RES1   0.0000
   188 H93      -4.6527   -0.2030   -0.0784   H         1 RES1   0.0000
   189 H94      -5.9112   -0.3454    1.1576   H         1 RES1   0.0000
   190 H95      -4.2058   -2.9374    2.5648   H         1 RES1   0.0000
   191 H96      -5.6856   -2.2688    1.9224   H         1 RES1   0.0000
   192 H97      -5.2195   -0.4593    3.9120   H         1 RES1   0.0000
   193 H98      -4.4846   -1.8825    4.6278   H         1 RES1   0.0000
   194 H99      -6.6397   -2.1774    5.3730   H         1 RES1   0.0000
   195 H100     -6.7271   -3.0753    3.8738   H         1 RES1   0.0000
   196 H101     -8.6713   -1.7277    3.9097   H         1 RES1   0.0000
   197 H102     -7.5942   -0.9000    2.7891   H         1 RES1   0.0000
   198 H103     -7.0193    0.7456    4.6009   H         1 RES1   0.0000
   199 H104     -7.9003   -0.2482    5.7477   H         1 RES1   0.0000
   200 H105     -9.3769    1.4681    5.3330   H         1 RES1   0.0000
   201 H106     -9.9929    0.1870    4.3010   H         1 RES1   0.0000
   202 H107     -8.2078    2.4628    3.3339   H         1 RES1   0.0000
   203 H108     -9.9600    2.5292    3.3514   H         1 RES1   0.0000
   204 H109     -8.2437    0.7023    1.6180   H         1 RES1   0.0000
   205 H110     -9.3669    1.9577    1.1241   H         1 RES1   0.0000
   206 H111     -9.9822    0.4726    1.8426   H         1 RES1   0.0000
   207 H112     -1.4265   -2.6275    1.2113   H         1 RES1   0.0000
   208 H113     -2.1488   -2.7210    2.8186   H         1 RES1   0.0000
   209 H114      0.6679   -2.8595    2.1238   H         1 RES1   0.0000
   210 H115      0.6930   -2.3618    3.8347   H         1 RES1   0.0000
   211 H116      2.6236   -2.9956    4.0493   H         1 RES1   0.0000
   212 H117      3.4751   -1.8134    5.0615   H         1 RES1   0.0000
   213 H118      5.5226   -2.1211    3.7438   H         1 RES1   0.0000
   214 H119      4.6617   -3.1674    2.6010   H         1 RES1   0.0000
   215 H120      4.2688   -4.6422    4.7799   H         1 RES1   0.0000
   216 H121      5.6000   -3.6953    5.4261   H         1 RES1   0.0000
   217 H122      5.6723   -5.3197    2.8502   H         1 RES1   0.0000
   218 H123      6.2696   -5.8596    4.4098   H         1 RES1   0.0000
   219 H124      8.2142   -5.2355    3.3753   H         1 RES1   0.0000
   220 H125      7.8430   -3.8429    4.3726   H         1 RES1   0.0000
   221 H126      8.6066   -2.9364    2.3978   H         1 RES1   0.0000
   222 H127      6.8716   -2.7790    2.1894   H         1 RES1   0.0000
   223 H128      8.4579   -5.0846    1.0137   H         1 RES1   0.0000
   224 H129      8.2489   -3.5431    0.1987   H         1 RES1   0.0000
   225 H130      6.0544   -5.5267    0.8999   H         1 RES1   0.0000
   226 H131      6.5824   -5.0136   -0.6933   H         1 RES1   0.0000
   227 H132      5.7310   -3.8705    0.3514   H         1 RES1   0.0000
   228 H133      4.3880    0.0504    4.0618   H         1 RES1   0.0000
   229 H134      3.4021    0.8532    2.8286   H         1 RES1   0.0000
   230 H135      4.7063   -0.5775    1.1040   H         1 RES1   0.0000
   231 H136      5.8549   -0.8816    2.4016   H         1 RES1   0.0000
   232 H137      5.1850    1.8597    1.2939   H         1 RES1   0.0000
   233 H138      6.6319    0.8900    1.0491   H         1 RES1   0.0000
   234 H139      7.4039    2.3233    2.6259   H         1 RES1   0.0000
   235 H140      6.8259    1.0601    3.6970   H         1 RES1   0.0000
   236 H141      4.7953    2.3981    4.1834   H         1 RES1   0.0000
   237 H142      5.1844    3.4867    2.8490   H         1 RES1   0.0000
   238 H143      5.6969    4.5722    4.9296   H         1 RES1   0.0000
   239 H144      7.1871    4.2778    4.0326   H         1 RES1   0.0000
   240 H145      7.5388    3.8427    6.3821   H         1 RES1   0.0000
   241 H146      7.6886    2.3336    5.4940   H         1 RES1   0.0000
   242 H147      5.2003    3.2271    7.0359   H         1 RES1   0.0000
   243 H148      6.4014    2.0825    7.6228   H         1 RES1   0.0000
   244 H149      5.4009    1.6627    6.2379   H         1 RES1   0.0000
   245 H150     -2.4076   -1.9190    4.5198   H         1 RES1   0.0000
   246 H151     -2.9275   -0.6836    6.5193   H         1 RES1   0.0000
   247 H152     -1.6775    1.3772    7.0732   H         1 RES1   0.0000
   248 H153      0.0752    2.1857    5.5332   H         1 RES1   0.0000
   249 H154      0.5184    1.0062    3.4417   H         1 RES1   0.0000
   250 C85      -6.6292    8.9113   -3.6300   C.3       1 RES1   0.0000
   251 C86      -6.5693    7.7509   -2.6417   C.3       1 RES1   0.0000
   252 C87      -6.7415    6.3917   -3.3314   C.3       1 RES1   0.0000
   253 C88      -6.4041    5.2194   -2.3976   C.3       1 RES1   0.0000
   254 C89      -6.0462    3.9234   -3.1422   C.3       1 RES1   0.0000
   255 C90      -5.4036    2.8794   -2.2134   C.3       1 RES1   0.0000
   256 C91      -4.4310    1.8916   -2.8828   C.3       1 RES1   0.0000
   257 C92      -3.1030    2.5593   -3.2641   C.3       1 RES1   0.0000
   258 N7       -2.0918    1.6288   -3.7615   N.am      1 RES1   0.0000
   259 C93      -1.6635    1.5993   -5.1602   C.3       1 RES1   0.0000
   260 C94      -1.9386    2.8473   -5.9931   C.3       1 RES1   0.0000
   261 C95      -0.8398    3.0381   -7.0424   C.3       1 RES1   0.0000
   262 C96      -0.5956    1.8097   -7.9162   C.3       1 RES1   0.0000
   263 C97       0.5717    2.0531   -8.8705   C.3       1 RES1   0.0000
   264 C98       0.8165    0.9226   -9.8692   C.3       1 RES1   0.0000
   265 C99       1.3085   -0.3917   -9.2501   C.3       1 RES1   0.0000
   266 C100      0.1862   -1.3581   -8.8824   C.3       1 RES1   0.0000
   267 C101     -1.4585    0.8484   -2.8962   C.2       1 RES1   0.0000
   268 O5       -1.5725    0.9663   -1.6608   O.2       1 RES1   0.0000
   269 C102     -0.4859   -0.2095   -3.4289   C.3       1 RES1   0.0000
   270 N8       -0.5164   -1.3614   -2.5166   N.pl3     1 RES1   0.0000
   271 C103      0.6543   -2.2489   -2.5878   C.3       1 RES1   0.0000
   272 C104      0.7907   -2.9497   -1.2392   C.2       1 RES1   0.0000
   273 O6        0.2098   -2.4575   -0.2459   O.2       1 RES1   0.0000
   274 N9        1.5164   -4.0607   -1.1694   N.am      1 RES1   0.0000
   275 C105      1.4849   -4.8970    0.0240   C.3       1 RES1   0.0000
   276 C106      2.6137   -4.7008    1.0370   C.3       1 RES1   0.0000
   277 C107      2.2769   -5.5037    2.3021   C.3       1 RES1   0.0000
   278 C108      2.4094   -7.0190    2.1301   C.3       1 RES1   0.0000
   279 C109      3.8633   -7.4853    2.1589   C.3       1 RES1   0.0000
   280 C110      4.0235   -8.9846    1.9021   C.3       1 RES1   0.0000
   281 C111      3.7197   -9.4188    0.4665   C.3       1 RES1   0.0000
   282 C112      4.6632   -8.8095   -0.5654   C.3       1 RES1   0.0000
   283 C113      2.3169   -4.5652   -2.2757   C.3       1 RES1   0.0000
   284 C114      1.5697   -5.3749   -3.3414   C.3       1 RES1   0.0000
   285 C115      0.7670   -6.5676   -2.8284   C.3       1 RES1   0.0000
   286 C116     -0.5848   -6.2073   -2.2041   C.3       1 RES1   0.0000
   287 C117     -1.2257   -7.4524   -1.5886   C.3       1 RES1   0.0000
   288 C118     -2.5988   -7.2139   -0.9561   C.3       1 RES1   0.0000
   289 C119     -2.5507   -6.6225    0.4562   C.3       1 RES1   0.0000
   290 C120     -2.5280   -5.0972    0.4894   C.3       1 RES1   0.0000
   291 C121     -1.7244   -2.1085   -2.8431   C.ar      1 RES1   0.0000
   292 C122     -2.7701   -2.0960   -1.9379   C.ar      1 RES1   0.0000
   293 C123     -3.9643   -2.7304   -2.2417   C.ar      1 RES1   0.0000
   294 C124     -4.1131   -3.3815   -3.4539   C.ar      1 RES1   0.0000
   295 C125     -3.0693   -3.3985   -4.3625   C.ar      1 RES1   0.0000
   296 C126     -1.8789   -2.7646   -4.0618   C.ar      1 RES1   0.0000
   297 H155     -6.4883    9.8562   -3.1123   H         1 RES1   0.0000
   298 H156     -7.5874    8.9467   -4.1397   H         1 RES1   0.0000
   299 H157     -5.8490    8.8141   -4.3821   H         1 RES1   0.0000
   300 H158     -7.3393    7.8830   -1.8788   H         1 RES1   0.0000
   301 H159     -5.5993    7.7703   -2.1335   H         1 RES1   0.0000
   302 H160     -6.0750    6.3615   -4.1967   H         1 RES1   0.0000
   303 H161     -7.7643    6.3052   -3.7019   H         1 RES1   0.0000
   304 H162     -7.2383    5.0422   -1.7153   H         1 RES1   0.0000
   305 H163     -5.5418    5.5133   -1.7940   H         1 RES1   0.0000
   306 H164     -5.3544    4.1733   -3.9485   H         1 RES1   0.0000
   307 H165     -6.9419    3.5053   -3.6031   H         1 RES1   0.0000
   308 H166     -6.1987    2.3012   -1.7414   H         1 RES1   0.0000
   309 H167     -4.8680    3.3955   -1.4120   H         1 RES1   0.0000
   310 H168     -4.8847    1.4493   -3.7710   H         1 RES1   0.0000
   311 H169     -4.2184    1.0864   -2.1760   H         1 RES1   0.0000
   312 H170     -2.6854    3.0448   -2.3782   H         1 RES1   0.0000
   313 H171     -3.2893    3.3038   -4.0321   H         1 RES1   0.0000
   314 H172     -2.1066    0.7261   -5.6470   H         1 RES1   0.0000
   315 H173     -0.5778    1.4830   -5.1434   H         1 RES1   0.0000
   316 H174     -1.9314    3.7326   -5.3619   H         1 RES1   0.0000
   317 H175     -2.9066    2.7794   -6.4846   H         1 RES1   0.0000
   318 H176      0.0946    3.2969   -6.5338   H         1 RES1   0.0000
   319 H177     -1.1086    3.8816   -7.6798   H         1 RES1   0.0000
   320 H178     -1.4961    1.5696   -8.4838   H         1 RES1   0.0000
   321 H179     -0.3591    0.9506   -7.2859   H         1 RES1   0.0000
   322 H180      1.4825    2.2059   -8.2843   H         1 RES1   0.0000
   323 H181      0.3823    2.9728   -9.4282   H         1 RES1   0.0000
   324 H182      1.5679    1.2773  -10.5763   H         1 RES1   0.0000
   325 H183     -0.0955    0.7320  -10.4355   H         1 RES1   0.0000
   326 H184      1.9279   -0.1738   -8.3746   H         1 RES1   0.0000
   327 H185      1.9456   -0.8929   -9.9804   H         1 RES1   0.0000
   328 H186     -0.4246   -0.9895   -8.0617   H         1 RES1   0.0000
   329 H187      0.6006   -2.3226   -8.5973   H         1 RES1   0.0000
   330 H188     -0.4588   -1.5074   -9.7436   H         1 RES1   0.0000
   331 H189      0.5007    0.2631   -3.4153   H         1 RES1   0.0000
   332 H190     -0.7190   -0.5215   -4.4530   H         1 RES1   0.0000
   333 H191      1.5669   -1.6700   -2.7471   H         1 RES1   0.0000
   334 H192      0.5649   -2.9813   -3.3953   H         1 RES1   0.0000
   335 H193      1.5049   -5.9364   -0.3048   H         1 RES1   0.0000
   336 H194      0.5375   -4.7039    0.5309   H         1 RES1   0.0000
   337 H195      2.7172   -3.6410    1.2845   H         1 RES1   0.0000
   338 H196      3.5647   -5.0398    0.6265   H         1 RES1   0.0000
   339 H197      1.2506   -5.2723    2.5993   H         1 RES1   0.0000
   340 H198      2.9277   -5.2035    3.1228   H         1 RES1   0.0000
   341 H199      1.9342   -7.3326    1.2012   H         1 RES1   0.0000
   342 H200      1.8805   -7.5110    2.9481   H         1 RES1   0.0000
   343 H201      4.2777   -7.2592    3.1439   H         1 RES1   0.0000
   344 H202      4.4481   -6.9387    1.4178   H         1 RES1   0.0000
   345 H203      3.3712   -9.5324    2.5861   H         1 RES1   0.0000
   346 H204      5.0530   -9.2644    2.1351   H         1 RES1   0.0000
   347 H205      2.6851   -9.1740    0.2135   H         1 RES1   0.0000
   348 H206      3.8114  -10.5049    0.4211   H         1 RES1   0.0000
   349 H207      4.5402   -7.7302   -0.6389   H         1 RES1   0.0000
   350 H208      4.4672   -9.2387   -1.5440   H         1 RES1   0.0000
   351 H209      5.6964   -9.0196   -0.3018   H         1 RES1   0.0000
   352 H210      3.1003   -5.1946   -1.8503   H         1 RES1   0.0000
   353 H211      2.8070   -3.7158   -2.7517   H         1 RES1   0.0000
   354 H212      2.3340   -5.7324   -4.0317   H         1 RES1   0.0000
   355 H213      0.8962   -4.7424   -3.9166   H         1 RES1   0.0000
   356 H214      1.3680   -7.1416   -2.1207   H         1 RES1   0.0000
   357 H215      0.5688   -7.2185   -3.6807   H         1 RES1   0.0000
   358 H216     -1.2475   -5.8060   -2.9761   H         1 RES1   0.0000
   359 H217     -0.4793   -5.4356   -1.4444   H         1 RES1   0.0000
   360 H218     -0.5591   -7.8677   -0.8279   H         1 RES1   0.0000
   361 H219     -1.3275   -8.2034   -2.3736   H         1 RES1   0.0000
   362 H220     -3.1120   -8.1743   -0.9029   H         1 RES1   0.0000
   363 H221     -3.1949   -6.5654   -1.6002   H         1 RES1   0.0000
   364 H222     -1.6827   -7.0238    0.9843   H         1 RES1   0.0000
   365 H223     -3.4367   -6.9518    1.0017   H         1 RES1   0.0000
   366 H224     -1.6100   -4.6919    0.0690   H         1 RES1   0.0000
   367 H225     -2.6209   -4.7578    1.5190   H         1 RES1   0.0000
   368 H226     -3.3603   -4.7004   -0.0878   H         1 RES1   0.0000
   369 H227     -2.6530   -1.5660   -1.0015   H         1 RES1   0.0000
   370 H228     -4.7834   -2.7074   -1.5367   H         1 RES1   0.0000
   371 H229     -5.0412   -3.8660   -3.7047   H         1 RES1   0.0000
   372 H230     -3.1808   -3.8937   -5.3141   H         1 RES1   0.0000
   373 H231     -1.0933   -2.7837   -4.8024   H         1 RES1   0.0000
@<TRIPOS>BOND
     1     1    20    1
     2     1    22    1
     3     1    25    1
     4     1   144    1
     5     1   146    1
     6     1   149    1
     7     1   268    1
     8     1   270    1
     9     1   273    1
    10     2     3    1
    11     2    49    1
    12     2    50    1
    13     2    51    1
    14     3     4    1
    15     3    52    1
    16     3    53    1
    17     4     5    1
    18     4    54    1
    19     4    55    1
    20     5     6    1
    21     5    56    1
    22     5    57    1
    23     6     7    1
    24     6    58    1
    25     6    59    1
    26     7     8    1
    27     7    60    1
    28     7    61    1
    29     8     9    1
    30     8    62    1
    31     8    63    1
    32     9    10    1
    33     9    64    1
    34     9    65    1
    35    10    11    1
    36    10    19    1
    37    11    12    1
    38    11    66    1
    39    11    67    1
    40    12    13    1
    41    12    68    1
    42    12    69    1
    43    13    14    1
    44    13    70    1
    45    13    71    1
    46    14    15    1
    47    14    72    1
    48    14    73    1
    49    15    16    1
    50    15    74    1
    51    15    75    1
    52    16    17    1
    53    16    76    1
    54    16    77    1
    55    17    18    1
    56    17    78    1
    57    17    79    1
    58    18    80    1
    59    18    81    1
    60    18    82    1
    61    19    20    2
    62    19    21    1
    63    21    22    1
    64    21    83    1
    65    21    84    1
    66    22    23    1
    67    22    43    1
    68    23    24    1
    69    23    85    1
    70    23    86    1
    71    24    25    2
    72    24    26    1
    73    26    27    1
    74    26    35    1
    75    27    28    1
    76    27    87    1
    77    27    88    1
    78    28    29    1
    79    28    89    1
    80    28    90    1
    81    29    30    1
    82    29    91    1
    83    29    92    1
    84    30    31    1
    85    30    93    1
    86    30    94    1
    87    31    32    1
    88    31    95    1
    89    31    96    1
    90    32    33    1
    91    32    97    1
    92    32    98    1
    93    33    34    1
    94    33    99    1
    95    33   100    1
    96    34   101    1
    97    34   102    1
    98    34   103    1
    99    35    36    1
   100    35   104    1
   101    35   105    1
   102    36    37    1
   103    36   106    1
   104    36   107    1
   105    37    38    1
   106    37   108    1
   107    37   109    1
   108    38    39    1
   109    38   110    1
   110    38   111    1
   111    39    40    1
   112    39   112    1
   113    39   113    1
   114    40    41    1
   115    40   114    1
   116    40   115    1
   117    41    42    1
   118    41   116    1
   119    41   117    1
   120    42   118    1
   121    42   119    1
   122    42   120    1
   123    43    44    1
   124    43    48    2
   125    44    45    2
   126    44   121    1
   127    45    46    1
   128    45   122    1
   129    46    47    2
   130    46   123    1
   131    47    48    1
   132    47   124    1
   133    48   125    1
   134   126   127    1
   135   126   173    1
   136   126   174    1
   137   126   175    1
   138   127   128    1
   139   127   176    1
   140   127   177    1
   141   128   129    1
   142   128   178    1
   143   128   179    1
   144   129   130    1
   145   129   180    1
   146   129   181    1
   147   130   131    1
   148   130   182    1
   149   130   183    1
   150   131   132    1
   151   131   184    1
   152   131   185    1
   153   132   133    1
   154   132   186    1
   155   132   187    1
   156   133   134    1
   157   133   188    1
   158   133   189    1
   159   134   135    1
   160   134   143    1
   161   135   136    1
   162   135   190    1
   163   135   191    1
   164   136   137    1
   165   136   192    1
   166   136   193    1
   167   137   138    1
   168   137   194    1
   169   137   195    1
   170   138   139    1
   171   138   196    1
   172   138   197    1
   173   139   140    1
   174   139   198    1
   175   139   199    1
   176   140   141    1
   177   140   200    1
   178   140   201    1
   179   141   142    1
   180   141   202    1
   181   141   203    1
   182   142   204    1
   183   142   205    1
   184   142   206    1
   185   143   144    2
   186   143   145    1
   187   145   146    1
   188   145   207    1
   189   145   208    1
   190   146   147    1
   191   146   167    1
   192   147   148    1
   193   147   209    1
   194   147   210    1
   195   148   149    2
   196   148   150    1
   197   150   151    1
   198   150   159    1
   199   151   152    1
   200   151   211    1
   201   151   212    1
   202   152   153    1
   203   152   213    1
   204   152   214    1
   205   153   154    1
   206   153   215    1
   207   153   216    1
   208   154   155    1
   209   154   217    1
   210   154   218    1
   211   155   156    1
   212   155   219    1
   213   155   220    1
   214   156   157    1
   215   156   221    1
   216   156   222    1
   217   157   158    1
   218   157   223    1
   219   157   224    1
   220   158   225    1
   221   158   226    1
   222   158   227    1
   223   159   160    1
   224   159   228    1
   225   159   229    1
   226   160   161    1
   227   160   230    1
   228   160   231    1
   229   161   162    1
   230   161   232    1
   231   161   233    1
   232   162   163    1
   233   162   234    1
   234   162   235    1
   235   163   164    1
   236   163   236    1
   237   163   237    1
   238   164   165    1
   239   164   238    1
   240   164   239    1
   241   165   166    1
   242   165   240    1
   243   165   241    1
   244   166   242    1
   245   166   243    1
   246   166   244    1
   247   167   168    1
   248   167   172    2
   249   168   169    2
   250   168   245    1
   251   169   170    1
   252   169   246    1
   253   170   171    2
   254   170   247    1
   255   171   172    1
   256   171   248    1
   257   172   249    1
   258   250   251    1
   259   250   297    1
   260   250   298    1
   261   250   299    1
   262   251   252    1
   263   251   300    1
   264   251   301    1
   265   252   253    1
   266   252   302    1
   267   252   303    1
   268   253   254    1
   269   253   304    1
   270   253   305    1
   271   254   255    1
   272   254   306    1
   273   254   307    1
   274   255   256    1
   275   255   308    1
   276   255   309    1
   277   256   257    1
   278   256   310    1
   279   256   311    1
   280   257   258    1
   281   257   312    1
   282   257   313    1
   283   258   259    1
   284   258   267    1
   285   259   260    1
   286   259   314    1
   287   259   315    1
   288   260   261    1
   289   260   316    1
   290   260   317    1
   291   261   262    1
   292   261   318    1
   293   261   319    1
   294   262   263    1
   295   262   320    1
   296   262   321    1
   297   263   264    1
   298   263   322    1
   299   263   323    1
   300   264   265    1
   301   264   324    1
   302   264   325    1
   303   265   266    1
   304   265   326    1
   305   265   327    1
   306   266   328    1
   307   266   329    1
   308   266   330    1
   309   267   268    2
   310   267   269    1
   311   269   270    1
   312   269   331    1
   313   269   332    1
   314   270   271    1
   315   270   291    1
   316   271   272    1
   317   271   333    1
   318   271   334    1
   319   272   273    2
   320   272   274    1
   321   274   275    1
   322   274   283    1
   323   275   276    1
   324   275   335    1
   325   275   336    1
   326   276   277    1
   327   276   337    1
   328   276   338    1
   329   277   278    1
   330   277   339    1
   331   277   340    1
   332   278   279    1
   333   278   341    1
   334   278   342    1
   335   279   280    1
   336   279   343    1
   337   279   344    1
   338   280   281    1
   339   280   345    1
   340   280   346    1
   341   281   282    1
   342   281   347    1
   343   281   348    1
   344   282   349    1
   345   282   350    1
   346   282   351    1
   347   283   284    1
   348   283   352    1
   349   283   353    1
   350   284   285    1
   351   284   354    1
   352   284   355    1
   353   285   286    1
   354   285   356    1
   355   285   357    1
   356   286   287    1
   357   286   358    1
   358   286   359    1
   359   287   288    1
   360   287   360    1
   361   287   361    1
   362   288   289    1
   363   288   362    1
   364   288   363    1
   365   289   290    1
   366   289   364    1
   367   289   365    1
   368   290   366    1
   369   290   367    1
   370   290   368    1
   371   291   292    1
   372   291   296    2
   373   292   293    2
   374   292   369    1
   375   293   294    1
   376   293   370    1
   377   294   295    2
   378   294   371    1
   379   295   296    1
   380   295   372    1
   381   296   373    1
@<TRIPOS>SUBSTRUCTURE
     1 RES1      373 GROUP             0 ****  ****    0  
