@<TRIPOS>MOLECULE
cn9_YICLED_0_nunpairedes_0_charge_3 Charge: 3 Unpaired_Electrons: 6 XTB_Unpaired_Electrons: 0 XTB_Charge: 3
   370   378     1     0     0
SMALL
NoCharges
****
Generated from Architector

@<TRIPOS>ATOM
     1 Eu1       0.1736    0.1020    0.2573   Eu        1 RES1   0.0000
     2 C1       -7.4117   -1.8647    3.5949   C.3       1 RES1   0.0000
     3 C2       -8.0345   -1.5054    2.2492   C.3       1 RES1   0.0000
     4 C3       -7.4968   -2.2932    1.0509   C.3       1 RES1   0.0000
     5 C4       -7.8629   -3.7807    1.0327   C.3       1 RES1   0.0000
     6 C5       -6.9437   -4.7184    1.8181   C.3       1 RES1   0.0000
     7 C6       -5.4922   -4.7584    1.3163   C.3       1 RES1   0.0000
     8 C7       -4.5089   -3.9257    2.1494   C.3       1 RES1   0.0000
     9 C8       -3.0723   -4.2145    1.6924   C.3       1 RES1   0.0000
    10 N1       -2.0712   -3.2080    2.0378   N.am      1 RES1   0.0000
    11 C9       -1.3413   -3.5006    3.2782   C.3       1 RES1   0.0000
    12 C10      -0.5811   -2.3431    3.9352   C.3       1 RES1   0.0000
    13 C11      -1.4921   -1.1388    4.1996   C.3       1 RES1   0.0000
    14 C12      -0.8245    0.0584    4.8992   C.3       1 RES1   0.0000
    15 C13      -0.7342    1.3634    4.1015   C.3       1 RES1   0.0000
    16 C14      -0.0981    2.5124    4.9094   C.3       1 RES1   0.0000
    17 C15      -1.0831    3.3791    5.7023   C.3       1 RES1   0.0000
    18 C16      -1.8161    4.3952    4.8331   C.3       1 RES1   0.0000
    19 C17      -1.6973   -2.2433    1.2116   C.2       1 RES1   0.0000
    20 O1       -0.6338   -1.6053    1.3554   O.2       1 RES1   0.0000
    21 C18      -2.6541   -1.8012    0.1005   C.3       1 RES1   0.0000
    22 O2       -1.8835   -0.9823   -0.7598   O.3       1 RES1   0.0000
    23 C19      -2.6105   -0.2703   -1.7801   C.3       1 RES1   0.0000
    24 C20      -1.4663    0.3452   -2.6287   C.2       1 RES1   0.0000
    25 O3       -0.3365    0.4021   -2.1068   O.2       1 RES1   0.0000
    26 N2       -1.6593    0.7866   -3.8707   N.am      1 RES1   0.0000
    27 C21      -2.9486    1.1694   -4.4364   C.3       1 RES1   0.0000
    28 C22      -3.2262    0.5456   -5.8005   C.3       1 RES1   0.0000
    29 C23      -4.5031    1.0783   -6.4487   C.3       1 RES1   0.0000
    30 C24      -5.7736    0.4506   -5.8820   C.3       1 RES1   0.0000
    31 C25      -6.9438    0.5437   -6.8616   C.3       1 RES1   0.0000
    32 C26      -6.7456   -0.2370   -8.1641   C.3       1 RES1   0.0000
    33 C27      -6.4286   -1.7188   -7.9732   C.3       1 RES1   0.0000
    34 C28      -6.4511   -2.4683   -9.2996   C.3       1 RES1   0.0000
    35 C29      -0.4715    1.2625   -4.5920   C.3       1 RES1   0.0000
    36 C30       0.4948    0.1626   -5.0721   C.3       1 RES1   0.0000
    37 C31       0.1972   -0.4655   -6.4417   C.3       1 RES1   0.0000
    38 C32      -0.8179   -1.6197   -6.4150   C.3       1 RES1   0.0000
    39 C33      -0.2515   -2.9569   -6.8844   C.3       1 RES1   0.0000
    40 C34      -1.2589   -4.0862   -6.6842   C.3       1 RES1   0.0000
    41 C35      -0.7348   -5.4356   -7.1966   C.3       1 RES1   0.0000
    42 C36      -0.8883   -6.5532   -6.1695   C.3       1 RES1   0.0000
    43 C37      -3.5910   -1.1451   -2.5293   C.ar      1 RES1   0.0000
    44 C38      -3.1457   -2.1403   -3.3894   C.ar      1 RES1   0.0000
    45 C39      -4.0496   -2.9632   -4.0383   C.ar      1 RES1   0.0000
    46 C40      -5.4075   -2.7835   -3.8456   C.ar      1 RES1   0.0000
    47 C41      -5.8636   -1.7777   -3.0127   C.ar      1 RES1   0.0000
    48 C42      -4.9602   -0.9620   -2.3574   C.ar      1 RES1   0.0000
    49 H1       -7.7390   -1.1530    4.3494   H         1 RES1   0.0000
    50 H2       -6.3228   -1.8433    3.5466   H         1 RES1   0.0000
    51 H3       -7.7279   -2.8503    3.9226   H         1 RES1   0.0000
    52 H4       -7.8656   -0.4408    2.0521   H         1 RES1   0.0000
    53 H5       -9.1141   -1.6524    2.3064   H         1 RES1   0.0000
    54 H6       -6.4115   -2.1816    0.9912   H         1 RES1   0.0000
    55 H7       -7.9179   -1.8367    0.1499   H         1 RES1   0.0000
    56 H8       -7.8715   -4.1190   -0.0067   H         1 RES1   0.0000
    57 H9       -8.8787   -3.8974    1.4135   H         1 RES1   0.0000
    58 H10      -7.3686   -5.7175    1.7217   H         1 RES1   0.0000
    59 H11      -6.9574   -4.4703    2.8764   H         1 RES1   0.0000
    60 H12      -5.4556   -4.4115    0.2799   H         1 RES1   0.0000
    61 H13      -5.1500   -5.7945    1.3318   H         1 RES1   0.0000
    62 H14      -4.6222   -4.1771    3.2038   H         1 RES1   0.0000
    63 H15      -4.7244   -2.8632    2.0344   H         1 RES1   0.0000
    64 H16      -3.0679   -4.3405    0.6092   H         1 RES1   0.0000
    65 H17      -2.7347   -5.1599    2.1264   H         1 RES1   0.0000
    66 H18      -0.6577   -4.3354    3.0781   H         1 RES1   0.0000
    67 H19      -2.0978   -3.8552    3.9818   H         1 RES1   0.0000
    68 H20       0.2834   -2.0855    3.3250   H         1 RES1   0.0000
    69 H21      -0.2173   -2.7323    4.8914   H         1 RES1   0.0000
    70 H22      -2.2972   -1.5270    4.8290   H         1 RES1   0.0000
    71 H23      -1.9349   -0.7915    3.2668   H         1 RES1   0.0000
    72 H24       0.1753   -0.2186    5.2082   H         1 RES1   0.0000
    73 H25      -1.3932    0.2658    5.7996   H         1 RES1   0.0000
    74 H26      -1.7319    1.6804    3.8117   H         1 RES1   0.0000
    75 H27      -0.1643    1.1988    3.1634   H         1 RES1   0.0000
    76 H28       0.4497    3.1687    4.2289   H         1 RES1   0.0000
    77 H29       0.6135    2.1058    5.6305   H         1 RES1   0.0000
    78 H30      -0.5242    3.9093    6.4774   H         1 RES1   0.0000
    79 H31      -1.7918    2.7371    6.2246   H         1 RES1   0.0000
    80 H32      -1.2047    5.2808    4.6794   H         1 RES1   0.0000
    81 H33      -2.7340    4.7094    5.3187   H         1 RES1   0.0000
    82 H34      -2.0617    3.9657    3.8618   H         1 RES1   0.0000
    83 H35      -3.4725   -1.2354    0.5776   H         1 RES1   0.0000
    84 H36      -3.0905   -2.6449   -0.4461   H         1 RES1   0.0000
    85 H37      -3.1579    0.5528   -1.2877   H         1 RES1   0.0000
    86 H38      -2.9427    2.2622   -4.5329   H         1 RES1   0.0000
    87 H39      -3.7489    0.8945   -3.7542   H         1 RES1   0.0000
    88 H40      -3.3151   -0.5341   -5.6848   H         1 RES1   0.0000
    89 H41      -2.3949    0.7485   -6.4716   H         1 RES1   0.0000
    90 H42      -4.4508    0.8421   -7.5106   H         1 RES1   0.0000
    91 H43      -4.5533    2.1641   -6.3514   H         1 RES1   0.0000
    92 H44      -6.0478    0.9412   -4.9452   H         1 RES1   0.0000
    93 H45      -5.5886   -0.5989   -5.6541   H         1 RES1   0.0000
    94 H46      -7.1065    1.5928   -7.1145   H         1 RES1   0.0000
    95 H47      -7.8405    0.1704   -6.3627   H         1 RES1   0.0000
    96 H48      -5.9567    0.2167   -8.7662   H         1 RES1   0.0000
    97 H49      -7.6623   -0.1487   -8.7473   H         1 RES1   0.0000
    98 H50      -7.1597   -2.1639   -7.2953   H         1 RES1   0.0000
    99 H51      -5.4386   -1.8352   -7.5261   H         1 RES1   0.0000
   100 H52      -7.4401   -2.4268   -9.7455   H         1 RES1   0.0000
   101 H53      -6.1871   -3.5132   -9.1570   H         1 RES1   0.0000
   102 H54      -5.7461   -2.0323  -10.0034   H         1 RES1   0.0000
   103 H55       0.0901    1.9263   -3.9222   H         1 RES1   0.0000
   104 H56      -0.8184    1.8432   -5.4454   H         1 RES1   0.0000
   105 H57       0.5650   -0.6229   -4.3173   H         1 RES1   0.0000
   106 H58       1.4758    0.6369   -5.1387   H         1 RES1   0.0000
   107 H59       1.1413   -0.8309   -6.8528   H         1 RES1   0.0000
   108 H60      -0.1352    0.3169   -7.1232   H         1 RES1   0.0000
   109 H61      -1.6783   -1.3885   -7.0392   H         1 RES1   0.0000
   110 H62      -1.1921   -1.7399   -5.3985   H         1 RES1   0.0000
   111 H63       0.6503   -3.1876   -6.3136   H         1 RES1   0.0000
   112 H64       0.0291   -2.8990   -7.9361   H         1 RES1   0.0000
   113 H65      -2.1977   -3.8300   -7.1774   H         1 RES1   0.0000
   114 H66      -1.4699   -4.1589   -5.6145   H         1 RES1   0.0000
   115 H67       0.3242   -5.3392   -7.4438   H         1 RES1   0.0000
   116 H68      -1.2558   -5.7104   -8.1133   H         1 RES1   0.0000
   117 H69      -1.9340   -6.7337   -5.9228   H         1 RES1   0.0000
   118 H70      -0.3563   -6.2978   -5.2504   H         1 RES1   0.0000
   119 H71      -0.4709   -7.4744   -6.5692   H         1 RES1   0.0000
   120 H72      -2.0865   -2.2625   -3.5469   H         1 RES1   0.0000
   121 H73      -3.6932   -3.7340   -4.7013   H         1 RES1   0.0000
   122 H74      -6.1072   -3.4201   -4.3558   H         1 RES1   0.0000
   123 H75      -6.9198   -1.6187   -2.8772   H         1 RES1   0.0000
   124 H76      -5.3224   -0.1678   -1.7215   H         1 RES1   0.0000
   125 C43       0.7074    8.8413    4.5328   C.3       1 RES1   0.0000
   126 C44       1.9151    8.2687    3.8053   C.3       1 RES1   0.0000
   127 C45       1.4966    7.1714    2.8326   C.3       1 RES1   0.0000
   128 C46       2.6931    6.5417    2.1287   C.3       1 RES1   0.0000
   129 C47       2.2856    5.3636    1.2441   C.3       1 RES1   0.0000
   130 C48       3.4907    4.8299    0.4724   C.3       1 RES1   0.0000
   131 C49       3.2545    3.4645   -0.1712   C.3       1 RES1   0.0000
   132 C50       2.5387    3.4868   -1.5253   C.3       1 RES1   0.0000
   133 N3        1.1377    3.9127   -1.5433   N.am      1 RES1   0.0000
   134 C51       0.8515    5.1616   -2.2365   C.3       1 RES1   0.0000
   135 C52       1.3234    5.1842   -3.7031   C.3       1 RES1   0.0000
   136 C53       2.0654    6.4765   -4.0776   C.3       1 RES1   0.0000
   137 C54       3.3649    6.7925   -3.3172   C.3       1 RES1   0.0000
   138 C55       4.6683    6.5215   -4.0806   C.3       1 RES1   0.0000
   139 C56       5.1645    5.0731   -4.0569   C.3       1 RES1   0.0000
   140 C57       4.6276    4.2049   -5.1920   C.3       1 RES1   0.0000
   141 C58       5.1252    2.7720   -5.0654   C.3       1 RES1   0.0000
   142 C59       0.2614    3.1232   -0.9458   C.2       1 RES1   0.0000
   143 O4        0.6475    2.1541   -0.2592   O.2       1 RES1   0.0000
   144 C60      -1.2472    3.3401   -1.0774   C.3       1 RES1   0.0000
   145 O5       -1.8567    2.4149   -0.1950   O.3       1 RES1   0.0000
   146 C61      -3.1025    2.8433    0.3993   C.3       1 RES1   0.0000
   147 C62      -3.3262    1.8166    1.5497   C.2       1 RES1   0.0000
   148 O6       -2.5339    0.8566    1.5691   O.2       1 RES1   0.0000
   149 N4       -4.3557    1.9453    2.3969   N.am      1 RES1   0.0000
   150 C63      -4.5699    0.9235    3.4314   C.3       1 RES1   0.0000
   151 C64      -4.4137    1.3966    4.8914   C.3       1 RES1   0.0000
   152 C65      -4.5697    0.2220    5.8710   C.3       1 RES1   0.0000
   153 C66      -4.5339    0.6462    7.3484   C.3       1 RES1   0.0000
   154 C67      -3.1438    0.9625    7.9218   C.3       1 RES1   0.0000
   155 C68      -2.5868   -0.0787    8.9001   C.3       1 RES1   0.0000
   156 C69      -1.0506   -0.0493    9.0443   C.3       1 RES1   0.0000
   157 C70      -0.4183   -1.3545    8.5661   C.3       1 RES1   0.0000
   158 C71      -5.2644    3.0995    2.3903   C.3       1 RES1   0.0000
   159 C72      -6.6544    2.9047    3.0007   C.3       1 RES1   0.0000
   160 C73      -7.5354    4.1525    2.8434   C.3       1 RES1   0.0000
   161 C74      -8.0029    4.4782    1.4242   C.3       1 RES1   0.0000
   162 C75      -8.8226    3.3733    0.7602   C.3       1 RES1   0.0000
   163 C76      -9.4475    3.8148   -0.5649   C.3       1 RES1   0.0000
   164 C77      -8.4539    4.2689   -1.6359   C.3       1 RES1   0.0000
   165 C78      -7.4409    3.1867   -1.9905   C.3       1 RES1   0.0000
   166 C79      -3.0881    4.2975    0.8015   C.ar      1 RES1   0.0000
   167 C80      -2.0034    4.8426    1.4793   C.ar      1 RES1   0.0000
   168 C81      -2.0054    6.1818    1.8285   C.ar      1 RES1   0.0000
   169 C82      -3.0810    6.9903    1.5020   C.ar      1 RES1   0.0000
   170 C83      -4.1440    6.4680    0.7850   C.ar      1 RES1   0.0000
   171 C84      -4.1343    5.1365    0.4253   C.ar      1 RES1   0.0000
   172 H77       1.0071    9.6382    5.2048   H         1 RES1   0.0000
   173 H78       0.2123    8.0686    5.1180   H         1 RES1   0.0000
   174 H79      -0.0085    9.2472    3.8216   H         1 RES1   0.0000
   175 H80       2.6204    7.8568    4.5292   H         1 RES1   0.0000
   176 H81       2.4284    9.0598    3.2567   H         1 RES1   0.0000
   177 H82       0.8215    7.5970    2.0843   H         1 RES1   0.0000
   178 H83       0.9543    6.3938    3.3805   H         1 RES1   0.0000
   179 H84       3.4113    6.1989    2.8784   H         1 RES1   0.0000
   180 H85       3.1893    7.2971    1.5150   H         1 RES1   0.0000
   181 H86       1.4979    5.6873    0.5579   H         1 RES1   0.0000
   182 H87       1.8748    4.5614    1.8672   H         1 RES1   0.0000
   183 H88       4.3212    4.7371    1.1774   H         1 RES1   0.0000
   184 H89       3.7949    5.5596   -0.2804   H         1 RES1   0.0000
   185 H90       2.7137    2.8321    0.5337   H         1 RES1   0.0000
   186 H91       4.2247    2.9987   -0.3663   H         1 RES1   0.0000
   187 H92       2.5676    2.4665   -1.9270   H         1 RES1   0.0000
   188 H93       3.0907    4.1528   -2.1862   H         1 RES1   0.0000
   189 H94       1.3635    5.9527   -1.6822   H         1 RES1   0.0000
   190 H95      -0.2151    5.3657   -2.1893   H         1 RES1   0.0000
   191 H96       0.4568    5.1075   -4.3634   H         1 RES1   0.0000
   192 H97       1.9540    4.3183   -3.9029   H         1 RES1   0.0000
   193 H98       1.3738    7.3097   -3.9452   H         1 RES1   0.0000
   194 H99       2.2935    6.4200   -5.1411   H         1 RES1   0.0000
   195 H100      3.3999    6.2614   -2.3644   H         1 RES1   0.0000
   196 H101      3.3604    7.8559   -3.0738   H         1 RES1   0.0000
   197 H102      5.4453    7.1408   -3.6301   H         1 RES1   0.0000
   198 H103      4.5612    6.8492   -5.1151   H         1 RES1   0.0000
   199 H104      4.9236    4.6175   -3.0919   H         1 RES1   0.0000
   200 H105      6.2536    5.0733   -4.1347   H         1 RES1   0.0000
   201 H106      4.9586    4.6201   -6.1438   H         1 RES1   0.0000
   202 H107      3.5375    4.2026   -5.2045   H         1 RES1   0.0000
   203 H108      6.2090    2.7551   -5.0003   H         1 RES1   0.0000
   204 H109      4.8262    2.1802   -5.9268   H         1 RES1   0.0000
   205 H110      4.7216    2.3079   -4.1670   H         1 RES1   0.0000
   206 H111     -1.5654    3.1365   -2.1128   H         1 RES1   0.0000
   207 H112     -1.5305    4.3663   -0.8170   H         1 RES1   0.0000
   208 H113     -3.9125    2.6937   -0.3418   H         1 RES1   0.0000
   209 H114     -3.8437    0.1304    3.2409   H         1 RES1   0.0000
   210 H115     -5.5783    0.5155    3.3078   H         1 RES1   0.0000
   211 H116     -5.1838    2.1239    5.1531   H         1 RES1   0.0000
   212 H117     -3.4603    1.9048    5.0335   H         1 RES1   0.0000
   213 H118     -3.8069   -0.5317    5.6820   H         1 RES1   0.0000
   214 H119     -5.5402   -0.2399    5.6683   H         1 RES1   0.0000
   215 H120     -4.9859   -0.1438    7.9460   H         1 RES1   0.0000
   216 H121     -5.1678    1.5247    7.4523   H         1 RES1   0.0000
   217 H122     -3.1925    1.9172    8.4441   H         1 RES1   0.0000
   218 H123     -2.4345    1.0794    7.1054   H         1 RES1   0.0000
   219 H124     -2.8760   -1.0817    8.5838   H         1 RES1   0.0000
   220 H125     -3.0468    0.0951    9.8715   H         1 RES1   0.0000
   221 H126     -0.7789    0.0987   10.0885   H         1 RES1   0.0000
   222 H127     -0.6200    0.7831    8.4846   H         1 RES1   0.0000
   223 H128     -0.6683   -2.1593    9.2517   H         1 RES1   0.0000
   224 H129      0.6678   -1.2885    8.5263   H         1 RES1   0.0000
   225 H130     -0.7798   -1.6123    7.5713   H         1 RES1   0.0000
   226 H131     -5.4221    3.4018    1.3613   H         1 RES1   0.0000
   227 H132     -4.7682    3.9227    2.9123   H         1 RES1   0.0000
   228 H133     -6.5798    2.7305    4.0691   H         1 RES1   0.0000
   229 H134     -7.1571    2.0494    2.5540   H         1 RES1   0.0000
   230 H135     -6.9943    5.0153    3.2403   H         1 RES1   0.0000
   231 H136     -8.4094    4.0105    3.4831   H         1 RES1   0.0000
   232 H137     -7.1403    4.7357    0.8089   H         1 RES1   0.0000
   233 H138     -8.6271    5.3703    1.4899   H         1 RES1   0.0000
   234 H139     -9.6281    3.0847    1.4374   H         1 RES1   0.0000
   235 H140     -8.2143    2.4855    0.5843   H         1 RES1   0.0000
   236 H141    -10.1374    4.6336   -0.3640   H         1 RES1   0.0000
   237 H142    -10.0276    2.9825   -0.9694   H         1 RES1   0.0000
   238 H143     -7.9370    5.1745   -1.3156   H         1 RES1   0.0000
   239 H144     -9.0161    4.5306   -2.5340   H         1 RES1   0.0000
   240 H145     -6.7822    2.9770   -1.1476   H         1 RES1   0.0000
   241 H146     -6.8334    3.4955   -2.8394   H         1 RES1   0.0000
   242 H147     -7.9658    2.2711   -2.2529   H         1 RES1   0.0000
   243 H148     -1.1404    4.2231    1.6815   H         1 RES1   0.0000
   244 H149     -1.1573    6.5998    2.3425   H         1 RES1   0.0000
   245 H150     -3.0763    8.0304    1.7750   H         1 RES1   0.0000
   246 H151     -4.9655    7.0933    0.4705   H         1 RES1   0.0000
   247 H152     -4.9487    4.7554   -0.1712   H         1 RES1   0.0000
   248 C85       7.4423   -3.8056    6.3342   C.3       1 RES1   0.0000
   249 C86       7.5990   -2.3893    6.8828   C.3       1 RES1   0.0000
   250 C87       6.2317   -1.7395    7.0891   C.3       1 RES1   0.0000
   251 C88       6.2489   -0.2313    7.3595   C.3       1 RES1   0.0000
   252 C89       6.8925    0.6321    6.2606   C.3       1 RES1   0.0000
   253 C90       6.4334    0.2269    4.8549   C.3       1 RES1   0.0000
   254 C91       6.4506    1.3670    3.8335   C.3       1 RES1   0.0000
   255 C92       5.6922    1.0529    2.5322   C.3       1 RES1   0.0000
   256 N5        4.2257    1.0230    2.5942   N.am      1 RES1   0.0000
   257 C93       3.5188    1.7544    3.6346   C.3       1 RES1   0.0000
   258 C94       3.0188    0.8505    4.7786   C.3       1 RES1   0.0000
   259 C95       2.5439   -0.5562    4.3773   C.3       1 RES1   0.0000
   260 C96       3.6391   -1.5888    4.1044   C.3       1 RES1   0.0000
   261 C97       3.1867   -2.8191    3.3190   C.3       1 RES1   0.0000
   262 C98       4.3670   -3.7879    3.2408   C.3       1 RES1   0.0000
   263 C99       4.1518   -5.0613    2.4303   C.3       1 RES1   0.0000
   264 C100      5.4137   -5.9186    2.4918   C.3       1 RES1   0.0000
   265 C101      3.4586    0.4717    1.6600   C.2       1 RES1   0.0000
   266 O7        2.2169    0.6416    1.6259   O.2       1 RES1   0.0000
   267 C102      4.0808   -0.4304    0.6025   C.3       1 RES1   0.0000
   268 O8        2.9806   -0.9392   -0.1231   O.3       1 RES1   0.0000
   269 C103      3.2770   -2.1159   -0.8809   C.3       1 RES1   0.0000
   270 C104      1.9138   -2.4666   -1.4928   C.2       1 RES1   0.0000
   271 O9        0.9240   -1.7947   -1.1365   O.2       1 RES1   0.0000
   272 N6        1.8004   -3.4461   -2.3824   N.am      1 RES1   0.0000
   273 C105      2.8363   -4.3685   -2.8182   C.3       1 RES1   0.0000
   274 C106      3.4650   -3.9958   -4.1685   C.3       1 RES1   0.0000
   275 C107      3.8598   -5.2423   -4.9625   C.3       1 RES1   0.0000
   276 C108      4.5958   -4.8750   -6.2528   C.3       1 RES1   0.0000
   277 C109      3.6736   -4.2370   -7.3036   C.3       1 RES1   0.0000
   278 C110      4.2765   -3.0318   -8.0302   C.3       1 RES1   0.0000
   279 C111      4.2446   -1.7327   -7.2217   C.3       1 RES1   0.0000
   280 C112      4.5075   -0.5063   -8.0915   C.3       1 RES1   0.0000
   281 C113      0.4851   -3.6442   -2.9855   C.3       1 RES1   0.0000
   282 C114     -0.5389   -4.2621   -2.0252   C.3       1 RES1   0.0000
   283 C115     -0.3351   -5.7531   -1.7388   C.3       1 RES1   0.0000
   284 C116      0.5933   -6.0664   -0.5656   C.3       1 RES1   0.0000
   285 C117      0.5809   -7.5650   -0.2716   C.3       1 RES1   0.0000
   286 C118      1.5074   -7.9810    0.8680   C.3       1 RES1   0.0000
   287 C119      2.9982   -7.9165    0.5341   C.3       1 RES1   0.0000
   288 C120      3.4059   -8.8203   -0.6247   C.3       1 RES1   0.0000
   289 C121      4.3720   -1.8621   -1.8938   C.ar      1 RES1   0.0000
   290 C122      4.1403   -0.9623   -2.9273   C.ar      1 RES1   0.0000
   291 C123      5.1386   -0.6803   -3.8408   C.ar      1 RES1   0.0000
   292 C124      6.3823   -1.2753   -3.7203   C.ar      1 RES1   0.0000
   293 C125      6.6259   -2.1617   -2.6865   C.ar      1 RES1   0.0000
   294 C126      5.6260   -2.4506   -1.7724   C.ar      1 RES1   0.0000
   295 H153      8.4146   -4.2637    6.1770   H         1 RES1   0.0000
   296 H154      6.9116   -3.7929    5.3811   H         1 RES1   0.0000
   297 H155      6.8814   -4.4259    7.0296   H         1 RES1   0.0000
   298 H156      8.1923   -1.8011    6.1797   H         1 RES1   0.0000
   299 H157      8.1341   -2.4157    7.8335   H         1 RES1   0.0000
   300 H158      5.7330   -2.2284    7.9300   H         1 RES1   0.0000
   301 H159      5.6282   -1.9417    6.2010   H         1 RES1   0.0000
   302 H160      6.7607   -0.0335    8.3041   H         1 RES1   0.0000
   303 H161      5.2076    0.0855    7.4847   H         1 RES1   0.0000
   304 H162      7.9774    0.5859    6.3434   H         1 RES1   0.0000
   305 H163      6.5986    1.6672    6.4478   H         1 RES1   0.0000
   306 H164      5.4234   -0.1490    4.9576   H         1 RES1   0.0000
   307 H165      7.0583   -0.5888    4.4877   H         1 RES1   0.0000
   308 H166      7.4855    1.5714    3.5490   H         1 RES1   0.0000
   309 H167      6.0781    2.2837    4.2899   H         1 RES1   0.0000
   310 H168      6.0458    0.0896    2.1598   H         1 RES1   0.0000
   311 H169      5.9712    1.8177    1.7983   H         1 RES1   0.0000
   312 H170      2.6646    2.2386    3.1528   H         1 RES1   0.0000
   313 H171      4.1621    2.5406    4.0278   H         1 RES1   0.0000
   314 H172      2.1651    1.3689    5.2149   H         1 RES1   0.0000
   315 H173      3.7713    0.7729    5.5626   H         1 RES1   0.0000
   316 H174      1.8809   -0.4674    3.5126   H         1 RES1   0.0000
   317 H175      1.9608   -0.9482    5.2147   H         1 RES1   0.0000
   318 H176      4.0206   -1.9284    5.0698   H         1 RES1   0.0000
   319 H177      4.4689   -1.1502    3.5553   H         1 RES1   0.0000
   320 H178      2.8456   -2.5237    2.3190   H         1 RES1   0.0000
   321 H179      2.3506   -3.3031    3.8252   H         1 RES1   0.0000
   322 H180      4.6201   -4.0869    4.2595   H         1 RES1   0.0000
   323 H181      5.2419   -3.2683    2.8330   H         1 RES1   0.0000
   324 H182      3.9194   -4.8142    1.3875   H         1 RES1   0.0000
   325 H183      3.3091   -5.6255    2.8321   H         1 RES1   0.0000
   326 H184      6.2814   -5.3245    2.2145   H         1 RES1   0.0000
   327 H185      5.3531   -6.7656    1.8163   H         1 RES1   0.0000
   328 H186      5.5808   -6.3032    3.4956   H         1 RES1   0.0000
   329 H187      4.6493   -1.2376    1.0916   H         1 RES1   0.0000
   330 H188      4.7661    0.1229   -0.0578   H         1 RES1   0.0000
   331 H189      3.5763   -2.9297   -0.1966   H         1 RES1   0.0000
   332 H190      2.3616   -5.3460   -2.9301   H         1 RES1   0.0000
   333 H191      3.5993   -4.4668   -2.0486   H         1 RES1   0.0000
   334 H192      4.3493   -3.3782   -4.0293   H         1 RES1   0.0000
   335 H193      2.7539   -3.4064   -4.7500   H         1 RES1   0.0000
   336 H194      2.9608   -5.8110   -5.2079   H         1 RES1   0.0000
   337 H195      4.5038   -5.8813   -4.3535   H         1 RES1   0.0000
   338 H196      5.0381   -5.7815   -6.6686   H         1 RES1   0.0000
   339 H197      5.4152   -4.1972   -6.0063   H         1 RES1   0.0000
   340 H198      2.7335   -3.9321   -6.8394   H         1 RES1   0.0000
   341 H199      3.4110   -4.9874   -8.0497   H         1 RES1   0.0000
   342 H200      3.7151   -2.8777   -8.9528   H         1 RES1   0.0000
   343 H201      5.3033   -3.2548   -8.3181   H         1 RES1   0.0000
   344 H202      4.9855   -1.7675   -6.4200   H         1 RES1   0.0000
   345 H203      3.2621   -1.6263   -6.7512   H         1 RES1   0.0000
   346 H204      5.5195   -0.5219   -8.4866   H         1 RES1   0.0000
   347 H205      4.3807    0.4126   -7.5195   H         1 RES1   0.0000
   348 H206      3.8120   -0.4737   -8.9270   H         1 RES1   0.0000
   349 H207      0.5889   -4.2647   -3.8802   H         1 RES1   0.0000
   350 H208      0.1219   -2.6574   -3.2876   H         1 RES1   0.0000
   351 H209     -1.5223   -4.1334   -2.4842   H         1 RES1   0.0000
   352 H210     -0.5310   -3.6942   -1.0902   H         1 RES1   0.0000
   353 H211      0.0374   -6.2420   -2.6408   H         1 RES1   0.0000
   354 H212     -1.3107   -6.1963   -1.5209   H         1 RES1   0.0000
   355 H213      0.2540   -5.5181    0.3180   H         1 RES1   0.0000
   356 H214      1.6114   -5.7414   -0.7785   H         1 RES1   0.0000
   357 H215      0.8499   -8.1096   -1.1751   H         1 RES1   0.0000
   358 H216     -0.4394   -7.8543   -0.0176   H         1 RES1   0.0000
   359 H217      1.2670   -9.0071    1.1502   H         1 RES1   0.0000
   360 H218      1.3110   -7.3499    1.7393   H         1 RES1   0.0000
   361 H219      3.5410   -8.2283    1.4283   H         1 RES1   0.0000
   362 H220      3.2909   -6.8881    0.3086   H         1 RES1   0.0000
   363 H221      2.9789   -9.8119   -0.4970   H         1 RES1   0.0000
   364 H222      4.4893   -8.9157   -0.6609   H         1 RES1   0.0000
   365 H223      3.0714   -8.4204   -1.5803   H         1 RES1   0.0000
   366 H224      3.1653   -0.5047   -3.0141   H         1 RES1   0.0000
   367 H225      4.9465    0.0080   -4.6446   H         1 RES1   0.0000
   368 H226      7.1515   -1.0489   -4.4385   H         1 RES1   0.0000
   369 H227      7.5950   -2.6207   -2.5866   H         1 RES1   0.0000
   370 H228      5.8314   -3.1487   -0.9752   H         1 RES1   0.0000
@<TRIPOS>BOND
     1     1    20    1
     2     1    22    1
     3     1    25    1
     4     1   143    1
     5     1   145    1
     6     1   148    1
     7     1   266    1
     8     1   268    1
     9     1   271    1
    10     2     3    1
    11     2    49    1
    12     2    50    1
    13     2    51    1
    14     3     4    1
    15     3    52    1
    16     3    53    1
    17     4     5    1
    18     4    54    1
    19     4    55    1
    20     5     6    1
    21     5    56    1
    22     5    57    1
    23     6     7    1
    24     6    58    1
    25     6    59    1
    26     7     8    1
    27     7    60    1
    28     7    61    1
    29     8     9    1
    30     8    62    1
    31     8    63    1
    32     9    10    1
    33     9    64    1
    34     9    65    1
    35    10    11    1
    36    10    19    1
    37    11    12    1
    38    11    66    1
    39    11    67    1
    40    12    13    1
    41    12    68    1
    42    12    69    1
    43    13    14    1
    44    13    70    1
    45    13    71    1
    46    14    15    1
    47    14    72    1
    48    14    73    1
    49    15    16    1
    50    15    74    1
    51    15    75    1
    52    16    17    1
    53    16    76    1
    54    16    77    1
    55    17    18    1
    56    17    78    1
    57    17    79    1
    58    18    80    1
    59    18    81    1
    60    18    82    1
    61    19    20    2
    62    19    21    1
    63    21    22    1
    64    21    83    1
    65    21    84    1
    66    22    23    1
    67    23    24    1
    68    23    43    1
    69    23    85    1
    70    24    25    2
    71    24    26    1
    72    26    27    1
    73    26    35    1
    74    27    28    1
    75    27    86    1
    76    27    87    1
    77    28    29    1
    78    28    88    1
    79    28    89    1
    80    29    30    1
    81    29    90    1
    82    29    91    1
    83    30    31    1
    84    30    92    1
    85    30    93    1
    86    31    32    1
    87    31    94    1
    88    31    95    1
    89    32    33    1
    90    32    96    1
    91    32    97    1
    92    33    34    1
    93    33    98    1
    94    33    99    1
    95    34   100    1
    96    34   101    1
    97    34   102    1
    98    35    36    1
    99    35   103    1
   100    35   104    1
   101    36    37    1
   102    36   105    1
   103    36   106    1
   104    37    38    1
   105    37   107    1
   106    37   108    1
   107    38    39    1
   108    38   109    1
   109    38   110    1
   110    39    40    1
   111    39   111    1
   112    39   112    1
   113    40    41    1
   114    40   113    1
   115    40   114    1
   116    41    42    1
   117    41   115    1
   118    41   116    1
   119    42   117    1
   120    42   118    1
   121    42   119    1
   122    43    44    1
   123    43    48    2
   124    44    45    2
   125    44   120    1
   126    45    46    1
   127    45   121    1
   128    46    47    2
   129    46   122    1
   130    47    48    1
   131    47   123    1
   132    48   124    1
   133   125   126    1
   134   125   172    1
   135   125   173    1
   136   125   174    1
   137   126   127    1
   138   126   175    1
   139   126   176    1
   140   127   128    1
   141   127   177    1
   142   127   178    1
   143   128   129    1
   144   128   179    1
   145   128   180    1
   146   129   130    1
   147   129   181    1
   148   129   182    1
   149   130   131    1
   150   130   183    1
   151   130   184    1
   152   131   132    1
   153   131   185    1
   154   131   186    1
   155   132   133    1
   156   132   187    1
   157   132   188    1
   158   133   134    1
   159   133   142    1
   160   134   135    1
   161   134   189    1
   162   134   190    1
   163   135   136    1
   164   135   191    1
   165   135   192    1
   166   136   137    1
   167   136   193    1
   168   136   194    1
   169   137   138    1
   170   137   195    1
   171   137   196    1
   172   138   139    1
   173   138   197    1
   174   138   198    1
   175   139   140    1
   176   139   199    1
   177   139   200    1
   178   140   141    1
   179   140   201    1
   180   140   202    1
   181   141   203    1
   182   141   204    1
   183   141   205    1
   184   142   143    2
   185   142   144    1
   186   144   145    1
   187   144   206    1
   188   144   207    1
   189   145   146    1
   190   146   147    1
   191   146   166    1
   192   146   208    1
   193   147   148    2
   194   147   149    1
   195   149   150    1
   196   149   158    1
   197   150   151    1
   198   150   209    1
   199   150   210    1
   200   151   152    1
   201   151   211    1
   202   151   212    1
   203   152   153    1
   204   152   213    1
   205   152   214    1
   206   153   154    1
   207   153   215    1
   208   153   216    1
   209   154   155    1
   210   154   217    1
   211   154   218    1
   212   155   156    1
   213   155   219    1
   214   155   220    1
   215   156   157    1
   216   156   221    1
   217   156   222    1
   218   157   223    1
   219   157   224    1
   220   157   225    1
   221   158   159    1
   222   158   226    1
   223   158   227    1
   224   159   160    1
   225   159   228    1
   226   159   229    1
   227   160   161    1
   228   160   230    1
   229   160   231    1
   230   161   162    1
   231   161   232    1
   232   161   233    1
   233   162   163    1
   234   162   234    1
   235   162   235    1
   236   163   164    1
   237   163   236    1
   238   163   237    1
   239   164   165    1
   240   164   238    1
   241   164   239    1
   242   165   240    1
   243   165   241    1
   244   165   242    1
   245   166   167    1
   246   166   171    2
   247   167   168    2
   248   167   243    1
   249   168   169    1
   250   168   244    1
   251   169   170    2
   252   169   245    1
   253   170   171    1
   254   170   246    1
   255   171   247    1
   256   248   249    1
   257   248   295    1
   258   248   296    1
   259   248   297    1
   260   249   250    1
   261   249   298    1
   262   249   299    1
   263   250   251    1
   264   250   300    1
   265   250   301    1
   266   251   252    1
   267   251   302    1
   268   251   303    1
   269   252   253    1
   270   252   304    1
   271   252   305    1
   272   253   254    1
   273   253   306    1
   274   253   307    1
   275   254   255    1
   276   254   308    1
   277   254   309    1
   278   255   256    1
   279   255   310    1
   280   255   311    1
   281   256   257    1
   282   256   265    1
   283   257   258    1
   284   257   312    1
   285   257   313    1
   286   258   259    1
   287   258   314    1
   288   258   315    1
   289   259   260    1
   290   259   316    1
   291   259   317    1
   292   260   261    1
   293   260   318    1
   294   260   319    1
   295   261   262    1
   296   261   320    1
   297   261   321    1
   298   262   263    1
   299   262   322    1
   300   262   323    1
   301   263   264    1
   302   263   324    1
   303   263   325    1
   304   264   326    1
   305   264   327    1
   306   264   328    1
   307   265   266    2
   308   265   267    1
   309   267   268    1
   310   267   329    1
   311   267   330    1
   312   268   269    1
   313   269   270    1
   314   269   289    1
   315   269   331    1
   316   270   271    2
   317   270   272    1
   318   272   273    1
   319   272   281    1
   320   273   274    1
   321   273   332    1
   322   273   333    1
   323   274   275    1
   324   274   334    1
   325   274   335    1
   326   275   276    1
   327   275   336    1
   328   275   337    1
   329   276   277    1
   330   276   338    1
   331   276   339    1
   332   277   278    1
   333   277   340    1
   334   277   341    1
   335   278   279    1
   336   278   342    1
   337   278   343    1
   338   279   280    1
   339   279   344    1
   340   279   345    1
   341   280   346    1
   342   280   347    1
   343   280   348    1
   344   281   282    1
   345   281   349    1
   346   281   350    1
   347   282   283    1
   348   282   351    1
   349   282   352    1
   350   283   284    1
   351   283   353    1
   352   283   354    1
   353   284   285    1
   354   284   355    1
   355   284   356    1
   356   285   286    1
   357   285   357    1
   358   285   358    1
   359   286   287    1
   360   286   359    1
   361   286   360    1
   362   287   288    1
   363   287   361    1
   364   287   362    1
   365   288   363    1
   366   288   364    1
   367   288   365    1
   368   289   290    1
   369   289   294    2
   370   290   291    2
   371   290   366    1
   372   291   292    1
   373   291   367    1
   374   292   293    2
   375   292   368    1
   376   293   294    1
   377   293   369    1
   378   294   370    1
@<TRIPOS>SUBSTRUCTURE
     1 RES1      370 GROUP             0 ****  ****    0  
