@<TRIPOS>MOLECULE
tri_tri_mer_capped_0_nunpairedes_0_charge_3 Charge: 3 Unpaired_Electrons: 6 XTB_Unpaired_Electrons: 0 XTB_Charge: 3
    98   108     1     0     0
SMALL
NoCharges
****
Generated from Architector

@<TRIPOS>ATOM
     1 Eu1       0.3650   -0.9363    0.1070   Eu        1 RES1   0.0000
     2 C1       -1.7836    2.0934    2.2374   C.3       1 RES1   0.0000
     3 C2       -2.0829    0.6756    1.7512   C.3       1 RES1   0.0000
     4 C3       -3.5949    0.4448    1.6336   C.3       1 RES1   0.0000
     5 C4       -3.9648   -0.8779    0.9575   C.3       1 RES1   0.0000
     6 C5       -4.0538   -0.8190   -0.5796   C.3       1 RES1   0.0000
     7 C6       -2.7590   -0.8079   -1.3210   C.ar      1 RES1   0.0000
     8 N1       -1.8101   -1.6507   -0.9299   N.ar      1 RES1   0.0000
     9 N2       -0.6598   -1.7651   -1.6160   N.ar      1 RES1   0.0000
    10 C7       -0.4859   -1.0164   -2.7075   C.ar      1 RES1   0.0000
    11 C8        0.9498   -0.8412   -3.1092   C.ar      1 RES1   0.0000
    12 C9        1.6217   -1.0833   -4.2961   C.ar      1 RES1   0.0000
    13 C10       2.9541   -0.6802   -4.3716   C.ar      1 RES1   0.0000
    14 C11       3.5831   -0.0714   -3.2923   C.ar      1 RES1   0.0000
    15 C12       2.8611    0.0801   -2.1128   C.ar      1 RES1   0.0000
    16 C13       3.4038    0.4458   -0.7692   C.ar      1 RES1   0.0000
    17 C14       4.5679    1.1098   -0.3755   C.ar      1 RES1   0.0000
    18 C15       4.8371    1.1925    0.9927   C.ar      1 RES1   0.0000
    19 C16       4.0561    0.5232    1.9391   C.ar      1 RES1   0.0000
    20 C17       2.9449   -0.1545    1.4672   C.ar      1 RES1   0.0000
    21 C18       1.9949   -1.1814    2.0205   C.ar      1 RES1   0.0000
    22 N3        1.9876   -2.2290    1.1717   N.ar      1 RES1   0.0000
    23 N4        0.8939   -2.9650    1.0989   N.ar      1 RES1   0.0000
    24 C19       0.0061   -2.9635    2.1107   C.ar      1 RES1   0.0000
    25 C20      -1.0080   -4.0570    2.0389   C.3       1 RES1   0.0000
    26 C21      -0.2701   -5.4189    2.1516   C.3       1 RES1   0.0000
    27 C22       0.6677   -5.7320    0.9949   C.3       1 RES1   0.0000
    28 C23       0.0439   -5.7328   -0.3994   C.3       1 RES1   0.0000
    29 C24      -1.1590   -6.6604   -0.5427   C.3       1 RES1   0.0000
    30 C25       0.2058   -2.0210    3.1643   C.ar      1 RES1   0.0000
    31 C26      -0.4330   -2.0965    4.4999   C.3       1 RES1   0.0000
    32 C27       0.6840   -1.8858    5.5403   C.3       1 RES1   0.0000
    33 C28       1.8230   -2.8793    5.2830   C.3       1 RES1   0.0000
    34 C29       3.1670   -2.3538    5.7598   C.3       1 RES1   0.0000
    35 C30       4.3036   -3.2991    5.3962   C.3       1 RES1   0.0000
    36 N5        1.0298   -0.9741    2.9077   N.ar      1 RES1   0.0000
    37 N6        2.6131   -0.0937    0.1681   N.ar      1 RES1   0.0000
    38 N7        1.5671   -0.3002   -2.0477   N.ar      1 RES1   0.0000
    39 N8       -1.3487   -0.1000   -3.0940   N.ar      1 RES1   0.0000
    40 C31      -2.4472    0.1130   -2.3811   C.ar      1 RES1   0.0000
    41 C32      -3.0187    1.4718   -2.5406   C.3       1 RES1   0.0000
    42 C33      -1.8725    2.4377   -2.9153   C.3       1 RES1   0.0000
    43 C34      -2.1068    3.8732   -2.4551   C.3       1 RES1   0.0000
    44 C35      -0.7975    4.6522   -2.2819   C.3       1 RES1   0.0000
    45 C36       0.1228    4.6362   -3.5007   C.3       1 RES1   0.0000
    46 H1       -0.7194    2.2340    2.4081   H         1 RES1   0.0000
    47 H2       -2.3005    2.2828    3.1741   H         1 RES1   0.0000
    48 H3       -2.1298    2.8380    1.5246   H         1 RES1   0.0000
    49 H4       -1.6801   -0.0490    2.4785   H         1 RES1   0.0000
    50 H5       -1.5928    0.5180    0.7459   H         1 RES1   0.0000
    51 H6       -4.0719    1.2738    1.1043   H         1 RES1   0.0000
    52 H7       -4.0090    0.4384    2.6446   H         1 RES1   0.0000
    53 H8       -4.9535   -1.1674    1.3098   H         1 RES1   0.0000
    54 H9       -3.2559   -1.6613    1.2502   H         1 RES1   0.0000
    55 H10      -4.6831    0.0148   -0.8949   H         1 RES1   0.0000
    56 H11      -4.5672   -1.7360   -0.8937   H         1 RES1   0.0000
    57 H12       1.1396   -1.5922   -5.1173   H         1 RES1   0.0000
    58 H13       3.5137   -0.8671   -5.2732   H         1 RES1   0.0000
    59 H14       4.6184    0.2276   -3.3601   H         1 RES1   0.0000
    60 H15       5.2509    1.5375   -1.0944   H         1 RES1   0.0000
    61 H16       5.7056    1.7421    1.3327   H         1 RES1   0.0000
    62 H17       4.3263    0.5268    2.9818   H         1 RES1   0.0000
    63 H18      -1.5119   -4.0288    1.0651   H         1 RES1   0.0000
    64 H19      -1.7548   -3.9760    2.8273   H         1 RES1   0.0000
    65 H20      -1.0451   -6.1826    2.2083   H         1 RES1   0.0000
    66 H21       0.2886   -5.4531    3.0897   H         1 RES1   0.0000
    67 H22       1.1079   -6.7122    1.1895   H         1 RES1   0.0000
    68 H23       1.5054   -5.0213    0.9992   H         1 RES1   0.0000
    69 H24       0.8128   -6.0621   -1.0982   H         1 RES1   0.0000
    70 H25      -0.2316   -4.7063   -0.6838   H         1 RES1   0.0000
    71 H26      -0.8849   -7.6799   -0.2877   H         1 RES1   0.0000
    72 H27      -1.5042   -6.6620   -1.5722   H         1 RES1   0.0000
    73 H28      -1.9910   -6.3578    0.0868   H         1 RES1   0.0000
    74 H29      -0.9008   -3.0723    4.6393   H         1 RES1   0.0000
    75 H30      -1.1905   -1.3188    4.6297   H         1 RES1   0.0000
    76 H31       0.2790   -2.0081    6.5437   H         1 RES1   0.0000
    77 H32       1.0572   -0.8653    5.4517   H         1 RES1   0.0000
    78 H33       1.8956   -3.0778    4.2051   H         1 RES1   0.0000
    79 H34       1.6070   -3.8373    5.7531   H         1 RES1   0.0000
    80 H35       3.1378   -2.2199    6.8422   H         1 RES1   0.0000
    81 H36       3.3525   -1.3686    5.3200   H         1 RES1   0.0000
    82 H37       4.1489   -4.2724    5.8529   H         1 RES1   0.0000
    83 H38       5.2548   -2.9096    5.7480   H         1 RES1   0.0000
    84 H39       4.3604   -3.4358    4.3157   H         1 RES1   0.0000
    85 H40      -3.5279    1.8014   -1.6292   H         1 RES1   0.0000
    86 H41      -3.7654    1.4761   -3.3395   H         1 RES1   0.0000
    87 H42      -1.7010    2.4013   -3.9900   H         1 RES1   0.0000
    88 H43      -0.9501    2.0637   -2.4499   H         1 RES1   0.0000
    89 H44      -2.6322    3.8779   -1.4972   H         1 RES1   0.0000
    90 H45      -2.7374    4.3870   -3.1768   H         1 RES1   0.0000
    91 H46      -0.2453    4.2630   -1.4134   H         1 RES1   0.0000
    92 H47      -1.0575    5.6870   -2.0584   H         1 RES1   0.0000
    93 H48       0.5444    3.6468   -3.6823   H         1 RES1   0.0000
    94 H49       0.9494    5.3292   -3.3491   H         1 RES1   0.0000
    95 H50      -0.4109    4.9513   -4.3943   H         1 RES1   0.0000
    96 O1        0.4089    1.6405   -0.1380   O.3       1 RES1   0.0000
    97 H51       1.1690    2.1678    0.1611   H         1 RES1   0.0000
    98 H52      -0.1096    2.2699   -0.6848   H         1 RES1   0.0000
@<TRIPOS>BOND
     1     1     8    1
     2     1     9    1
     3     1    22    1
     4     1    23    1
     5     1    36    1
     6     1    37    1
     7     1    38    1
     8     1    39    1
     9     1    96    1
    10     2     3    1
    11     2    46    1
    12     2    47    1
    13     2    48    1
    14     3     4    1
    15     3    49    1
    16     3    50    1
    17     4     5    1
    18     4    51    1
    19     4    52    1
    20     5     6    1
    21     5    53    1
    22     5    54    1
    23     6     7    1
    24     6    55    1
    25     6    56    1
    26     7     8    1
    27     7    40    2
    28     8     9    2
    29     9    10    1
    30    10    11    1
    31    10    39    2
    32    11    12    1
    33    11    38    2
    34    12    13    2
    35    12    57    1
    36    13    14    1
    37    13    58    1
    38    14    15    2
    39    14    59    1
    40    15    16    1
    41    15    38    1
    42    16    17    1
    43    16    37    2
    44    17    18    2
    45    17    60    1
    46    18    19    1
    47    18    61    1
    48    19    20    2
    49    19    62    1
    50    20    21    1
    51    20    37    1
    52    21    22    1
    53    21    36    2
    54    22    23    2
    55    23    24    1
    56    24    25    1
    57    24    30    2
    58    25    26    1
    59    25    63    1
    60    25    64    1
    61    26    27    1
    62    26    65    1
    63    26    66    1
    64    27    28    1
    65    27    67    1
    66    27    68    1
    67    28    29    1
    68    28    69    1
    69    28    70    1
    70    29    71    1
    71    29    72    1
    72    29    73    1
    73    30    31    1
    74    30    36    1
    75    31    32    1
    76    31    74    1
    77    31    75    1
    78    32    33    1
    79    32    76    1
    80    32    77    1
    81    33    34    1
    82    33    78    1
    83    33    79    1
    84    34    35    1
    85    34    80    1
    86    34    81    1
    87    35    82    1
    88    35    83    1
    89    35    84    1
    90    39    40    1
    91    40    41    1
    92    41    42    1
    93    41    85    1
    94    41    86    1
    95    42    43    1
    96    42    87    1
    97    42    88    1
    98    43    44    1
    99    43    89    1
   100    43    90    1
   101    44    45    1
   102    44    91    1
   103    44    92    1
   104    45    93    1
   105    45    94    1
   106    45    95    1
   107    96    97    1
   108    96    98    1
@<TRIPOS>SUBSTRUCTURE
     1 RES1       98 GROUP             0 ****  ****    0  
