@<TRIPOS>MOLECULE
tri_tri_mer_capped_0_nunpairedes_0_charge_3 Charge: 3 Unpaired_Electrons: 6 XTB_Unpaired_Electrons: 0 XTB_Charge: 3
   440   443     1     0     0
SMALL
NoCharges
****
Generated from Architector

@<TRIPOS>ATOM
     1 Eu1      -0.0602   -0.0167    0.3388   Eu        1 RES1   0.0000
     2 C1        5.6338    1.4680   -1.7000   C.3       1 RES1   0.0000
     3 C2        5.2073    2.8172   -1.1362   C.3       1 RES1   0.0000
     4 C3        6.1527    3.3822   -0.0819   C.3       1 RES1   0.0000
     5 C4        5.5934    4.6648    0.5383   C.3       1 RES1   0.0000
     6 C5        4.5280    4.3689    1.5957   C.3       1 RES1   0.0000
     7 C6        3.8853    5.6402    2.1373   C.3       1 RES1   0.0000
     8 C7        3.0800    5.4249    3.4173   C.3       1 RES1   0.0000
     9 C8        1.6603    4.8520    3.2861   C.3       1 RES1   0.0000
    10 N1        1.5141    3.4810    2.8123   N.am      1 RES1   0.0000
    11 C9        2.0430    2.4111    3.6619   C.3       1 RES1   0.0000
    12 C10       0.9393    1.5646    4.3048   C.3       1 RES1   0.0000
    13 C11       0.3687    2.2244    5.5547   C.3       1 RES1   0.0000
    14 C12      -0.8173    1.4553    6.1479   C.3       1 RES1   0.0000
    15 C13      -0.4418    0.4795    7.2618   C.3       1 RES1   0.0000
    16 C14       0.2367   -0.8095    6.7979   C.3       1 RES1   0.0000
    17 C15      -0.6428   -1.7230    5.9391   C.3       1 RES1   0.0000
    18 C16      -1.9884   -2.0200    6.5918   C.3       1 RES1   0.0000
    19 C17       0.8920    3.0419    1.7072   C.2       1 RES1   0.0000
    20 O1        0.8111    1.8172    1.4996   O.2       1 RES1   0.0000
    21 C18       0.3629    4.0347    0.6696   C.3       1 RES1   0.0000
    22 C19      -0.8636    3.5190   -0.0946   C.2       1 RES1   0.0000
    23 O2       -1.0693    2.3022   -0.2274   O.2       1 RES1   0.0000
    24 N2       -1.6983    4.4443   -0.6053   N.am      1 RES1   0.0000
    25 C20      -2.9813    3.9531   -1.1068   C.3       1 RES1   0.0000
    26 C21      -4.2234    4.7926   -0.7989   C.3       1 RES1   0.0000
    27 C22      -4.5222    5.0267    0.6772   C.3       1 RES1   0.0000
    28 C23      -5.8455    5.7740    0.9000   C.3       1 RES1   0.0000
    29 C24      -7.0786    4.9300    0.5857   C.3       1 RES1   0.0000
    30 C25      -8.4002    5.6649    0.8043   C.3       1 RES1   0.0000
    31 C26      -9.6022    4.8358    0.3408   C.3       1 RES1   0.0000
    32 C27      -9.9481    3.6821    1.2744   C.3       1 RES1   0.0000
    33 C28      -1.2527    5.8358   -0.7463   C.3       1 RES1   0.0000
    34 C29      -2.0017    6.8182   -1.6621   C.3       1 RES1   0.0000
    35 C30      -2.3463    6.4163   -3.1022   C.3       1 RES1   0.0000
    36 C31      -1.1925    5.7548   -3.8570   C.3       1 RES1   0.0000
    37 C32      -1.2139    6.0439   -5.3583   C.3       1 RES1   0.0000
    38 C33      -2.4400    5.5263   -6.1128   C.3       1 RES1   0.0000
    39 C34      -2.4363    4.0167   -6.3532   C.3       1 RES1   0.0000
    40 C35      -3.6221    3.5984   -7.2185   C.3       1 RES1   0.0000
    41 H1        6.6886    1.4887   -1.9571   H         1 RES1   0.0000
    42 H2        5.0635    1.2321   -2.5969   H         1 RES1   0.0000
    43 H3        5.4836    0.6640   -0.9804   H         1 RES1   0.0000
    44 H4        4.2028    2.7391   -0.7118   H         1 RES1   0.0000
    45 H5        5.1720    3.5315   -1.9552   H         1 RES1   0.0000
    46 H6        7.1168    3.5864   -0.5507   H         1 RES1   0.0000
    47 H7        6.3170    2.6558    0.7098   H         1 RES1   0.0000
    48 H8        5.1751    5.2959   -0.2483   H         1 RES1   0.0000
    49 H9        6.4093    5.2184    1.0058   H         1 RES1   0.0000
    50 H10       5.0091    3.8529    2.4288   H         1 RES1   0.0000
    51 H11       3.7620    3.7079    1.1825   H         1 RES1   0.0000
    52 H12       3.2706    6.1105    1.3701   H         1 RES1   0.0000
    53 H13       4.6806    6.3457    2.3831   H         1 RES1   0.0000
    54 H14       2.9363    6.3999    3.8882   H         1 RES1   0.0000
    55 H15       3.6786    4.8302    4.1087   H         1 RES1   0.0000
    56 H16       1.0763    5.5243    2.6603   H         1 RES1   0.0000
    57 H17       1.2355    4.8896    4.2933   H         1 RES1   0.0000
    58 H18       2.6787    2.8494    4.4290   H         1 RES1   0.0000
    59 H19       2.6519    1.7871    3.0058   H         1 RES1   0.0000
    60 H20       1.3441    0.5817    4.5420   H         1 RES1   0.0000
    61 H21       0.1387    1.4103    3.5764   H         1 RES1   0.0000
    62 H22       0.0344    3.2319    5.2942   H         1 RES1   0.0000
    63 H23       1.1519    2.3216    6.3094   H         1 RES1   0.0000
    64 H24      -1.3340    0.9140    5.3516   H         1 RES1   0.0000
    65 H25      -1.5173    2.1824    6.5625   H         1 RES1   0.0000
    66 H26      -1.3451    0.2205    7.8145   H         1 RES1   0.0000
    67 H27       0.2221    0.9910    7.9599   H         1 RES1   0.0000
    68 H28       0.5368   -1.3601    7.6905   H         1 RES1   0.0000
    69 H29       1.1482   -0.5740    6.2446   H         1 RES1   0.0000
    70 H30      -0.1063   -2.6633    5.7938   H         1 RES1   0.0000
    71 H31      -0.7825   -1.2773    4.9495   H         1 RES1   0.0000
    72 H32      -2.6404   -1.1515    6.5595   H         1 RES1   0.0000
    73 H33      -1.8424   -2.2874    7.6342   H         1 RES1   0.0000
    74 H34      -2.4905   -2.8500    6.0994   H         1 RES1   0.0000
    75 H35       1.1801    4.1597   -0.0457   H         1 RES1   0.0000
    76 H36       0.1404    5.0061    1.0980   H         1 RES1   0.0000
    77 H37      -3.0978    2.9560   -0.6671   H         1 RES1   0.0000
    78 H38      -2.9066    3.8114   -2.1887   H         1 RES1   0.0000
    79 H39      -5.0552    4.2447   -1.2269   H         1 RES1   0.0000
    80 H40      -4.1951    5.7471   -1.3103   H         1 RES1   0.0000
    81 H41      -3.7140    5.6082    1.1228   H         1 RES1   0.0000
    82 H42      -4.5669    4.0652    1.1869   H         1 RES1   0.0000
    83 H43      -5.8574    6.6719    0.2802   H         1 RES1   0.0000
    84 H44      -5.8927    6.0984    1.9419   H         1 RES1   0.0000
    85 H45      -7.0625    4.0338    1.2073   H         1 RES1   0.0000
    86 H46      -7.0342    4.6209   -0.4580   H         1 RES1   0.0000
    87 H47      -8.3793    6.5996    0.2398   H         1 RES1   0.0000
    88 H48      -8.5198    5.9185    1.8599   H         1 RES1   0.0000
    89 H49      -9.4073    4.4481   -0.6619   H         1 RES1   0.0000
    90 H50     -10.4719    5.4874    0.2627   H         1 RES1   0.0000
    91 H51      -9.1256    2.9770    1.3645   H         1 RES1   0.0000
    92 H52     -10.8130    3.1431    0.8971   H         1 RES1   0.0000
    93 H53     -10.1894    4.0554    2.2655   H         1 RES1   0.0000
    94 H54      -0.2140    5.8034   -1.0848   H         1 RES1   0.0000
    95 H55      -1.2624    6.3117    0.2409   H         1 RES1   0.0000
    96 H56      -1.3459    7.6919   -1.7167   H         1 RES1   0.0000
    97 H57      -2.9042    7.1676   -1.1626   H         1 RES1   0.0000
    98 H58      -2.6220    7.3404   -3.6170   H         1 RES1   0.0000
    99 H59      -3.2194    5.7644   -3.1304   H         1 RES1   0.0000
   100 H60      -1.2021    4.6762   -3.6832   H         1 RES1   0.0000
   101 H61      -0.2504    6.1470   -3.4781   H         1 RES1   0.0000
   102 H62      -0.3126    5.6266   -5.8189   H         1 RES1   0.0000
   103 H63      -1.1675    7.1263   -5.4875   H         1 RES1   0.0000
   104 H64      -2.4633    6.0218   -7.0851   H         1 RES1   0.0000
   105 H65      -3.3563    5.8131   -5.5940   H         1 RES1   0.0000
   106 H66      -2.4719    3.4823   -5.3962   H         1 RES1   0.0000
   107 H67      -1.5095    3.7462   -6.8684   H         1 RES1   0.0000
   108 H68      -4.5579    3.7366   -6.6811   H         1 RES1   0.0000
   109 H69      -3.5389    2.5557   -7.5198   H         1 RES1   0.0000
   110 H70      -3.6654    4.2073   -8.1189   H         1 RES1   0.0000
   111 C36      -6.3275    2.7700   -2.7909   C.3       1 RES1   0.0000
   112 C37      -6.1455    1.7967   -1.6306   C.3       1 RES1   0.0000
   113 C38      -7.4883    1.4737   -0.9790   C.3       1 RES1   0.0000
   114 C39      -7.4413    0.4248    0.1348   C.3       1 RES1   0.0000
   115 C40      -6.4586    0.7842    1.2470   C.3       1 RES1   0.0000
   116 C41      -6.6279   -0.0958    2.4892   C.3       1 RES1   0.0000
   117 C42      -6.1254    0.5540    3.7798   C.3       1 RES1   0.0000
   118 C43      -4.6353    0.3603    4.0939   C.3       1 RES1   0.0000
   119 N3       -3.7218    0.6083    2.9918   N.am      1 RES1   0.0000
   120 C44      -3.7085    1.9943    2.5421   C.3       1 RES1   0.0000
   121 C45      -2.5644    2.8096    3.1487   C.3       1 RES1   0.0000
   122 C46      -3.0101    4.1024    3.8396   C.3       1 RES1   0.0000
   123 C47      -1.8752    5.1202    3.8105   C.3       1 RES1   0.0000
   124 C48      -2.1134    6.3518    4.6802   C.3       1 RES1   0.0000
   125 C49      -3.0293    7.3986    4.0474   C.3       1 RES1   0.0000
   126 C50      -2.4911    8.0167    2.7545   C.3       1 RES1   0.0000
   127 C51      -1.0613    8.5257    2.8791   C.3       1 RES1   0.0000
   128 C52      -2.7745   -0.2011    2.5089   C.2       1 RES1   0.0000
   129 O3       -1.9145    0.2480    1.7348   O.2       1 RES1   0.0000
   130 C53      -2.8226   -1.6794    2.9133   C.3       1 RES1   0.0000
   131 C54      -1.6308   -2.5191    2.4331   C.2       1 RES1   0.0000
   132 O4       -0.7080   -2.0068    1.7713   O.2       1 RES1   0.0000
   133 N4       -1.6269   -3.8189    2.7530   N.am      1 RES1   0.0000
   134 C55      -0.5529   -4.6388    2.1986   C.3       1 RES1   0.0000
   135 C56       0.1451   -5.6056    3.1564   C.3       1 RES1   0.0000
   136 C57       1.2800   -5.0331    3.9994   C.3       1 RES1   0.0000
   137 C58       2.2497   -4.0815    3.3071   C.3       1 RES1   0.0000
   138 C59       2.8093   -4.4915    1.9402   C.3       1 RES1   0.0000
   139 C60       3.1013   -5.9695    1.6711   C.3       1 RES1   0.0000
   140 C61       4.0017   -6.1213    0.4336   C.3       1 RES1   0.0000
   141 C62       5.5010   -6.1121    0.7152   C.3       1 RES1   0.0000
   142 C63      -2.6453   -4.5508    3.4940   C.3       1 RES1   0.0000
   143 C64      -3.4994   -5.5451    2.6849   C.3       1 RES1   0.0000
   144 C65      -2.8673   -6.8773    2.2200   C.3       1 RES1   0.0000
   145 C66      -2.7103   -6.9798    0.6992   C.3       1 RES1   0.0000
   146 C67      -2.1042   -8.3037    0.2254   C.3       1 RES1   0.0000
   147 C68      -0.5806   -8.4272    0.2774   C.3       1 RES1   0.0000
   148 C69       0.1593   -7.5712   -0.7570   C.3       1 RES1   0.0000
   149 C70       1.5188   -8.1760   -1.0983   C.3       1 RES1   0.0000
   150 H71      -5.3787    2.9881   -3.2774   H         1 RES1   0.0000
   151 H72      -6.7657    3.7032   -2.4469   H         1 RES1   0.0000
   152 H73      -6.9996    2.3639   -3.5386   H         1 RES1   0.0000
   153 H74      -5.4814    2.2331   -0.8853   H         1 RES1   0.0000
   154 H75      -5.6572    0.8911   -1.9905   H         1 RES1   0.0000
   155 H76      -8.1860    1.1332   -1.7442   H         1 RES1   0.0000
   156 H77      -7.8953    2.3962   -0.5669   H         1 RES1   0.0000
   157 H78      -8.4459    0.3476    0.5554   H         1 RES1   0.0000
   158 H79      -7.1882   -0.5607   -0.2605   H         1 RES1   0.0000
   159 H80      -6.6402    1.8250    1.5205   H         1 RES1   0.0000
   160 H81      -5.4375    0.7029    0.8699   H         1 RES1   0.0000
   161 H82      -6.1279   -1.0550    2.3391   H         1 RES1   0.0000
   162 H83      -7.6917   -0.2998    2.6201   H         1 RES1   0.0000
   163 H84      -6.6593    0.1243    4.6267   H         1 RES1   0.0000
   164 H85      -6.3828    1.6126    3.7672   H         1 RES1   0.0000
   165 H86      -4.4909   -0.6444    4.4814   H         1 RES1   0.0000
   166 H87      -4.3658    1.0745    4.8791   H         1 RES1   0.0000
   167 H88      -4.6666    2.4229    2.8209   H         1 RES1   0.0000
   168 H89      -3.6190    1.9861    1.4557   H         1 RES1   0.0000
   169 H90      -1.8400    3.0364    2.3666   H         1 RES1   0.0000
   170 H91      -2.0485    2.1891    3.8777   H         1 RES1   0.0000
   171 H92      -3.2837    3.8867    4.8734   H         1 RES1   0.0000
   172 H93      -3.8850    4.5269    3.3499   H         1 RES1   0.0000
   173 H94      -1.7188    5.4221    2.7750   H         1 RES1   0.0000
   174 H95      -0.9652    4.6203    4.1419   H         1 RES1   0.0000
   175 H96      -1.1538    6.8148    4.9093   H         1 RES1   0.0000
   176 H97      -2.5398    6.0307    5.6311   H         1 RES1   0.0000
   177 H98      -3.1730    8.1933    4.7796   H         1 RES1   0.0000
   178 H99      -4.0070    6.9554    3.8498   H         1 RES1   0.0000
   179 H100     -3.1365    8.8516    2.4860   H         1 RES1   0.0000
   180 H101     -2.5533    7.2950    1.9362   H         1 RES1   0.0000
   181 H102     -0.9804    9.2199    3.7106   H         1 RES1   0.0000
   182 H103     -0.7520    9.0406    1.9729   H         1 RES1   0.0000
   183 H104     -0.3655    7.7079    3.0512   H         1 RES1   0.0000
   184 H105     -3.7419   -2.1035    2.5010   H         1 RES1   0.0000
   185 H106     -2.8806   -1.7468    4.0003   H         1 RES1   0.0000
   186 H107      0.1753   -3.9461    1.7807   H         1 RES1   0.0000
   187 H108     -0.9850   -5.2157    1.3795   H         1 RES1   0.0000
   188 H109      0.5307   -6.4211    2.5452   H         1 RES1   0.0000
   189 H110     -0.5564   -6.0554    3.8552   H         1 RES1   0.0000
   190 H111      1.8456   -5.8791    4.3946   H         1 RES1   0.0000
   191 H112      0.8639   -4.5003    4.8588   H         1 RES1   0.0000
   192 H113      3.0753   -3.9674    4.0040   H         1 RES1   0.0000
   193 H114      1.7894   -3.0940    3.1955   H         1 RES1   0.0000
   194 H115      3.7402   -3.9433    1.8284   H         1 RES1   0.0000
   195 H116      2.1300   -4.1429    1.1589   H         1 RES1   0.0000
   196 H117      2.1666   -6.4931    1.4724   H         1 RES1   0.0000
   197 H118      3.5738   -6.4434    2.5298   H         1 RES1   0.0000
   198 H119      3.7418   -5.3214   -0.2665   H         1 RES1   0.0000
   199 H120      3.7778   -7.0611   -0.0689   H         1 RES1   0.0000
   200 H121      5.7981   -5.2841    1.3524   H         1 RES1   0.0000
   201 H122      6.0505   -6.0351   -0.2205   H         1 RES1   0.0000
   202 H123      5.7850   -7.0404    1.2025   H         1 RES1   0.0000
   203 H124     -3.3240   -3.8408    3.9585   H         1 RES1   0.0000
   204 H125     -2.1519   -5.0991    4.2973   H         1 RES1   0.0000
   205 H126     -3.9104   -5.0293    1.8205   H         1 RES1   0.0000
   206 H127     -4.3410   -5.7792    3.3381   H         1 RES1   0.0000
   207 H128     -3.5318   -7.6889    2.5234   H         1 RES1   0.0000
   208 H129     -1.9168   -7.0512    2.7163   H         1 RES1   0.0000
   209 H130     -2.1274   -6.1466    0.3028   H         1 RES1   0.0000
   210 H131     -3.7075   -6.9021    0.2684   H         1 RES1   0.0000
   211 H132     -2.4043   -8.4746   -0.8097   H         1 RES1   0.0000
   212 H133     -2.5362   -9.1065    0.8220   H         1 RES1   0.0000
   213 H134     -0.3351   -9.4732    0.0821   H         1 RES1   0.0000
   214 H135     -0.2123   -8.1983    1.2786   H         1 RES1   0.0000
   215 H136      0.2955   -6.5521   -0.3783   H         1 RES1   0.0000
   216 H137     -0.4365   -7.5127   -1.6711   H         1 RES1   0.0000
   217 H138      2.0788   -8.3887   -0.1903   H         1 RES1   0.0000
   218 H139      2.1028   -7.4962   -1.7172   H         1 RES1   0.0000
   219 H140      1.3998   -9.1090   -1.6442   H         1 RES1   0.0000
   220 C71      10.4611   -0.8327   -2.0247   C.3       1 RES1   0.0000
   221 C72       9.4329    0.0400   -1.3177   C.3       1 RES1   0.0000
   222 C73       9.3358   -0.2769    0.1734   C.3       1 RES1   0.0000
   223 C74       8.3225    0.6321    0.8642   C.3       1 RES1   0.0000
   224 C75       8.1738    0.3179    2.3504   C.3       1 RES1   0.0000
   225 C76       6.9425    0.9397    3.0368   C.3       1 RES1   0.0000
   226 C77       5.5577    0.7340    2.3888   C.3       1 RES1   0.0000
   227 C78       4.6727   -0.4338    2.8744   C.3       1 RES1   0.0000
   228 N5        4.5641   -1.4789    1.8623   N.am      1 RES1   0.0000
   229 C79       5.7437   -2.3378    1.7265   C.3       1 RES1   0.0000
   230 C80       6.4545   -2.7521    3.0387   C.3       1 RES1   0.0000
   231 C81       5.6370   -3.3747    4.1848   C.3       1 RES1   0.0000
   232 C82       5.5130   -4.9009    4.2443   C.3       1 RES1   0.0000
   233 C83       6.8453   -5.6156    4.4766   C.3       1 RES1   0.0000
   234 C84       6.6533   -7.0373    5.0120   C.3       1 RES1   0.0000
   235 C85       5.9582   -7.9641    4.0172   C.3       1 RES1   0.0000
   236 C86       5.6997   -9.3410    4.6165   C.3       1 RES1   0.0000
   237 C87       3.5262   -1.3794    1.0059   C.2       1 RES1   0.0000
   238 O5        2.5599   -0.6305    1.2270   O.2       1 RES1   0.0000
   239 C88       3.6148   -2.1309   -0.3239   C.3       1 RES1   0.0000
   240 C89       2.2953   -2.3951   -1.0573   C.2       1 RES1   0.0000
   241 O6        1.2376   -1.8299   -0.7373   O.2       1 RES1   0.0000
   242 N6        2.3386   -3.2765   -2.0761   N.am      1 RES1   0.0000
   243 C90       3.5362   -3.8772   -2.6572   C.3       1 RES1   0.0000
   244 C91       4.1439   -3.1928   -3.8959   C.3       1 RES1   0.0000
   245 C92       4.8433   -1.8480   -3.6699   C.3       1 RES1   0.0000
   246 C93       6.0237   -1.6008   -4.6260   C.3       1 RES1   0.0000
   247 C94       5.7193   -1.3933   -6.1126   C.3       1 RES1   0.0000
   248 C95       5.1755   -0.0063   -6.4517   C.3       1 RES1   0.0000
   249 C96       5.0362    0.2134   -7.9610   C.3       1 RES1   0.0000
   250 C97       4.2822    1.4987   -8.2870   C.3       1 RES1   0.0000
   251 C98       1.0829   -3.8621   -2.5502   C.3       1 RES1   0.0000
   252 C99       0.8139   -3.6309   -4.0351   C.3       1 RES1   0.0000
   253 C100     -0.4928   -4.2671   -4.5324   C.3       1 RES1   0.0000
   254 C101     -0.8954   -3.7063   -5.9096   C.3       1 RES1   0.0000
   255 C102     -2.3983   -3.4905   -6.0885   C.3       1 RES1   0.0000
   256 C103     -2.7426   -2.6466   -7.3250   C.3       1 RES1   0.0000
   257 C104     -4.0930   -1.9122   -7.1917   C.3       1 RES1   0.0000
   258 C105     -3.8828   -0.4267   -6.9022   C.3       1 RES1   0.0000
   259 H141     10.5465   -0.5486   -3.0709   H         1 RES1   0.0000
   260 H142     10.1744   -1.8807   -1.9696   H         1 RES1   0.0000
   261 H143     11.4401   -0.7222   -1.5650   H         1 RES1   0.0000
   262 H144      8.4498   -0.1097   -1.7775   H         1 RES1   0.0000
   263 H145      9.7054    1.0888   -1.4502   H         1 RES1   0.0000
   264 H146     10.3160   -0.1612    0.6360   H         1 RES1   0.0000
   265 H147      9.0321   -1.3220    0.2989   H         1 RES1   0.0000
   266 H148      7.3695    0.5000    0.3523   H         1 RES1   0.0000
   267 H149      8.6213    1.6728    0.7431   H         1 RES1   0.0000
   268 H150      9.0551    0.6971    2.8725   H         1 RES1   0.0000
   269 H151      8.1907   -0.7634    2.4763   H         1 RES1   0.0000
   270 H152      7.1187    2.0175    3.0803   H         1 RES1   0.0000
   271 H153      6.9157    0.5880    4.0703   H         1 RES1   0.0000
   272 H154      5.6817    0.6262    1.3116   H         1 RES1   0.0000
   273 H155      4.9913    1.6496    2.5610   H         1 RES1   0.0000
   274 H156      3.6523   -0.0876    3.0516   H         1 RES1   0.0000
   275 H157      5.0491   -0.8698    3.7925   H         1 RES1   0.0000
   276 H158      6.4917   -1.8125    1.1186   H         1 RES1   0.0000
   277 H159      5.4695   -3.2406    1.1852   H         1 RES1   0.0000
   278 H160      6.9539   -1.8779    3.4536   H         1 RES1   0.0000
   279 H161      7.2421   -3.4478    2.7441   H         1 RES1   0.0000
   280 H162      4.6404   -2.9333    4.1790   H         1 RES1   0.0000
   281 H163      6.1134   -3.0826    5.1239   H         1 RES1   0.0000
   282 H164      5.0397   -5.2904    3.3504   H         1 RES1   0.0000
   283 H165      4.8593   -5.1420    5.0892   H         1 RES1   0.0000
   284 H166      7.4238   -5.0437    5.2054   H         1 RES1   0.0000
   285 H167      7.4234   -5.6665    3.5503   H         1 RES1   0.0000
   286 H168      6.0649   -7.0024    5.9330   H         1 RES1   0.0000
   287 H169      7.6305   -7.4561    5.2640   H         1 RES1   0.0000
   288 H170      6.5780   -8.0577    3.1214   H         1 RES1   0.0000
   289 H171      5.0004   -7.5300    3.7216   H         1 RES1   0.0000
   290 H172      6.6360   -9.8328    4.8712   H         1 RES1   0.0000
   291 H173      5.1617   -9.9662    3.9058   H         1 RES1   0.0000
   292 H174      5.1008   -9.2488    5.5224   H         1 RES1   0.0000
   293 H175      4.1419   -3.0688   -0.1852   H         1 RES1   0.0000
   294 H176      4.2284   -1.5066   -0.9772   H         1 RES1   0.0000
   295 H177      3.2516   -4.8911   -2.9518   H         1 RES1   0.0000
   296 H178      4.3260   -3.9797   -1.9136   H         1 RES1   0.0000
   297 H179      3.3978   -3.0721   -4.6776   H         1 RES1   0.0000
   298 H180      4.8854   -3.9064   -4.2590   H         1 RES1   0.0000
   299 H181      5.2691   -1.8261   -2.6631   H         1 RES1   0.0000
   300 H182      4.1192   -1.0341   -3.7491   H         1 RES1   0.0000
   301 H183      6.7088   -2.4449   -4.5324   H         1 RES1   0.0000
   302 H184      6.5621   -0.7198   -4.2725   H         1 RES1   0.0000
   303 H185      5.0241   -2.1526   -6.4664   H         1 RES1   0.0000
   304 H186      6.6528   -1.5296   -6.6614   H         1 RES1   0.0000
   305 H187      5.8480    0.7548   -6.0490   H         1 RES1   0.0000
   306 H188      4.1999    0.1273   -5.9789   H         1 RES1   0.0000
   307 H189      4.5095   -0.6342   -8.4061   H         1 RES1   0.0000
   308 H190      6.0260    0.2555   -8.4192   H         1 RES1   0.0000
   309 H191      3.2641    1.4654   -7.9022   H         1 RES1   0.0000
   310 H192      4.2261    1.6452   -9.3615   H         1 RES1   0.0000
   311 H193      4.7842    2.3608   -7.8548   H         1 RES1   0.0000
   312 H194      0.2779   -3.4327   -1.9505   H         1 RES1   0.0000
   313 H195      1.1190   -4.9362   -2.3424   H         1 RES1   0.0000
   314 H196      1.6288   -4.0385   -4.6302   H         1 RES1   0.0000
   315 H197      0.7870   -2.5488   -4.1868   H         1 RES1   0.0000
   316 H198     -1.2875   -4.0815   -3.8013   H         1 RES1   0.0000
   317 H199     -0.3651   -5.3484   -4.6059   H         1 RES1   0.0000
   318 H200     -0.5045   -4.3507   -6.7007   H         1 RES1   0.0000
   319 H201     -0.4342   -2.7274   -6.0278   H         1 RES1   0.0000
   320 H202     -2.7727   -2.9680   -5.2066   H         1 RES1   0.0000
   321 H203     -2.9191   -4.4441   -6.1534   H         1 RES1   0.0000
   322 H204     -2.7436   -3.2899   -8.2024   H         1 RES1   0.0000
   323 H205     -1.9676   -1.8923   -7.4928   H         1 RES1   0.0000
   324 H206     -4.6752   -2.0145   -8.1103   H         1 RES1   0.0000
   325 H207     -4.6861   -2.3566   -6.3881   H         1 RES1   0.0000
   326 H208     -3.3309    0.0229   -7.7242   H         1 RES1   0.0000
   327 H209     -3.3202   -0.2896   -5.9798   H         1 RES1   0.0000
   328 H210     -4.8278    0.1001   -6.8110   H         1 RES1   0.0000
   329 C106     -2.6117   -7.8185   -5.6742   C.3       1 RES1   0.0000
   330 C107     -2.7258   -7.5325   -4.1820   C.3       1 RES1   0.0000
   331 C108     -3.9462   -6.6773   -3.8518   C.3       1 RES1   0.0000
   332 C109     -4.0039   -6.3184   -2.3701   C.3       1 RES1   0.0000
   333 C110     -5.2605   -5.5125   -2.0369   C.3       1 RES1   0.0000
   334 C111     -5.2041   -4.7079   -0.7264   C.3       1 RES1   0.0000
   335 C112     -4.0865   -3.6476   -0.6566   C.3       1 RES1   0.0000
   336 C113     -4.4984   -2.1716   -0.8501   C.3       1 RES1   0.0000
   337 N7       -3.9246   -1.6227   -2.0733   N.am      1 RES1   0.0000
   338 C114     -4.5626   -1.9631   -3.3531   C.3       1 RES1   0.0000
   339 C115     -6.0438   -2.3649   -3.3389   C.3       1 RES1   0.0000
   340 C116     -7.0814   -1.2538   -3.1878   C.3       1 RES1   0.0000
   341 C117     -7.1738   -0.2467   -4.3312   C.3       1 RES1   0.0000
   342 C118     -7.8024   -0.8097   -5.6039   C.3       1 RES1   0.0000
   343 C119     -8.3430    0.3013   -6.5077   C.3       1 RES1   0.0000
   344 C120     -7.2493    1.2414   -7.0098   C.3       1 RES1   0.0000
   345 C121     -7.7899    2.3427   -7.9125   C.3       1 RES1   0.0000
   346 C122     -2.6712   -1.1364   -1.9834   C.2       1 RES1   0.0000
   347 O7       -2.1443   -0.8810   -0.8919   O.2       1 RES1   0.0000
   348 C123     -1.8754   -1.0280   -3.2951   C.3       1 RES1   0.0000
   349 C124     -0.6698   -0.1021   -3.2275   C.2       1 RES1   0.0000
   350 O8       -0.0801    0.0932   -2.1496   O.2       1 RES1   0.0000
   351 N8       -0.2331    0.5025   -4.3413   N.am      1 RES1   0.0000
   352 C125     -0.7139    0.2198   -5.6916   C.3       1 RES1   0.0000
   353 C126      0.2940    0.2896   -6.8556   C.3       1 RES1   0.0000
   354 C127      1.3215   -0.8598   -6.9981   C.3       1 RES1   0.0000
   355 C128      1.0159   -1.7773   -8.1908   C.3       1 RES1   0.0000
   356 C129      2.1726   -2.6736   -8.6459   C.3       1 RES1   0.0000
   357 C130      2.6134   -3.7516   -7.6571   C.3       1 RES1   0.0000
   358 C131      3.7890   -4.5660   -8.2048   C.3       1 RES1   0.0000
   359 C132      4.3777   -5.5113   -7.1641   C.3       1 RES1   0.0000
   360 C133      0.6039    1.6916   -4.1954   C.3       1 RES1   0.0000
   361 C134      2.0840    1.4401   -4.4807   C.3       1 RES1   0.0000
   362 C135      2.7989    2.7174   -4.9201   C.3       1 RES1   0.0000
   363 C136      3.2117    3.6102   -3.7462   C.3       1 RES1   0.0000
   364 C137      2.3305    4.8314   -3.5020   C.3       1 RES1   0.0000
   365 C138      2.9061    5.6974   -2.3788   C.3       1 RES1   0.0000
   366 C139      2.2650    7.0799   -2.2926   C.3       1 RES1   0.0000
   367 C140      2.7010    7.8488   -1.0526   C.3       1 RES1   0.0000
   368 H211     -1.7577   -8.4628   -5.8723   H         1 RES1   0.0000
   369 H212     -2.4944   -6.8931   -6.2370   H         1 RES1   0.0000
   370 H213     -3.5034   -8.3256   -6.0345   H         1 RES1   0.0000
   371 H214     -1.8261   -7.0119   -3.8390   H         1 RES1   0.0000
   372 H215     -2.7862   -8.4801   -3.6434   H         1 RES1   0.0000
   373 H216     -4.8529   -7.2141   -4.1316   H         1 RES1   0.0000
   374 H217     -3.9124   -5.7571   -4.4418   H         1 RES1   0.0000
   375 H218     -3.1031   -5.7553   -2.1131   H         1 RES1   0.0000
   376 H219     -3.9930   -7.2360   -1.7872   H         1 RES1   0.0000
   377 H220     -6.1071   -6.1993   -1.9680   H         1 RES1   0.0000
   378 H221     -5.4623   -4.8489   -2.8751   H         1 RES1   0.0000
   379 H222     -5.0770   -5.4235    0.0884   H         1 RES1   0.0000
   380 H223     -6.1788   -4.2434   -0.5536   H         1 RES1   0.0000
   381 H224     -3.3297   -3.8936   -1.4043   H         1 RES1   0.0000
   382 H225     -3.5980   -3.7180    0.3141   H         1 RES1   0.0000
   383 H226     -4.1222   -1.5532   -0.0317   H         1 RES1   0.0000
   384 H227     -5.5764   -2.0579   -0.8881   H         1 RES1   0.0000
   385 H228     -4.0078   -2.8048   -3.7778   H         1 RES1   0.0000
   386 H229     -4.4681   -1.1065   -4.0222   H         1 RES1   0.0000
   387 H230     -6.2319   -3.0867   -2.5504   H         1 RES1   0.0000
   388 H231     -6.2360   -2.8685   -4.2873   H         1 RES1   0.0000
   389 H232     -6.8993   -0.7159   -2.2633   H         1 RES1   0.0000
   390 H233     -8.0586   -1.7342   -3.0949   H         1 RES1   0.0000
   391 H234     -6.1935    0.1791   -4.5516   H         1 RES1   0.0000
   392 H235     -7.8200    0.5661   -3.9941   H         1 RES1   0.0000
   393 H236     -8.6332   -1.4587   -5.3216   H         1 RES1   0.0000
   394 H237     -7.0813   -1.4107   -6.1607   H         1 RES1   0.0000
   395 H238     -9.0908    0.8780   -5.9576   H         1 RES1   0.0000
   396 H239     -8.8423   -0.1509   -7.3676   H         1 RES1   0.0000
   397 H240     -6.5270    0.6529   -7.5797   H         1 RES1   0.0000
   398 H241     -6.7327    1.6999   -6.1605   H         1 RES1   0.0000
   399 H242     -8.2776    1.9127   -8.7847   H         1 RES1   0.0000
   400 H243     -6.9721    2.9770   -8.2513   H         1 RES1   0.0000
   401 H244     -8.5122    2.9598   -7.3814   H         1 RES1   0.0000
   402 H245     -2.5248   -0.7624   -4.1212   H         1 RES1   0.0000
   403 H246     -1.5144   -2.0449   -3.4638   H         1 RES1   0.0000
   404 H247     -1.4903    0.9581   -5.9158   H         1 RES1   0.0000
   405 H248     -1.1448   -0.7778   -5.6929   H         1 RES1   0.0000
   406 H249      0.8041    1.2532   -6.8623   H         1 RES1   0.0000
   407 H250     -0.3384    0.2891   -7.7459   H         1 RES1   0.0000
   408 H251      1.3786   -1.4416   -6.0756   H         1 RES1   0.0000
   409 H252      2.3081   -0.4320   -7.1784   H         1 RES1   0.0000
   410 H253      0.7567   -1.1357   -9.0343   H         1 RES1   0.0000
   411 H254      0.1530   -2.4075   -7.9843   H         1 RES1   0.0000
   412 H255      3.0361   -2.0540   -8.8936   H         1 RES1   0.0000
   413 H256      1.8595   -3.1673   -9.5673   H         1 RES1   0.0000
   414 H257      1.7763   -4.4214   -7.4439   H         1 RES1   0.0000
   415 H258      2.9223   -3.2833   -6.7194   H         1 RES1   0.0000
   416 H259      4.5695   -3.8806   -8.5429   H         1 RES1   0.0000
   417 H260      3.4630   -5.1382   -9.0742   H         1 RES1   0.0000
   418 H261      4.8700   -4.9486   -6.3745   H         1 RES1   0.0000
   419 H262      5.1148   -6.1631   -7.6219   H         1 RES1   0.0000
   420 H263      3.6065   -6.1354   -6.7186   H         1 RES1   0.0000
   421 H264      0.4689    2.0828   -3.1845   H         1 RES1   0.0000
   422 H265      0.2207    2.4401   -4.8945   H         1 RES1   0.0000
   423 H266      2.1641    0.6967   -5.2688   H         1 RES1   0.0000
   424 H267      2.5811    1.0318   -3.5971   H         1 RES1   0.0000
   425 H268      2.1609    3.2731   -5.6097   H         1 RES1   0.0000
   426 H269      3.6902    2.4306   -5.4775   H         1 RES1   0.0000
   427 H270      4.2279    3.9580   -3.9274   H         1 RES1   0.0000
   428 H271      3.2195    3.0108   -2.8366   H         1 RES1   0.0000
   429 H272      1.3238    4.5004   -3.2394   H         1 RES1   0.0000
   430 H273      2.2664    5.4315   -4.4107   H         1 RES1   0.0000
   431 H274      3.9784    5.8246   -2.5426   H         1 RES1   0.0000
   432 H275      2.7811    5.1792   -1.4236   H         1 RES1   0.0000
   433 H276      1.1787    6.9836   -2.2803   H         1 RES1   0.0000
   434 H277      2.5292    7.6495   -3.1827   H         1 RES1   0.0000
   435 H278      2.3767    7.3389   -0.1458   H         1 RES1   0.0000
   436 H279      3.7824    7.9451   -1.0172   H         1 RES1   0.0000
   437 H280      2.2740    8.8480   -1.0559   H         1 RES1   0.0000
   438 O9        1.8328    1.2986   -0.8728   O.3       1 RES1   0.0000
   439 H281      1.6388    0.8584   -1.7149   H         1 RES1   0.0000
   440 H282      2.7310    1.0612   -0.6078   H         1 RES1   0.0000
@<TRIPOS>BOND
     1     1    20    1
     2     1    23    1
     3     1   129    1
     4     1   132    1
     5     1   238    1
     6     1   241    1
     7     1   347    1
     8     1   350    1
     9     1   438    1
    10     2     3    1
    11     2    41    1
    12     2    42    1
    13     2    43    1
    14     3     4    1
    15     3    44    1
    16     3    45    1
    17     4     5    1
    18     4    46    1
    19     4    47    1
    20     5     6    1
    21     5    48    1
    22     5    49    1
    23     6     7    1
    24     6    50    1
    25     6    51    1
    26     7     8    1
    27     7    52    1
    28     7    53    1
    29     8     9    1
    30     8    54    1
    31     8    55    1
    32     9    10    1
    33     9    56    1
    34     9    57    1
    35    10    11    1
    36    10    19    1
    37    11    12    1
    38    11    58    1
    39    11    59    1
    40    12    13    1
    41    12    60    1
    42    12    61    1
    43    13    14    1
    44    13    62    1
    45    13    63    1
    46    14    15    1
    47    14    64    1
    48    14    65    1
    49    15    16    1
    50    15    66    1
    51    15    67    1
    52    16    17    1
    53    16    68    1
    54    16    69    1
    55    17    18    1
    56    17    70    1
    57    17    71    1
    58    18    72    1
    59    18    73    1
    60    18    74    1
    61    19    20    2
    62    19    21    1
    63    21    22    1
    64    21    75    1
    65    21    76    1
    66    22    23    2
    67    22    24    1
    68    24    25    1
    69    24    33    1
    70    25    26    1
    71    25    77    1
    72    25    78    1
    73    26    27    1
    74    26    79    1
    75    26    80    1
    76    27    28    1
    77    27    81    1
    78    27    82    1
    79    28    29    1
    80    28    83    1
    81    28    84    1
    82    29    30    1
    83    29    85    1
    84    29    86    1
    85    30    31    1
    86    30    87    1
    87    30    88    1
    88    31    32    1
    89    31    89    1
    90    31    90    1
    91    32    91    1
    92    32    92    1
    93    32    93    1
    94    33    34    1
    95    33    94    1
    96    33    95    1
    97    34    35    1
    98    34    96    1
    99    34    97    1
   100    35    36    1
   101    35    98    1
   102    35    99    1
   103    36    37    1
   104    36   100    1
   105    36   101    1
   106    37    38    1
   107    37   102    1
   108    37   103    1
   109    38    39    1
   110    38   104    1
   111    38   105    1
   112    39    40    1
   113    39   106    1
   114    39   107    1
   115    40   108    1
   116    40   109    1
   117    40   110    1
   118   111   112    1
   119   111   150    1
   120   111   151    1
   121   111   152    1
   122   112   113    1
   123   112   153    1
   124   112   154    1
   125   113   114    1
   126   113   155    1
   127   113   156    1
   128   114   115    1
   129   114   157    1
   130   114   158    1
   131   115   116    1
   132   115   159    1
   133   115   160    1
   134   116   117    1
   135   116   161    1
   136   116   162    1
   137   117   118    1
   138   117   163    1
   139   117   164    1
   140   118   119    1
   141   118   165    1
   142   118   166    1
   143   119   120    1
   144   119   128    1
   145   120   121    1
   146   120   167    1
   147   120   168    1
   148   121   122    1
   149   121   169    1
   150   121   170    1
   151   122   123    1
   152   122   171    1
   153   122   172    1
   154   123   124    1
   155   123   173    1
   156   123   174    1
   157   124   125    1
   158   124   175    1
   159   124   176    1
   160   125   126    1
   161   125   177    1
   162   125   178    1
   163   126   127    1
   164   126   179    1
   165   126   180    1
   166   127   181    1
   167   127   182    1
   168   127   183    1
   169   128   129    2
   170   128   130    1
   171   130   131    1
   172   130   184    1
   173   130   185    1
   174   131   132    2
   175   131   133    1
   176   133   134    1
   177   133   142    1
   178   134   135    1
   179   134   186    1
   180   134   187    1
   181   135   136    1
   182   135   188    1
   183   135   189    1
   184   136   137    1
   185   136   190    1
   186   136   191    1
   187   137   138    1
   188   137   192    1
   189   137   193    1
   190   138   139    1
   191   138   194    1
   192   138   195    1
   193   139   140    1
   194   139   196    1
   195   139   197    1
   196   140   141    1
   197   140   198    1
   198   140   199    1
   199   141   200    1
   200   141   201    1
   201   141   202    1
   202   142   143    1
   203   142   203    1
   204   142   204    1
   205   143   144    1
   206   143   205    1
   207   143   206    1
   208   144   145    1
   209   144   207    1
   210   144   208    1
   211   145   146    1
   212   145   209    1
   213   145   210    1
   214   146   147    1
   215   146   211    1
   216   146   212    1
   217   147   148    1
   218   147   213    1
   219   147   214    1
   220   148   149    1
   221   148   215    1
   222   148   216    1
   223   149   217    1
   224   149   218    1
   225   149   219    1
   226   220   221    1
   227   220   259    1
   228   220   260    1
   229   220   261    1
   230   221   222    1
   231   221   262    1
   232   221   263    1
   233   222   223    1
   234   222   264    1
   235   222   265    1
   236   223   224    1
   237   223   266    1
   238   223   267    1
   239   224   225    1
   240   224   268    1
   241   224   269    1
   242   225   226    1
   243   225   270    1
   244   225   271    1
   245   226   227    1
   246   226   272    1
   247   226   273    1
   248   227   228    1
   249   227   274    1
   250   227   275    1
   251   228   229    1
   252   228   237    1
   253   229   230    1
   254   229   276    1
   255   229   277    1
   256   230   231    1
   257   230   278    1
   258   230   279    1
   259   231   232    1
   260   231   280    1
   261   231   281    1
   262   232   233    1
   263   232   282    1
   264   232   283    1
   265   233   234    1
   266   233   284    1
   267   233   285    1
   268   234   235    1
   269   234   286    1
   270   234   287    1
   271   235   236    1
   272   235   288    1
   273   235   289    1
   274   236   290    1
   275   236   291    1
   276   236   292    1
   277   237   238    2
   278   237   239    1
   279   239   240    1
   280   239   293    1
   281   239   294    1
   282   240   241    2
   283   240   242    1
   284   242   243    1
   285   242   251    1
   286   243   244    1
   287   243   295    1
   288   243   296    1
   289   244   245    1
   290   244   297    1
   291   244   298    1
   292   245   246    1
   293   245   299    1
   294   245   300    1
   295   246   247    1
   296   246   301    1
   297   246   302    1
   298   247   248    1
   299   247   303    1
   300   247   304    1
   301   248   249    1
   302   248   305    1
   303   248   306    1
   304   249   250    1
   305   249   307    1
   306   249   308    1
   307   250   309    1
   308   250   310    1
   309   250   311    1
   310   251   252    1
   311   251   312    1
   312   251   313    1
   313   252   253    1
   314   252   314    1
   315   252   315    1
   316   253   254    1
   317   253   316    1
   318   253   317    1
   319   254   255    1
   320   254   318    1
   321   254   319    1
   322   255   256    1
   323   255   320    1
   324   255   321    1
   325   256   257    1
   326   256   322    1
   327   256   323    1
   328   257   258    1
   329   257   324    1
   330   257   325    1
   331   258   326    1
   332   258   327    1
   333   258   328    1
   334   329   330    1
   335   329   368    1
   336   329   369    1
   337   329   370    1
   338   330   331    1
   339   330   371    1
   340   330   372    1
   341   331   332    1
   342   331   373    1
   343   331   374    1
   344   332   333    1
   345   332   375    1
   346   332   376    1
   347   333   334    1
   348   333   377    1
   349   333   378    1
   350   334   335    1
   351   334   379    1
   352   334   380    1
   353   335   336    1
   354   335   381    1
   355   335   382    1
   356   336   337    1
   357   336   383    1
   358   336   384    1
   359   337   338    1
   360   337   346    1
   361   338   339    1
   362   338   385    1
   363   338   386    1
   364   339   340    1
   365   339   387    1
   366   339   388    1
   367   340   341    1
   368   340   389    1
   369   340   390    1
   370   341   342    1
   371   341   391    1
   372   341   392    1
   373   342   343    1
   374   342   393    1
   375   342   394    1
   376   343   344    1
   377   343   395    1
   378   343   396    1
   379   344   345    1
   380   344   397    1
   381   344   398    1
   382   345   399    1
   383   345   400    1
   384   345   401    1
   385   346   347    2
   386   346   348    1
   387   348   349    1
   388   348   402    1
   389   348   403    1
   390   349   350    2
   391   349   351    1
   392   351   352    1
   393   351   360    1
   394   352   353    1
   395   352   404    1
   396   352   405    1
   397   353   354    1
   398   353   406    1
   399   353   407    1
   400   354   355    1
   401   354   408    1
   402   354   409    1
   403   355   356    1
   404   355   410    1
   405   355   411    1
   406   356   357    1
   407   356   412    1
   408   356   413    1
   409   357   358    1
   410   357   414    1
   411   357   415    1
   412   358   359    1
   413   358   416    1
   414   358   417    1
   415   359   418    1
   416   359   419    1
   417   359   420    1
   418   360   361    1
   419   360   421    1
   420   360   422    1
   421   361   362    1
   422   361   423    1
   423   361   424    1
   424   362   363    1
   425   362   425    1
   426   362   426    1
   427   363   364    1
   428   363   427    1
   429   363   428    1
   430   364   365    1
   431   364   429    1
   432   364   430    1
   433   365   366    1
   434   365   431    1
   435   365   432    1
   436   366   367    1
   437   366   433    1
   438   366   434    1
   439   367   435    1
   440   367   436    1
   441   367   437    1
   442   438   439    1
   443   438   440    1
@<TRIPOS>SUBSTRUCTURE
     1 RES1      440 GROUP             0 ****  ****    0  
