@<TRIPOS>MOLECULE
am_c3_9H2O_c0_0_nunpairedes_0_charge_3 Charge: 3 Unpaired_Electrons: 6 XTB_Unpaired_Electrons: 0 XTB_Charge: 3
   190   207     1     0     0
SMALL
NoCharges
****
Generated from Architector

@<TRIPOS>ATOM
     1 Eu1      -0.0322   -0.0130   -0.1749   Eu        1 RES1   0.0000
     2 C1       -2.4831   -3.6043   -8.0167   C.3       1 RES1   0.0000
     3 C2       -1.3517   -3.6343   -6.9989   C.3       1 RES1   0.0000
     4 C3       -1.1210   -2.2877   -6.3056   C.3       1 RES1   0.0000
     5 C4       -0.5460   -1.1864   -7.2031   C.3       1 RES1   0.0000
     6 C5       -0.0405    0.0281   -6.4104   C.3       1 RES1   0.0000
     7 C6       -1.1587    0.7575   -5.6531   C.3       1 RES1   0.0000
     8 C7       -0.5974    1.7287   -4.6121   C.3       1 RES1   0.0000
     9 C8       -1.6002    2.6684   -3.9218   C.3       1 RES1   0.0000
    10 N1       -2.6377    2.1115   -3.0380   N.am      1 RES1   0.0000
    11 C9       -2.2178    1.5651   -1.8924   C.2       1 RES1   0.0000
    12 O1       -0.9877    1.3939   -1.7373   O.2       1 RES1   0.0000
    13 C10      -3.0713    1.1607   -0.7049   C.ar      1 RES1   0.0000
    14 C11      -4.3187    1.6850   -0.3260   C.ar      1 RES1   0.0000
    15 C12      -4.9332    1.1810    0.7936   C.ar      1 RES1   0.0000
    16 C13      -4.3161    0.1856    1.5676   C.ar      1 RES1   0.0000
    17 C14      -4.9525   -0.3897    2.7035   C.ar      1 RES1   0.0000
    18 C15      -4.3163   -1.3501    3.4183   C.ar      1 RES1   0.0000
    19 C16      -2.9855   -1.7396    3.0916   C.ar      1 RES1   0.0000
    20 C17      -2.3002   -2.6696    3.8892   C.ar      1 RES1   0.0000
    21 C18      -0.9714   -2.9083    3.6498   C.ar      1 RES1   0.0000
    22 C19      -0.3702   -2.2441    2.5802   C.ar      1 RES1   0.0000
    23 N2       -0.9968   -1.4360    1.7436   N.ar      1 RES1   0.0000
    24 C20      -2.3003   -1.1666    1.9927   C.ar      1 RES1   0.0000
    25 C21      -3.0160   -0.2145    1.1737   C.ar      1 RES1   0.0000
    26 N3       -2.4338    0.2874    0.0737   N.ar      1 RES1   0.0000
    27 C22      -3.9887    2.2653   -3.4261   C.ar      1 RES1   0.0000
    28 C23      -4.4243    3.3624   -4.1661   C.ar      1 RES1   0.0000
    29 C24      -5.7259    3.4150   -4.6136   C.ar      1 RES1   0.0000
    30 C25      -6.6400    2.4125   -4.3165   C.ar      1 RES1   0.0000
    31 C26      -8.0303    2.4690   -4.8344   C.3       1 RES1   0.0000
    32 C27      -6.2116    1.3558   -3.5261   C.ar      1 RES1   0.0000
    33 C28      -4.9045    1.2719   -3.1031   C.ar      1 RES1   0.0000
    34 H1       -2.6580   -4.6048   -8.3997   H         1 RES1   0.0000
    35 H2       -2.2320   -2.9585   -8.8507   H         1 RES1   0.0000
    36 H3       -3.4032   -3.2464   -7.5608   H         1 RES1   0.0000
    37 H4       -0.4325   -3.9662   -7.4861   H         1 RES1   0.0000
    38 H5       -1.5983   -4.3692   -6.2253   H         1 RES1   0.0000
    39 H6       -0.4364   -2.4397   -5.4636   H         1 RES1   0.0000
    40 H7       -2.0814   -1.9608   -5.9087   H         1 RES1   0.0000
    41 H8       -1.3072   -0.8594   -7.9123   H         1 RES1   0.0000
    42 H9        0.2905   -1.5944   -7.7757   H         1 RES1   0.0000
    43 H10       0.4462    0.7213   -7.1010   H         1 RES1   0.0000
    44 H11       0.7174   -0.3128   -5.7003   H         1 RES1   0.0000
    45 H12      -1.7674    0.0095   -5.1597   H         1 RES1   0.0000
    46 H13      -1.7843    1.2889   -6.3734   H         1 RES1   0.0000
    47 H14       0.0921    2.4078   -5.1239   H         1 RES1   0.0000
    48 H15      -0.0427    1.1696   -3.8558   H         1 RES1   0.0000
    49 H16      -2.1005    3.2256   -4.7076   H         1 RES1   0.0000
    50 H17      -1.0256    3.3645   -3.3018   H         1 RES1   0.0000
    51 H18      -4.7930    2.4635   -0.8996   H         1 RES1   0.0000
    52 H19      -5.8994    1.5442    1.1046   H         1 RES1   0.0000
    53 H20      -5.9509   -0.0645    2.9587   H         1 RES1   0.0000
    54 H21      -4.7878   -1.8379    4.2575   H         1 RES1   0.0000
    55 H22      -2.8258   -3.1522    4.6944   H         1 RES1   0.0000
    56 H23      -0.3904   -3.5817    4.2560   H         1 RES1   0.0000
    57 H24       0.6866   -2.3968    2.4275   H         1 RES1   0.0000
    58 H25      -3.7734    4.1896   -4.3940   H         1 RES1   0.0000
    59 H26      -6.0478    4.2516   -5.2083   H         1 RES1   0.0000
    60 H27      -8.5121    3.3878   -4.5048   H         1 RES1   0.0000
    61 H28      -8.6120    1.6196   -4.4873   H         1 RES1   0.0000
    62 H29      -8.0158    2.4691   -5.9237   H         1 RES1   0.0000
    63 H30      -6.9068    0.5800   -3.2607   H         1 RES1   0.0000
    64 H31      -4.5767    0.4113   -2.5468   H         1 RES1   0.0000
    65 C29      -6.7695   -2.5848   -0.5062   C.3       1 RES1   0.0000
    66 C30      -5.9438   -2.7222    0.7680   C.3       1 RES1   0.0000
    67 C31      -5.6680   -4.1578    1.2347   C.3       1 RES1   0.0000
    68 C32      -4.4246   -4.8299    0.6372   C.3       1 RES1   0.0000
    69 C33      -4.5307   -5.0891   -0.8667   C.3       1 RES1   0.0000
    70 C34      -3.5563   -6.1514   -1.3879   C.3       1 RES1   0.0000
    71 C35      -2.0725   -5.7547   -1.4386   C.3       1 RES1   0.0000
    72 C36      -1.5925   -4.9145   -2.6402   C.3       1 RES1   0.0000
    73 N4       -1.7703   -3.4754   -2.4508   N.am      1 RES1   0.0000
    74 C37      -0.9616   -2.7535   -1.6515   C.2       1 RES1   0.0000
    75 O2       -1.1779   -1.5355   -1.4677   O.2       1 RES1   0.0000
    76 C38       0.2724   -3.2745   -0.9032   C.ar      1 RES1   0.0000
    77 C39       0.8267   -4.5635   -0.8189   C.ar      1 RES1   0.0000
    78 C40       1.9352   -4.7697   -0.0347   C.ar      1 RES1   0.0000
    79 C41       2.4958   -3.7363    0.7177   C.ar      1 RES1   0.0000
    80 C42       3.5420   -3.9876    1.6478   C.ar      1 RES1   0.0000
    81 C43       4.0102   -2.9758    2.4136   C.ar      1 RES1   0.0000
    82 C44       3.4877   -1.6563    2.2767   C.ar      1 RES1   0.0000
    83 C45       4.0007   -0.6278    3.0810   C.ar      1 RES1   0.0000
    84 C46       3.4763    0.6350    2.9782   C.ar      1 RES1   0.0000
    85 C47       2.4520    0.8360    2.0544   C.ar      1 RES1   0.0000
    86 N5        1.9371   -0.1092    1.2840   N.ar      1 RES1   0.0000
    87 C48       2.4509   -1.3566    1.3596   C.ar      1 RES1   0.0000
    88 C49       1.9186   -2.4508    0.5560   C.ar      1 RES1   0.0000
    89 N6        0.8520   -2.2686   -0.2386   N.ar      1 RES1   0.0000
    90 C50      -2.8252   -2.8734   -3.2226   C.ar      1 RES1   0.0000
    91 C51      -3.8191   -3.6849   -3.7825   C.ar      1 RES1   0.0000
    92 C52      -4.7463   -3.2072   -4.6836   C.ar      1 RES1   0.0000
    93 C53      -4.7437   -1.8798   -5.0813   C.ar      1 RES1   0.0000
    94 C54      -5.6861   -1.3466   -6.1043   C.3       1 RES1   0.0000
    95 C55      -3.8067   -1.0550   -4.4742   C.ar      1 RES1   0.0000
    96 C56      -2.8814   -1.5208   -3.5523   C.ar      1 RES1   0.0000
    97 H32      -6.9896   -1.5327   -0.6813   H         1 RES1   0.0000
    98 H33      -7.7121   -3.1152   -0.4078   H         1 RES1   0.0000
    99 H34      -6.2383   -2.9695   -1.3706   H         1 RES1   0.0000
   100 H35      -6.4912   -2.2177    1.5687   H         1 RES1   0.0000
   101 H36      -4.9883   -2.2048    0.6331   H         1 RES1   0.0000
   102 H37      -6.5461   -4.7745    1.0344   H         1 RES1   0.0000
   103 H38      -5.5270   -4.1410    2.3205   H         1 RES1   0.0000
   104 H39      -4.2913   -5.7852    1.1526   H         1 RES1   0.0000
   105 H40      -3.5436   -4.2118    0.8523   H         1 RES1   0.0000
   106 H41      -4.3860   -4.1493   -1.3979   H         1 RES1   0.0000
   107 H42      -5.5428   -5.4443   -1.0734   H         1 RES1   0.0000
   108 H43      -3.8780   -6.4897   -2.3740   H         1 RES1   0.0000
   109 H44      -3.6427   -7.0255   -0.7387   H         1 RES1   0.0000
   110 H45      -1.5080   -6.6863   -1.4699   H         1 RES1   0.0000
   111 H46      -1.8204   -5.2359   -0.5117   H         1 RES1   0.0000
   112 H47      -2.1033   -5.2188   -3.5522   H         1 RES1   0.0000
   113 H48      -0.5374   -5.0940   -2.8565   H         1 RES1   0.0000
   114 H49       0.4322   -5.4207   -1.3217   H         1 RES1   0.0000
   115 H50       2.3691   -5.7504    0.0422   H         1 RES1   0.0000
   116 H51       3.9349   -4.9918    1.7247   H         1 RES1   0.0000
   117 H52       4.7946   -3.1254    3.1409   H         1 RES1   0.0000
   118 H53       4.7968   -0.8701    3.7650   H         1 RES1   0.0000
   119 H54       3.8315    1.4456    3.5898   H         1 RES1   0.0000
   120 H55       2.0411    1.8296    1.9441   H         1 RES1   0.0000
   121 H56      -3.9066   -4.7239   -3.5293   H         1 RES1   0.0000
   122 H57      -5.4655   -3.9008   -5.0895   H         1 RES1   0.0000
   123 H58      -6.3371   -2.1335   -6.4733   H         1 RES1   0.0000
   124 H59      -5.1372   -0.9232   -6.9449   H         1 RES1   0.0000
   125 H60      -6.2961   -0.5490   -5.6817   H         1 RES1   0.0000
   126 H61      -3.7932   -0.0191   -4.7670   H         1 RES1   0.0000
   127 H62      -2.1781   -0.8190   -3.1366   H         1 RES1   0.0000
   128 C57       6.3775   -2.8649   -1.1937   C.3       1 RES1   0.0000
   129 C58       5.8353   -2.0989    0.0075   C.3       1 RES1   0.0000
   130 C59       6.4058   -0.6937    0.2350   C.3       1 RES1   0.0000
   131 C60       5.7656    0.4270   -0.5958   C.3       1 RES1   0.0000
   132 C61       5.9822    0.2633   -2.1048   C.3       1 RES1   0.0000
   133 C62       6.0431    1.5744   -2.8932   C.3       1 RES1   0.0000
   134 C63       4.7598    2.4109   -2.9278   C.3       1 RES1   0.0000
   135 C64       3.6402    1.9300   -3.8655   C.3       1 RES1   0.0000
   136 N7        2.8490    0.8555   -3.2767   N.am      1 RES1   0.0000
   137 C65       2.1596    1.0331   -2.1360   C.2       1 RES1   0.0000
   138 O3        1.7310    0.0410   -1.5085   O.2       1 RES1   0.0000
   139 C66       1.7835    2.3827   -1.5159   C.ar      1 RES1   0.0000
   140 C67       2.0321    3.7046   -1.9337   C.ar      1 RES1   0.0000
   141 C68       1.4986    4.7556   -1.2260   C.ar      1 RES1   0.0000
   142 C69       0.6891    4.5335   -0.1065   C.ar      1 RES1   0.0000
   143 C70       0.1204    5.6005    0.6459   C.ar      1 RES1   0.0000
   144 C71      -0.5856    5.3276    1.7713   C.ar      1 RES1   0.0000
   145 C72      -0.7662    3.9822    2.2130   C.ar      1 RES1   0.0000
   146 C73      -1.4008    3.7171    3.4374   C.ar      1 RES1   0.0000
   147 C74      -1.4856    2.4211    3.8809   C.ar      1 RES1   0.0000
   148 C75      -0.9822    1.4118    3.0601   C.ar      1 RES1   0.0000
   149 N8       -0.4402    1.6103    1.8711   N.ar      1 RES1   0.0000
   150 C76      -0.2793    2.8902    1.4554   C.ar      1 RES1   0.0000
   151 C77       0.4904    3.1804    0.2626   C.ar      1 RES1   0.0000
   152 N9        1.0474    2.1727   -0.4234   N.ar      1 RES1   0.0000
   153 C78       2.9163   -0.4367   -3.9021   C.ar      1 RES1   0.0000
   154 C79       3.9645   -0.7371   -4.7753   C.ar      1 RES1   0.0000
   155 C80       4.0012   -1.9141   -5.4929   C.ar      1 RES1   0.0000
   156 C81       3.0259   -2.8886   -5.3476   C.ar      1 RES1   0.0000
   157 C82       3.0567   -4.1540   -6.1340   C.3       1 RES1   0.0000
   158 C83       2.0145   -2.6224   -4.4290   C.ar      1 RES1   0.0000
   159 C84       1.9381   -1.4222   -3.7431   C.ar      1 RES1   0.0000
   160 H63       6.0261   -3.8937   -1.1507   H         1 RES1   0.0000
   161 H64       7.4631   -2.8786   -1.1814   H         1 RES1   0.0000
   162 H65       6.0354   -2.4352   -2.1288   H         1 RES1   0.0000
   163 H66       6.0676   -2.6881    0.8989   H         1 RES1   0.0000
   164 H67       4.7474   -2.0246   -0.0848   H         1 RES1   0.0000
   165 H68       7.4835   -0.7093    0.0606   H         1 RES1   0.0000
   166 H69       6.2569   -0.4339    1.2900   H         1 RES1   0.0000
   167 H70       6.2108    1.3698   -0.2642   H         1 RES1   0.0000
   168 H71       4.6918    0.4706   -0.3688   H         1 RES1   0.0000
   169 H72       5.2012   -0.3794   -2.5107   H         1 RES1   0.0000
   170 H73       6.9397   -0.2395   -2.2520   H         1 RES1   0.0000
   171 H74       6.3684    1.3560   -3.9109   H         1 RES1   0.0000
   172 H75       6.8256    2.1946   -2.4517   H         1 RES1   0.0000
   173 H76       5.0379    3.4101   -3.2601   H         1 RES1   0.0000
   174 H77       4.3785    2.4842   -1.9087   H         1 RES1   0.0000
   175 H78       4.0519    1.5926   -4.8134   H         1 RES1   0.0000
   176 H79       2.9690    2.7467   -4.1383   H         1 RES1   0.0000
   177 H80       2.6423    3.9510   -2.7787   H         1 RES1   0.0000
   178 H81       1.6998    5.7702   -1.5257   H         1 RES1   0.0000
   179 H82       0.2779    6.6170    0.3098   H         1 RES1   0.0000
   180 H83      -1.0099    6.1168    2.3762   H         1 RES1   0.0000
   181 H84      -1.7855    4.5450    4.0096   H         1 RES1   0.0000
   182 H85      -1.9257    2.1799    4.8319   H         1 RES1   0.0000
   183 H86      -1.0150    0.3923    3.4157   H         1 RES1   0.0000
   184 H87       4.7930   -0.0673   -4.9194   H         1 RES1   0.0000
   185 H88       4.8229   -2.0608   -6.1753   H         1 RES1   0.0000
   186 H89       3.9060   -4.1628   -6.8101   H         1 RES1   0.0000
   187 H90       2.1426   -4.2595   -6.7159   H         1 RES1   0.0000
   188 H91       3.1261   -5.0184   -5.4760   H         1 RES1   0.0000
   189 H92       1.2516   -3.3692   -4.2603   H         1 RES1   0.0000
   190 H93       1.0868   -1.2739   -3.0919   H         1 RES1   0.0000
@<TRIPOS>BOND
     1     1    12    1
     2     1    23    1
     3     1    26    1
     4     1    75    1
     5     1    86    1
     6     1    89    1
     7     1   138    1
     8     1   149    1
     9     1   152    1
    10     2     3    1
    11     2    34    1
    12     2    35    1
    13     2    36    1
    14     3     4    1
    15     3    37    1
    16     3    38    1
    17     4     5    1
    18     4    39    1
    19     4    40    1
    20     5     6    1
    21     5    41    1
    22     5    42    1
    23     6     7    1
    24     6    43    1
    25     6    44    1
    26     7     8    1
    27     7    45    1
    28     7    46    1
    29     8     9    1
    30     8    47    1
    31     8    48    1
    32     9    10    1
    33     9    49    1
    34     9    50    1
    35    10    11    1
    36    10    27    1
    37    11    12    2
    38    11    13    1
    39    13    14    1
    40    13    26    2
    41    14    15    2
    42    14    51    1
    43    15    16    1
    44    15    52    1
    45    16    17    1
    46    16    25    2
    47    17    18    2
    48    17    53    1
    49    18    19    1
    50    18    54    1
    51    19    20    1
    52    19    24    2
    53    20    21    2
    54    20    55    1
    55    21    22    1
    56    21    56    1
    57    22    23    2
    58    22    57    1
    59    23    24    1
    60    24    25    1
    61    25    26    1
    62    27    28    1
    63    27    33    2
    64    28    29    2
    65    28    58    1
    66    29    30    1
    67    29    59    1
    68    30    31    1
    69    30    32    2
    70    31    60    1
    71    31    61    1
    72    31    62    1
    73    32    33    1
    74    32    63    1
    75    33    64    1
    76    65    66    1
    77    65    97    1
    78    65    98    1
    79    65    99    1
    80    66    67    1
    81    66   100    1
    82    66   101    1
    83    67    68    1
    84    67   102    1
    85    67   103    1
    86    68    69    1
    87    68   104    1
    88    68   105    1
    89    69    70    1
    90    69   106    1
    91    69   107    1
    92    70    71    1
    93    70   108    1
    94    70   109    1
    95    71    72    1
    96    71   110    1
    97    71   111    1
    98    72    73    1
    99    72   112    1
   100    72   113    1
   101    73    74    1
   102    73    90    1
   103    74    75    2
   104    74    76    1
   105    76    77    1
   106    76    89    2
   107    77    78    2
   108    77   114    1
   109    78    79    1
   110    78   115    1
   111    79    80    1
   112    79    88    2
   113    80    81    2
   114    80   116    1
   115    81    82    1
   116    81   117    1
   117    82    83    1
   118    82    87    2
   119    83    84    2
   120    83   118    1
   121    84    85    1
   122    84   119    1
   123    85    86    2
   124    85   120    1
   125    86    87    1
   126    87    88    1
   127    88    89    1
   128    90    91    1
   129    90    96    2
   130    91    92    2
   131    91   121    1
   132    92    93    1
   133    92   122    1
   134    93    94    1
   135    93    95    2
   136    94   123    1
   137    94   124    1
   138    94   125    1
   139    95    96    1
   140    95   126    1
   141    96   127    1
   142   128   129    1
   143   128   160    1
   144   128   161    1
   145   128   162    1
   146   129   130    1
   147   129   163    1
   148   129   164    1
   149   130   131    1
   150   130   165    1
   151   130   166    1
   152   131   132    1
   153   131   167    1
   154   131   168    1
   155   132   133    1
   156   132   169    1
   157   132   170    1
   158   133   134    1
   159   133   171    1
   160   133   172    1
   161   134   135    1
   162   134   173    1
   163   134   174    1
   164   135   136    1
   165   135   175    1
   166   135   176    1
   167   136   137    1
   168   136   153    1
   169   137   138    2
   170   137   139    1
   171   139   140    1
   172   139   152    2
   173   140   141    2
   174   140   177    1
   175   141   142    1
   176   141   178    1
   177   142   143    1
   178   142   151    2
   179   143   144    2
   180   143   179    1
   181   144   145    1
   182   144   180    1
   183   145   146    1
   184   145   150    2
   185   146   147    2
   186   146   181    1
   187   147   148    1
   188   147   182    1
   189   148   149    2
   190   148   183    1
   191   149   150    1
   192   150   151    1
   193   151   152    1
   194   153   154    1
   195   153   159    2
   196   154   155    2
   197   154   184    1
   198   155   156    1
   199   155   185    1
   200   156   157    1
   201   156   158    2
   202   157   186    1
   203   157   187    1
   204   157   188    1
   205   158   159    1
   206   158   189    1
   207   159   190    1
@<TRIPOS>SUBSTRUCTURE
     1 RES1      190 GROUP             0 ****  ****    0  
