@<TRIPOS>MOLECULE
tricapped_trigonal_prismatic_0_nunpairedes_0_charge_2 Charge: 2 Unpaired_Electrons: 6 XTB_Unpaired_Electrons: 0 XTB_Charge: 2
    71    76     1     0     0
SMALL
NoCharges
****
Generated from Architector

@<TRIPOS>ATOM
     1 Eu1      -0.2616   -0.2516    0.0151   Eu        1 RES1   0.0000
     2 C1        4.3439    3.7882    1.7164   C.3       1 RES1   0.0000
     3 C2        3.2880    2.9892    2.4777   C.3       1 RES1   0.0000
     4 C3        2.4969    1.9873    1.6099   C.3       1 RES1   0.0000
     5 C4        1.5985    2.7210    0.6283   C.3       1 RES1   0.0000
     6 O1        0.6860    1.8133   -0.0850   O.3       1 RES1   0.0000
     7 P1       -0.3057    2.6514   -1.1786   P.3       1 RES1   0.0000
     8 S1        0.5852    4.2093   -1.8858   S.3       1 RES1   0.0000
     9 C5       -1.8884    2.7222   -0.1485   C.3       1 RES1   0.0000
    10 P2       -2.4822    0.5742    2.0834   P.3       1 RES1   0.0000
    11 S2       -2.7168    1.0739   -0.0208   S.3       1 RES1   0.0000
    12 O2       -1.0211    1.3182    2.3026   O.3       1 RES1   0.0000
    13 C6       -0.9046    2.0379    3.5676   C.3       1 RES1   0.0000
    14 C7       -1.7101    3.3333    3.5788   C.3       1 RES1   0.0000
    15 C8       -0.9432    4.5273    3.0026   C.3       1 RES1   0.0000
    16 C9       -1.6817    5.8487    3.1755   C.3       1 RES1   0.0000
    17 O3       -1.8057   -0.8901    1.6572   O.3       1 RES1   0.0000
    18 C10      -1.0525   -1.5581    2.7255   C.3       1 RES1   0.0000
    19 C11      -1.8600   -1.7612    4.0010   C.3       1 RES1   0.0000
    20 C12      -0.9770   -1.8253    5.2514   C.3       1 RES1   0.0000
    21 C13       0.0505   -2.9531    5.2455   C.3       1 RES1   0.0000
    22 O4       -0.6267    1.2894   -2.0213   O.3       1 RES1   0.0000
    23 C14      -1.2162    1.2915   -3.3648   C.3       1 RES1   0.0000
    24 C15      -2.5046    2.0981   -3.4932   C.3       1 RES1   0.0000
    25 C16      -2.3637    3.6268   -3.5236   C.3       1 RES1   0.0000
    26 C17      -1.4633    4.1683   -4.6239   C.3       1 RES1   0.0000
    27 H1        4.9342    4.3666    2.4228   H         1 RES1   0.0000
    28 H2        3.9067    4.4909    1.0139   H         1 RES1   0.0000
    29 H3        5.0201    3.1305    1.1766   H         1 RES1   0.0000
    30 H4        2.5959    3.6805    2.9646   H         1 RES1   0.0000
    31 H5        3.7966    2.4167    3.2546   H         1 RES1   0.0000
    32 H6        1.8832    1.3359    2.2591   H         1 RES1   0.0000
    33 H7        3.2173    1.3812    1.0552   H         1 RES1   0.0000
    34 H8        2.1965    3.2308   -0.1283   H         1 RES1   0.0000
    35 H9        0.9909    3.4629    1.1551   H         1 RES1   0.0000
    36 H10      -2.6211    3.3739   -0.6209   H         1 RES1   0.0000
    37 H11      -1.6824    3.1375    0.8403   H         1 RES1   0.0000
    38 H12       0.1643    2.2341    3.6806   H         1 RES1   0.0000
    39 H13      -1.2422    1.3816    4.3741   H         1 RES1   0.0000
    40 H14      -1.9669    3.5680    4.6111   H         1 RES1   0.0000
    41 H15      -2.6564    3.1724    3.0471   H         1 RES1   0.0000
    42 H16      -0.7418    4.3895    1.9360   H         1 RES1   0.0000
    43 H17       0.0237    4.5945    3.5075   H         1 RES1   0.0000
    44 H18      -2.6404    5.8442    2.6623   H         1 RES1   0.0000
    45 H19      -1.0805    6.6568    2.7670   H         1 RES1   0.0000
    46 H20      -1.8520    6.0510    4.2277   H         1 RES1   0.0000
    47 H21      -0.1466   -0.9540    2.9364   H         1 RES1   0.0000
    48 H22      -0.7495   -2.5200    2.3032   H         1 RES1   0.0000
    49 H23      -2.4602   -2.6657    3.9100   H         1 RES1   0.0000
    50 H24      -2.5516   -0.9177    4.1139   H         1 RES1   0.0000
    51 H25      -1.6375   -1.9590    6.1070   H         1 RES1   0.0000
    52 H26      -0.4577   -0.8715    5.3825   H         1 RES1   0.0000
    53 H27      -0.4069   -3.8963    4.9611   H         1 RES1   0.0000
    54 H28       0.4622   -3.0674    6.2458   H         1 RES1   0.0000
    55 H29       0.8746   -2.7431    4.5658   H         1 RES1   0.0000
    56 H30      -1.4337    0.2359   -3.5507   H         1 RES1   0.0000
    57 H31      -0.4664    1.6289   -4.0821   H         1 RES1   0.0000
    58 H32      -3.1920    1.8149   -2.6888   H         1 RES1   0.0000
    59 H33      -2.9733    1.7796   -4.4253   H         1 RES1   0.0000
    60 H34      -1.9979    4.0003   -2.5609   H         1 RES1   0.0000
    61 H35      -3.3620    4.0459   -3.6611   H         1 RES1   0.0000
    62 H36      -0.4307    3.8758   -4.4736   H         1 RES1   0.0000
    63 H37      -1.4934    5.2533   -4.6202   H         1 RES1   0.0000
    64 H38      -1.7862    3.8259   -5.5996   H         1 RES1   0.0000
    65 N1       -0.1647   -2.3642   -1.1947   N.3       1 RES1   0.0000
    66 O5       -0.5361   -3.2594   -1.8550   O.2       1 RES1   0.0000
    67 O6       -0.2397   -2.3703    0.0576   O.co2     1 RES1   0.0000
    68 O7        0.3309   -1.3150   -1.6795   O.co2     1 RES1   0.0000
    69 O8        1.9741   -0.9023    0.7846   O.3       1 RES1   0.0000
    70 H39       2.3185   -1.4082    1.5434   H         1 RES1   0.0000
    71 H40       2.6624   -1.0094    0.1019   H         1 RES1   0.0000
@<TRIPOS>BOND
     1     1     6    1
     2     1     8    1
     3     1    11    1
     4     1    12    1
     5     1    17    1
     6     1    22    1
     7     1    67    1
     8     1    68    1
     9     1    69    1
    10     2     3    1
    11     2    27    1
    12     2    28    1
    13     2    29    1
    14     3     4    1
    15     3    30    1
    16     3    31    1
    17     4     5    1
    18     4    32    1
    19     4    33    1
    20     5     6    1
    21     5    34    1
    22     5    35    1
    23     6     7    1
    24     7     8    2
    25     7     9    1
    26     7    22    1
    27     9    10    1
    28     9    36    1
    29     9    37    1
    30    10    11    2
    31    10    12    1
    32    10    17    1
    33    12    13    1
    34    13    14    1
    35    13    38    1
    36    13    39    1
    37    14    15    1
    38    14    40    1
    39    14    41    1
    40    15    16    1
    41    15    42    1
    42    15    43    1
    43    16    44    1
    44    16    45    1
    45    16    46    1
    46    17    18    1
    47    18    19    1
    48    18    47    1
    49    18    48    1
    50    19    20    1
    51    19    49    1
    52    19    50    1
    53    20    21    1
    54    20    51    1
    55    20    52    1
    56    21    53    1
    57    21    54    1
    58    21    55    1
    59    22    23    1
    60    23    24    1
    61    23    56    1
    62    23    57    1
    63    24    25    1
    64    24    58    1
    65    24    59    1
    66    25    26    1
    67    25    60    1
    68    25    61    1
    69    26    62    1
    70    26    63    1
    71    26    64    1
    72    65    66    2
    73    65    67    1
    74    65    68    1
    75    69    70    1
    76    69    71    1
@<TRIPOS>SUBSTRUCTURE
     1 RES1       71 GROUP             0 ****  ****    0  
