@<TRIPOS>MOLECULE
am_c3_9H2O_c0_0_nunpairedes_0_charge_3 Charge: 3 Unpaired_Electrons: 6 XTB_Unpaired_Electrons: 0 XTB_Charge: 3
   196   209     1     0     0
SMALL
NoCharges
****
Generated from Architector

@<TRIPOS>ATOM
     1 Eu1       0.0445   -0.0172   -0.0099   Eu        1 RES1   0.0000
     2 C1        5.2477  -10.0101    1.0842   C.3       1 RES1   0.0000
     3 C2        6.4049   -9.1091    0.6802   C.3       1 RES1   0.0000
     4 C3        6.0038   -8.1705   -0.4570   C.3       1 RES1   0.0000
     5 C4        7.0966   -7.1526   -0.7841   C.3       1 RES1   0.0000
     6 C5        6.6891   -6.1510   -1.8715   C.3       1 RES1   0.0000
     7 C6        5.9916   -4.8497   -1.4161   C.3       1 RES1   0.0000
     8 C7        4.5858   -4.8561   -0.8789   C.ar      1 RES1   0.0000
     9 C8        3.5488   -4.2281   -1.5617   C.ar      1 RES1   0.0000
    10 C9        2.3044   -4.0265   -0.9918   C.ar      1 RES1   0.0000
    11 C10       2.0453   -4.4332    0.3175   C.ar      1 RES1   0.0000
    12 N1        0.8093   -4.1439    0.9899   N.am      1 RES1   0.0000
    13 C11       0.4129   -5.0642    2.0582   C.3       1 RES1   0.0000
    14 C12       0.5378   -4.4176    3.4312   C.3       1 RES1   0.0000
    15 C13       0.1490   -3.0042    0.7506   C.2       1 RES1   0.0000
    16 O1        0.4985   -2.1992   -0.1377   O.2       1 RES1   0.0000
    17 C14      -1.0348   -2.5507    1.6106   C.ar      1 RES1   0.0000
    18 C15      -2.0984   -3.3089    2.1121   C.ar      1 RES1   0.0000
    19 C16      -3.0563   -2.6904    2.9023   C.ar      1 RES1   0.0000
    20 C17      -2.9888   -1.3278    3.1370   C.ar      1 RES1   0.0000
    21 C18      -1.9675   -0.6101    2.5207   C.ar      1 RES1   0.0000
    22 C19      -1.9047    0.8726    2.5863   C.ar      1 RES1   0.0000
    23 C20      -2.6606    1.6392    3.4776   C.ar      1 RES1   0.0000
    24 C21      -2.5163    3.0192    3.4675   C.ar      1 RES1   0.0000
    25 C22      -1.7007    3.6216    2.5174   C.ar      1 RES1   0.0000
    26 C23      -1.0564    2.8020    1.6027   C.ar      1 RES1   0.0000
    27 C24      -0.1906    3.2424    0.4519   C.2       1 RES1   0.0000
    28 O2        0.6332    2.3835    0.0541   O.2       1 RES1   0.0000
    29 N2       -0.2654    4.4347   -0.1575   N.am      1 RES1   0.0000
    30 C25       0.7552    4.7066   -1.1804   C.3       1 RES1   0.0000
    31 C26       0.1740    4.7278   -2.5881   C.3       1 RES1   0.0000
    32 C27      -1.3243    5.3952   -0.1315   C.ar      1 RES1   0.0000
    33 C28      -2.6566    4.9974   -0.0359   C.ar      1 RES1   0.0000
    34 C29      -3.6814    5.9106   -0.1662   C.ar      1 RES1   0.0000
    35 C30      -3.4414    7.2480   -0.4431   C.ar      1 RES1   0.0000
    36 C31      -4.5644    8.2169   -0.6167   C.3       1 RES1   0.0000
    37 C32      -4.4899    9.4104    0.3556   C.3       1 RES1   0.0000
    38 C33      -4.2492    9.0059    1.8118   C.3       1 RES1   0.0000
    39 C34      -5.3268    8.0867    2.3876   C.3       1 RES1   0.0000
    40 C35      -4.9819    7.6590    3.8132   C.3       1 RES1   0.0000
    41 C36      -6.0260    6.7152    4.3916   C.3       1 RES1   0.0000
    42 C37      -2.1113    7.6388   -0.5520   C.ar      1 RES1   0.0000
    43 C38      -1.0739    6.7431   -0.3894   C.ar      1 RES1   0.0000
    44 N3       -1.1131    1.4592    1.6839   N.ar      1 RES1   0.0000
    45 N4       -1.0189   -1.2215    1.7918   N.ar      1 RES1   0.0000
    46 C39       3.0569   -5.1243    0.9802   C.ar      1 RES1   0.0000
    47 C40       4.2894   -5.3309    0.3940   C.ar      1 RES1   0.0000
    48 H1        5.5480  -10.6750    1.8873   H         1 RES1   0.0000
    49 H2        4.9253  -10.6106    0.2382   H         1 RES1   0.0000
    50 H3        4.3998   -9.4190    1.4261   H         1 RES1   0.0000
    51 H4        7.2476   -9.7239    0.3614   H         1 RES1   0.0000
    52 H5        6.7347   -8.5269    1.5452   H         1 RES1   0.0000
    53 H6        5.0782   -7.6523   -0.1928   H         1 RES1   0.0000
    54 H7        5.7991   -8.7617   -1.3537   H         1 RES1   0.0000
    55 H8        7.9734   -7.7008   -1.1413   H         1 RES1   0.0000
    56 H9        7.4100   -6.6137    0.1156   H         1 RES1   0.0000
    57 H10       6.0851   -6.6588   -2.6252   H         1 RES1   0.0000
    58 H11       7.6042   -5.8058   -2.3600   H         1 RES1   0.0000
    59 H12       5.9919   -4.1843   -2.2843   H         1 RES1   0.0000
    60 H13       6.6329   -4.4024   -0.6466   H         1 RES1   0.0000
    61 H14       3.7102   -3.8763   -2.5709   H         1 RES1   0.0000
    62 H15       1.5375   -3.5481   -1.5747   H         1 RES1   0.0000
    63 H16       1.0509   -5.9445    1.9880   H         1 RES1   0.0000
    64 H17      -0.5966   -5.4239    1.8646   H         1 RES1   0.0000
    65 H18       1.5190   -3.9683    3.5491   H         1 RES1   0.0000
    66 H19       0.3947   -5.1596    4.2068   H         1 RES1   0.0000
    67 H20      -0.1985   -3.6366    3.5833   H         1 RES1   0.0000
    68 H21      -2.2197   -4.3548    1.8893   H         1 RES1   0.0000
    69 H22      -3.8700   -3.2674    3.3102   H         1 RES1   0.0000
    70 H23      -3.7587   -0.8360    3.7074   H         1 RES1   0.0000
    71 H24      -3.3318    1.1790    4.1798   H         1 RES1   0.0000
    72 H25      -3.0520    3.6259    4.1782   H         1 RES1   0.0000
    73 H26      -1.5843    4.6947    2.4714   H         1 RES1   0.0000
    74 H27       1.5236    3.9380   -1.0942   H         1 RES1   0.0000
    75 H28       1.2161    5.6651   -0.9447   H         1 RES1   0.0000
    76 H29      -0.3355    3.7951   -2.8229   H         1 RES1   0.0000
    77 H30       0.9868    4.8669   -3.2911   H         1 RES1   0.0000
    78 H31      -0.5258    5.5479   -2.7194   H         1 RES1   0.0000
    79 H32      -2.9012    3.9626    0.1401   H         1 RES1   0.0000
    80 H33      -4.6973    5.5650   -0.0757   H         1 RES1   0.0000
    81 H34      -5.5096    7.6894   -0.4808   H         1 RES1   0.0000
    82 H35      -4.5495    8.6096   -1.6380   H         1 RES1   0.0000
    83 H36      -5.4318    9.9559    0.2815   H         1 RES1   0.0000
    84 H37      -3.6934   10.0916    0.0469   H         1 RES1   0.0000
    85 H38      -4.2076    9.9160    2.4145   H         1 RES1   0.0000
    86 H39      -3.2727    8.5161    1.8948   H         1 RES1   0.0000
    87 H40      -5.4252    7.1918    1.7661   H         1 RES1   0.0000
    88 H41      -6.2873    8.6083    2.3820   H         1 RES1   0.0000
    89 H42      -4.9084    8.5458    4.4441   H         1 RES1   0.0000
    90 H43      -4.0030    7.1674    3.8123   H         1 RES1   0.0000
    91 H44      -6.9938    7.2056    4.4293   H         1 RES1   0.0000
    92 H45      -5.7535    6.4230    5.4010   H         1 RES1   0.0000
    93 H46      -6.1202    5.8166    3.7835   H         1 RES1   0.0000
    94 H47      -1.8926    8.6663   -0.7812   H         1 RES1   0.0000
    95 H48      -0.0689    7.1229   -0.4800   H         1 RES1   0.0000
    96 H49       2.9279   -5.4776    1.9882   H         1 RES1   0.0000
    97 H50       5.0531   -5.8472    0.9501   H         1 RES1   0.0000
    98 C41       9.4298   -4.2566    5.3923   C.3       1 RES1   0.0000
    99 C42       8.4671   -5.4215    5.5602   C.3       1 RES1   0.0000
   100 C43       7.0385   -4.9323    5.7845   C.3       1 RES1   0.0000
   101 C44       6.0528   -6.0888    5.9311   C.3       1 RES1   0.0000
   102 C45       4.6089   -5.6335    6.1551   C.3       1 RES1   0.0000
   103 C46       3.8107   -5.2278    4.8987   C.3       1 RES1   0.0000
   104 C47       4.0967   -3.9508    4.1502   C.ar      1 RES1   0.0000
   105 C48       3.3363   -2.7926    4.3145   C.ar      1 RES1   0.0000
   106 C49       3.3769   -1.7434    3.4061   C.ar      1 RES1   0.0000
   107 C50       4.1975   -1.8141    2.2838   C.ar      1 RES1   0.0000
   108 N5        4.2425   -0.8053    1.2611   N.am      1 RES1   0.0000
   109 C51       5.5721   -0.5968    0.6742   C.3       1 RES1   0.0000
   110 C52       5.6682   -1.1547   -0.7392   C.3       1 RES1   0.0000
   111 C53       3.1490   -0.1936    0.7896   C.2       1 RES1   0.0000
   112 O3        2.0107   -0.3058    1.2960   O.2       1 RES1   0.0000
   113 C54       3.2010    0.6572   -0.4816   C.ar      1 RES1   0.0000
   114 C55       4.1433    1.6314   -0.8224   C.ar      1 RES1   0.0000
   115 C56       4.0011    2.3161   -2.0185   C.ar      1 RES1   0.0000
   116 C57       2.8864    2.0989   -2.8100   C.ar      1 RES1   0.0000
   117 C58       1.9309    1.1871   -2.3667   C.ar      1 RES1   0.0000
   118 C59       0.6359    1.0101   -3.0755   C.ar      1 RES1   0.0000
   119 C60       0.3867    1.5081   -4.3565   C.ar      1 RES1   0.0000
   120 C61      -0.8269    1.2243   -4.9682   C.ar      1 RES1   0.0000
   121 C62      -1.7938    0.5080   -4.2761   C.ar      1 RES1   0.0000
   122 C63      -1.5242    0.1568   -2.9590   C.ar      1 RES1   0.0000
   123 C64      -2.4621   -0.5579   -2.0201   C.2       1 RES1   0.0000
   124 O4       -1.9156   -1.1729   -1.0785   O.2       1 RES1   0.0000
   125 N6       -3.8001   -0.5588   -2.1453   N.am      1 RES1   0.0000
   126 C65      -4.5239   -1.4803   -1.2577   C.3       1 RES1   0.0000
   127 C66      -5.2597   -0.7705   -0.1293   C.3       1 RES1   0.0000
   128 C67      -4.6161    0.3977   -2.8213   C.ar      1 RES1   0.0000
   129 C68      -4.2091    1.7238   -2.9654   C.ar      1 RES1   0.0000
   130 C69      -5.0519    2.6784   -3.4904   C.ar      1 RES1   0.0000
   131 C70      -6.3470    2.3765   -3.8777   C.ar      1 RES1   0.0000
   132 C71      -7.2473    3.4423   -4.4113   C.3       1 RES1   0.0000
   133 C72      -7.7541    3.1679   -5.8388   C.3       1 RES1   0.0000
   134 C73      -6.6480    2.8223   -6.8380   C.3       1 RES1   0.0000
   135 C74      -5.6134    3.9304   -7.0403   C.3       1 RES1   0.0000
   136 C75      -4.5237    3.4863   -8.0156   C.3       1 RES1   0.0000
   137 C76      -3.4664    4.5606   -8.2244   C.3       1 RES1   0.0000
   138 C77      -6.7545    1.0548   -3.7321   C.ar      1 RES1   0.0000
   139 C78      -5.9142    0.0837   -3.2200   C.ar      1 RES1   0.0000
   140 N7       -0.3247    0.3762   -2.3935   N.ar      1 RES1   0.0000
   141 N8        2.1152    0.4673   -1.2465   N.ar      1 RES1   0.0000
   142 C79       5.0436   -2.9170    2.1781   C.ar      1 RES1   0.0000
   143 C80       4.9972   -3.9484    3.0904   C.ar      1 RES1   0.0000
   144 H51      10.4383   -4.6191    5.2256   H         1 RES1   0.0000
   145 H52       9.4302   -3.6369    6.2844   H         1 RES1   0.0000
   146 H53       9.1417   -3.6377    4.5448   H         1 RES1   0.0000
   147 H54       8.7762   -6.0278    6.4133   H         1 RES1   0.0000
   148 H55       8.5020   -6.0581    4.6723   H         1 RES1   0.0000
   149 H56       6.7376   -4.2912    4.9515   H         1 RES1   0.0000
   150 H57       7.0047   -4.3275    6.6950   H         1 RES1   0.0000
   151 H58       6.3531   -6.6874    6.7966   H         1 RES1   0.0000
   152 H59       6.1008   -6.7473    5.0581   H         1 RES1   0.0000
   153 H60       4.5858   -4.8322    6.8952   H         1 RES1   0.0000
   154 H61       4.0599   -6.4849    6.5665   H         1 RES1   0.0000
   155 H62       2.7636   -5.1786    5.2084   H         1 RES1   0.0000
   156 H63       3.9140   -6.0543    4.1860   H         1 RES1   0.0000
   157 H64       2.6820   -2.7050    5.1707   H         1 RES1   0.0000
   158 H65       2.7601   -0.8745    3.5631   H         1 RES1   0.0000
   159 H66       6.3023   -1.0727    1.3308   H         1 RES1   0.0000
   160 H67       5.8134    0.4638    0.7132   H         1 RES1   0.0000
   161 H68       5.4605   -2.2196   -0.7600   H         1 RES1   0.0000
   162 H69       6.6659   -0.9910   -1.1278   H         1 RES1   0.0000
   163 H70       4.9585   -0.6764   -1.4060   H         1 RES1   0.0000
   164 H71       4.9575    1.9048   -0.1739   H         1 RES1   0.0000
   165 H72       4.7347    3.0535   -2.2994   H         1 RES1   0.0000
   166 H73       2.7292    2.6990   -3.6894   H         1 RES1   0.0000
   167 H74       1.1251    2.0882   -4.8794   H         1 RES1   0.0000
   168 H75      -1.0205    1.5708   -5.9702   H         1 RES1   0.0000
   169 H76      -2.7455    0.2573   -4.7215   H         1 RES1   0.0000
   170 H77      -3.7949   -2.1783   -0.8455   H         1 RES1   0.0000
   171 H78      -5.2230   -2.0507   -1.8678   H         1 RES1   0.0000
   172 H79      -4.5744   -0.2077    0.5030   H         1 RES1   0.0000
   173 H80      -5.7461   -1.5224    0.4816   H         1 RES1   0.0000
   174 H81      -6.0246   -0.1004   -0.5106   H         1 RES1   0.0000
   175 H82      -3.2203    2.0242   -2.6708   H         1 RES1   0.0000
   176 H83      -4.6891    3.6886   -3.5863   H         1 RES1   0.0000
   177 H84      -6.7125    4.3936   -4.3924   H         1 RES1   0.0000
   178 H85      -8.1167    3.5357   -3.7540   H         1 RES1   0.0000
   179 H86      -8.2807    4.0621   -6.1763   H         1 RES1   0.0000
   180 H87      -8.4754    2.3478   -5.8209   H         1 RES1   0.0000
   181 H88      -7.1189    2.6099   -7.8005   H         1 RES1   0.0000
   182 H89      -6.1404    1.9075   -6.5138   H         1 RES1   0.0000
   183 H90      -5.1497    4.1895   -6.0836   H         1 RES1   0.0000
   184 H91      -6.1101    4.8241   -7.4270   H         1 RES1   0.0000
   185 H92      -4.9825    3.2434   -8.9752   H         1 RES1   0.0000
   186 H93      -4.0510    2.5761   -7.6316   H         1 RES1   0.0000
   187 H94      -3.9173    5.4556   -8.6421   H         1 RES1   0.0000
   188 H95      -2.7050    4.2107   -8.9147   H         1 RES1   0.0000
   189 H96      -2.9859    4.8243   -7.2832   H         1 RES1   0.0000
   190 H97      -7.7536    0.7885   -4.0248   H         1 RES1   0.0000
   191 H98      -6.2951   -0.9207   -3.1352   H         1 RES1   0.0000
   192 H99       5.7203   -3.0166    1.3479   H         1 RES1   0.0000
   193 H100      5.6465   -4.7990    2.9560   H         1 RES1   0.0000
   194 O5       -2.2690    1.6327   -0.6381   O.3       1 RES1   0.0000
   195 H101     -2.1985    2.5081   -1.0461   H         1 RES1   0.0000
   196 H102     -3.1496    1.5869   -0.2392   H         1 RES1   0.0000
@<TRIPOS>BOND
     1     1    16    1
     2     1    28    1
     3     1    44    1
     4     1    45    1
     5     1   112    1
     6     1   124    1
     7     1   140    1
     8     1   141    1
     9     1   194    1
    10     2     3    1
    11     2    48    1
    12     2    49    1
    13     2    50    1
    14     3     4    1
    15     3    51    1
    16     3    52    1
    17     4     5    1
    18     4    53    1
    19     4    54    1
    20     5     6    1
    21     5    55    1
    22     5    56    1
    23     6     7    1
    24     6    57    1
    25     6    58    1
    26     7     8    1
    27     7    59    1
    28     7    60    1
    29     8     9    1
    30     8    47    2
    31     9    10    2
    32     9    61    1
    33    10    11    1
    34    10    62    1
    35    11    12    1
    36    11    46    2
    37    12    13    1
    38    12    15    1
    39    13    14    1
    40    13    63    1
    41    13    64    1
    42    14    65    1
    43    14    66    1
    44    14    67    1
    45    15    16    2
    46    15    17    1
    47    17    18    1
    48    17    45    2
    49    18    19    2
    50    18    68    1
    51    19    20    1
    52    19    69    1
    53    20    21    2
    54    20    70    1
    55    21    22    1
    56    21    45    1
    57    22    23    1
    58    22    44    2
    59    23    24    2
    60    23    71    1
    61    24    25    1
    62    24    72    1
    63    25    26    2
    64    25    73    1
    65    26    27    1
    66    26    44    1
    67    27    28    2
    68    27    29    1
    69    29    30    1
    70    29    32    1
    71    30    31    1
    72    30    74    1
    73    30    75    1
    74    31    76    1
    75    31    77    1
    76    31    78    1
    77    32    33    1
    78    32    43    2
    79    33    34    2
    80    33    79    1
    81    34    35    1
    82    34    80    1
    83    35    36    1
    84    35    42    2
    85    36    37    1
    86    36    81    1
    87    36    82    1
    88    37    38    1
    89    37    83    1
    90    37    84    1
    91    38    39    1
    92    38    85    1
    93    38    86    1
    94    39    40    1
    95    39    87    1
    96    39    88    1
    97    40    41    1
    98    40    89    1
    99    40    90    1
   100    41    91    1
   101    41    92    1
   102    41    93    1
   103    42    43    1
   104    42    94    1
   105    43    95    1
   106    46    47    1
   107    46    96    1
   108    47    97    1
   109    98    99    1
   110    98   144    1
   111    98   145    1
   112    98   146    1
   113    99   100    1
   114    99   147    1
   115    99   148    1
   116   100   101    1
   117   100   149    1
   118   100   150    1
   119   101   102    1
   120   101   151    1
   121   101   152    1
   122   102   103    1
   123   102   153    1
   124   102   154    1
   125   103   104    1
   126   103   155    1
   127   103   156    1
   128   104   105    1
   129   104   143    2
   130   105   106    2
   131   105   157    1
   132   106   107    1
   133   106   158    1
   134   107   108    1
   135   107   142    2
   136   108   109    1
   137   108   111    1
   138   109   110    1
   139   109   159    1
   140   109   160    1
   141   110   161    1
   142   110   162    1
   143   110   163    1
   144   111   112    2
   145   111   113    1
   146   113   114    1
   147   113   141    2
   148   114   115    2
   149   114   164    1
   150   115   116    1
   151   115   165    1
   152   116   117    2
   153   116   166    1
   154   117   118    1
   155   117   141    1
   156   118   119    1
   157   118   140    2
   158   119   120    2
   159   119   167    1
   160   120   121    1
   161   120   168    1
   162   121   122    2
   163   121   169    1
   164   122   123    1
   165   122   140    1
   166   123   124    2
   167   123   125    1
   168   125   126    1
   169   125   128    1
   170   126   127    1
   171   126   170    1
   172   126   171    1
   173   127   172    1
   174   127   173    1
   175   127   174    1
   176   128   129    1
   177   128   139    2
   178   129   130    2
   179   129   175    1
   180   130   131    1
   181   130   176    1
   182   131   132    1
   183   131   138    2
   184   132   133    1
   185   132   177    1
   186   132   178    1
   187   133   134    1
   188   133   179    1
   189   133   180    1
   190   134   135    1
   191   134   181    1
   192   134   182    1
   193   135   136    1
   194   135   183    1
   195   135   184    1
   196   136   137    1
   197   136   185    1
   198   136   186    1
   199   137   187    1
   200   137   188    1
   201   137   189    1
   202   138   139    1
   203   138   190    1
   204   139   191    1
   205   142   143    1
   206   142   192    1
   207   143   193    1
   208   194   195    1
   209   194   196    1
@<TRIPOS>SUBSTRUCTURE
     1 RES1      196 GROUP             0 ****  ****    0  
