@<TRIPOS>MOLECULE
am_c3_9H2O_c0_0_nunpairedes_0_charge_3 Charge: 3 Unpaired_Electrons: 6 XTB_Unpaired_Electrons: 0 XTB_Charge: 3
   284   291     1     0     0
SMALL
NoCharges
****
Generated from Architector

@<TRIPOS>ATOM
     1 Eu1      -0.0073   -0.0322    0.1659   Eu        1 RES1   0.0000
     2 C1       -3.6321   -2.1054   -3.9224   C.3       1 RES1   0.0000
     3 C2       -3.7327   -0.8514   -4.7660   C.3       1 RES1   0.0000
     4 C3       -2.7145    0.2173   -4.3636   C.3       1 RES1   0.0000
     5 C4       -3.0620    1.5262   -5.0656   C.3       1 RES1   0.0000
     6 C5       -2.5749    2.8227   -4.4089   C.3       1 RES1   0.0000
     7 C6       -2.7629    3.9510   -5.4362   C.3       1 RES1   0.0000
     8 C7       -4.1981    4.0385   -5.9546   C.3       1 RES1   0.0000
     9 C8       -1.1207    2.7496   -3.8962   C.3       1 RES1   0.0000
    10 P1       -0.9720    2.7984   -2.0554   P.3       1 RES1   0.0000
    11 O1       -1.1065    1.4522   -1.4170   O.2       1 RES1   0.0000
    12 C9        0.7116    3.5042   -1.7181   C.3       1 RES1   0.0000
    13 C10       0.9934    3.4820   -0.2351   C.2       1 RES1   0.0000
    14 O2        0.5881    2.5032    0.4216   O.2       1 RES1   0.0000
    15 N1        1.6641    4.4972    0.3290   N.am      1 RES1   0.0000
    16 C11       1.9470    4.4115    1.7638   C.3       1 RES1   0.0000
    17 C12       0.9458    5.0268    2.7624   C.3       1 RES1   0.0000
    18 C13       0.7036    6.5250    2.6382   C.3       1 RES1   0.0000
    19 C14      -0.3807    4.2833    2.7553   C.3       1 RES1   0.0000
    20 C15       2.4939    5.4256   -0.4425   C.3       1 RES1   0.0000
    21 C16       2.0657    6.9009   -0.4455   C.3       1 RES1   0.0000
    22 C17       0.6700    7.0776   -1.0308   C.3       1 RES1   0.0000
    23 C18       3.0942    7.7198   -1.2201   C.3       1 RES1   0.0000
    24 C19      -2.0288    4.1359   -1.4157   C.ar      1 RES1   0.0000
    25 C20      -2.7034    4.0426   -0.2067   C.ar      1 RES1   0.0000
    26 C21      -3.3956    5.1338    0.2906   C.ar      1 RES1   0.0000
    27 C22      -3.4202    6.3279   -0.4086   C.ar      1 RES1   0.0000
    28 C23      -2.7579    6.4238   -1.6221   C.ar      1 RES1   0.0000
    29 C24      -2.0593    5.3377   -2.1163   C.ar      1 RES1   0.0000
    30 H1       -4.5075   -2.7336   -4.0663   H         1 RES1   0.0000
    31 H2       -3.5307   -1.8245   -2.8792   H         1 RES1   0.0000
    32 H3       -2.7521   -2.6706   -4.1902   H         1 RES1   0.0000
    33 H4       -4.7380   -0.4470   -4.6698   H         1 RES1   0.0000
    34 H5       -3.6059   -1.0963   -5.8189   H         1 RES1   0.0000
    35 H6       -1.7138   -0.1137   -4.6480   H         1 RES1   0.0000
    36 H7       -2.7319    0.3677   -3.2782   H         1 RES1   0.0000
    37 H8       -4.1496    1.5888   -5.0954   H         1 RES1   0.0000
    38 H9       -2.7001    1.4987   -6.0955   H         1 RES1   0.0000
    39 H10      -3.2250    3.0330   -3.5555   H         1 RES1   0.0000
    40 H11      -2.0943    3.7667   -6.2775   H         1 RES1   0.0000
    41 H12      -2.4967    4.9201   -5.0119   H         1 RES1   0.0000
    42 H13      -4.4919    3.1215   -6.4583   H         1 RES1   0.0000
    43 H14      -4.2981    4.8534   -6.6683   H         1 RES1   0.0000
    44 H15      -4.8879    4.2165   -5.1316   H         1 RES1   0.0000
    45 H16      -0.5408    3.5684   -4.3238   H         1 RES1   0.0000
    46 H17      -0.6583    1.8094   -4.1992   H         1 RES1   0.0000
    47 H18       0.7564    4.4945   -2.1598   H         1 RES1   0.0000
    48 H19       1.4301    2.8259   -2.1766   H         1 RES1   0.0000
    49 H20       2.9223    4.8696    1.9354   H         1 RES1   0.0000
    50 H21       1.9995    3.3421    1.9993   H         1 RES1   0.0000
    51 H22       1.4124    4.8533    3.7401   H         1 RES1   0.0000
    52 H23       0.1470    6.7670    1.7373   H         1 RES1   0.0000
    53 H24       1.6398    7.0744    2.6558   H         1 RES1   0.0000
    54 H25       0.1182    6.8554    3.4922   H         1 RES1   0.0000
    55 H26      -0.9085    4.4509    1.8178   H         1 RES1   0.0000
    56 H27      -0.9989    4.6387    3.5728   H         1 RES1   0.0000
    57 H28      -0.1885    3.2259    2.9026   H         1 RES1   0.0000
    58 H29       2.5541    5.0855   -1.4736   H         1 RES1   0.0000
    59 H30       3.5096    5.3657   -0.0341   H         1 RES1   0.0000
    60 H31       2.0663    7.2539    0.5838   H         1 RES1   0.0000
    61 H32       0.6710    6.8936   -2.1027   H         1 RES1   0.0000
    62 H33       0.3278    8.0939   -0.8707   H         1 RES1   0.0000
    63 H34      -0.0359    6.4056   -0.5489   H         1 RES1   0.0000
    64 H35       3.1426    7.4134   -2.2611   H         1 RES1   0.0000
    65 H36       4.0819    7.6158   -0.7816   H         1 RES1   0.0000
    66 H37       2.8260    8.7696   -1.1874   H         1 RES1   0.0000
    67 H38      -2.6806    3.1070    0.3336   H         1 RES1   0.0000
    68 H39      -3.9244    5.0559    1.2271   H         1 RES1   0.0000
    69 H40      -3.9624    7.1753   -0.0176   H         1 RES1   0.0000
    70 H41      -2.7768    7.3474   -2.1783   H         1 RES1   0.0000
    71 H42      -1.5295    5.4250   -3.0520   H         1 RES1   0.0000
    72 C25      -2.7337    1.1549    7.6759   C.3       1 RES1   0.0000
    73 C26      -1.4765    0.3086    7.5089   C.3       1 RES1   0.0000
    74 C27      -1.7442   -1.1925    7.6456   C.3       1 RES1   0.0000
    75 C28      -2.7667   -1.7423    6.6506   C.3       1 RES1   0.0000
    76 C29      -2.4613   -1.4998    5.1668   C.3       1 RES1   0.0000
    77 C30      -3.5874   -2.0363    4.2772   C.3       1 RES1   0.0000
    78 C31      -4.9925   -1.6493    4.7251   C.3       1 RES1   0.0000
    79 C32      -1.1628   -2.2048    4.7757   C.3       1 RES1   0.0000
    80 P2       -0.1067   -1.7647    3.3289   P.3       1 RES1   0.0000
    81 O3       -0.7359   -1.5123    1.9951   O.2       1 RES1   0.0000
    82 C33       0.7680   -0.2431    3.9479   C.3       1 RES1   0.0000
    83 C34       1.9354    0.1758    3.0969   C.2       1 RES1   0.0000
    84 O4        1.7682    0.2843    1.8672   O.2       1 RES1   0.0000
    85 N2        3.1191    0.4306    3.6829   N.am      1 RES1   0.0000
    86 C35       3.3607    0.1746    5.1040   C.3       1 RES1   0.0000
    87 C36       2.8896    1.2101    6.1649   C.3       1 RES1   0.0000
    88 C37       1.7959    2.1735    5.7115   C.3       1 RES1   0.0000
    89 C38       4.0712    2.0037    6.7231   C.3       1 RES1   0.0000
    90 C39       4.3094    0.4735    2.8287   C.3       1 RES1   0.0000
    91 C40       4.8596    1.8195    2.3024   C.3       1 RES1   0.0000
    92 C41       4.2745    2.1382    0.9249   C.3       1 RES1   0.0000
    93 C42       4.7318    2.9849    3.2768   C.3       1 RES1   0.0000
    94 C43       0.8388   -3.3168    3.3606   C.ar      1 RES1   0.0000
    95 C44       0.5773   -4.2116    2.3312   C.ar      1 RES1   0.0000
    96 C45       0.9789   -5.5311    2.4368   C.ar      1 RES1   0.0000
    97 C46       1.6333   -5.9737    3.5714   C.ar      1 RES1   0.0000
    98 C47       1.8998   -5.0827    4.5990   C.ar      1 RES1   0.0000
    99 C48       1.4951   -3.7635    4.5015   C.ar      1 RES1   0.0000
   100 H43      -2.4749    2.2097    7.7179   H         1 RES1   0.0000
   101 H44      -3.2444    0.8925    8.5980   H         1 RES1   0.0000
   102 H45      -3.4205    1.0067    6.8470   H         1 RES1   0.0000
   103 H46      -0.7554    0.5956    8.2771   H         1 RES1   0.0000
   104 H47      -1.0186    0.5221    6.5370   H         1 RES1   0.0000
   105 H48      -2.1335   -1.3846    8.6469   H         1 RES1   0.0000
   106 H49      -0.7972   -1.7352    7.5720   H         1 RES1   0.0000
   107 H50      -3.7228   -1.2761    6.8768   H         1 RES1   0.0000
   108 H51      -2.8728   -2.8148    6.8153   H         1 RES1   0.0000
   109 H52      -2.3787   -0.4224    5.0024   H         1 RES1   0.0000
   110 H53      -3.5355   -3.1263    4.2314   H         1 RES1   0.0000
   111 H54      -3.3737   -1.6613    3.2735   H         1 RES1   0.0000
   112 H55      -5.2816   -2.2085    5.6097   H         1 RES1   0.0000
   113 H56      -5.7169   -1.8768    3.9467   H         1 RES1   0.0000
   114 H57      -5.0529   -0.5891    4.9548   H         1 RES1   0.0000
   115 H58      -1.3806   -3.2673    4.6369   H         1 RES1   0.0000
   116 H59      -0.4609   -2.1440    5.6085   H         1 RES1   0.0000
   117 H60       0.9971   -0.3839    4.9968   H         1 RES1   0.0000
   118 H61      -0.0098    0.5212    3.8306   H         1 RES1   0.0000
   119 H62       4.4413    0.0851    5.2180   H         1 RES1   0.0000
   120 H63       2.9431   -0.8095    5.3356   H         1 RES1   0.0000
   121 H64       2.4922    0.6182    6.9947   H         1 RES1   0.0000
   122 H65       1.9973    2.5952    4.7331   H         1 RES1   0.0000
   123 H66       1.7449    2.9958    6.4158   H         1 RES1   0.0000
   124 H67       0.8192    1.7065    5.6940   H         1 RES1   0.0000
   125 H68       4.4277    2.7428    6.0171   H         1 RES1   0.0000
   126 H69       4.8954    1.3526    6.9978   H         1 RES1   0.0000
   127 H70       3.7635    2.5362    7.6160   H         1 RES1   0.0000
   128 H71       4.0669   -0.1427    1.9568   H         1 RES1   0.0000
   129 H72       5.1086   -0.0091    3.3920   H         1 RES1   0.0000
   130 H73       5.9329    1.6521    2.1608   H         1 RES1   0.0000
   131 H74       3.2129    1.9077    0.8932   H         1 RES1   0.0000
   132 H75       4.7832    1.5391    0.1738   H         1 RES1   0.0000
   133 H76       4.4339    3.1826    0.6737   H         1 RES1   0.0000
   134 H77       3.7040    3.1359    3.5917   H         1 RES1   0.0000
   135 H78       5.0917    3.8945    2.8007   H         1 RES1   0.0000
   136 H79       5.3569    2.8194    4.1496   H         1 RES1   0.0000
   137 H80       0.0366   -3.8476    1.4688   H         1 RES1   0.0000
   138 H81       0.7522   -6.2310    1.6483   H         1 RES1   0.0000
   139 H82       1.9264   -7.0082    3.6581   H         1 RES1   0.0000
   140 H83       2.4092   -5.4238    5.4842   H         1 RES1   0.0000
   141 H84       1.6929   -3.0858    5.3191   H         1 RES1   0.0000
   142 C49       8.2785   -1.3614    1.6031   C.3       1 RES1   0.0000
   143 C50       7.6786   -2.1444    0.4403   C.3       1 RES1   0.0000
   144 C51       7.3192   -3.5867    0.8047   C.3       1 RES1   0.0000
   145 C52       6.3199   -3.7144    1.9584   C.3       1 RES1   0.0000
   146 C53       5.0296   -2.8883    1.8268   C.3       1 RES1   0.0000
   147 C54       4.1725   -3.0104    3.0906   C.3       1 RES1   0.0000
   148 C55       4.9187   -2.8312    4.4111   C.3       1 RES1   0.0000
   149 C56       4.2321   -3.3652    0.6088   C.3       1 RES1   0.0000
   150 P3        2.9636   -2.4466   -0.3881   P.3       1 RES1   0.0000
   151 O5        1.6527   -2.0193    0.1901   O.2       1 RES1   0.0000
   152 C57       3.8731   -0.9671   -1.0253   C.3       1 RES1   0.0000
   153 C58       3.0394   -0.1075   -1.9368   C.2       1 RES1   0.0000
   154 O6        1.9332    0.2939   -1.5201   O.2       1 RES1   0.0000
   155 N3        3.5412    0.2378   -3.1341   N.am      1 RES1   0.0000
   156 C59       4.6685   -0.4461   -3.7727   C.3       1 RES1   0.0000
   157 C60       6.1140    0.1030   -3.6446   C.3       1 RES1   0.0000
   158 C61       6.4848    0.6181   -2.2597   C.3       1 RES1   0.0000
   159 C62       6.4741    1.1553   -4.6919   C.3       1 RES1   0.0000
   160 C63       2.6902    1.0208   -4.0245   C.3       1 RES1   0.0000
   161 C64       3.3340    2.2931   -4.5909   C.3       1 RES1   0.0000
   162 C65       2.3030    2.9956   -5.4674   C.3       1 RES1   0.0000
   163 C66       3.8680    3.2460   -3.5240   C.3       1 RES1   0.0000
   164 C67       2.8354   -3.8186   -1.5920   C.ar      1 RES1   0.0000
   165 C68       2.0906   -4.8879   -1.0997   C.ar      1 RES1   0.0000
   166 C69       2.0752   -6.1012   -1.7569   C.ar      1 RES1   0.0000
   167 C70       2.8135   -6.2690   -2.9163   C.ar      1 RES1   0.0000
   168 C71       3.5604   -5.2145   -3.4113   C.ar      1 RES1   0.0000
   169 C72       3.5843   -3.9992   -2.7439   C.ar      1 RES1   0.0000
   170 H85       8.6099   -0.3828    1.2653   H         1 RES1   0.0000
   171 H86       9.1388   -1.8869    2.0064   H         1 RES1   0.0000
   172 H87       7.5553   -1.2203    2.4031   H         1 RES1   0.0000
   173 H88       8.4039   -2.1673   -0.3767   H         1 RES1   0.0000
   174 H89       6.7854   -1.6250    0.0760   H         1 RES1   0.0000
   175 H90       8.2322   -4.1031    1.1055   H         1 RES1   0.0000
   176 H91       6.9565   -4.1015   -0.0900   H         1 RES1   0.0000
   177 H92       6.8287   -3.3922    2.8649   H         1 RES1   0.0000
   178 H93       6.0627   -4.7664    2.0781   H         1 RES1   0.0000
   179 H94       5.3258   -1.8470    1.7041   H         1 RES1   0.0000
   180 H95       3.7188   -4.0011    3.1041   H         1 RES1   0.0000
   181 H96       3.3603   -2.2788    3.0185   H         1 RES1   0.0000
   182 H97       5.5362   -3.6961    4.6338   H         1 RES1   0.0000
   183 H98       4.2076   -2.7252    5.2252   H         1 RES1   0.0000
   184 H99       5.5563   -1.9517    4.4075   H         1 RES1   0.0000
   185 H100      3.7216   -4.2989    0.8663   H         1 RES1   0.0000
   186 H101      4.9516   -3.6116   -0.1793   H         1 RES1   0.0000
   187 H102      4.8487   -1.2444   -1.4045   H         1 RES1   0.0000
   188 H103      3.9917   -0.3728   -0.1142   H         1 RES1   0.0000
   189 H104      4.4332   -0.4896   -4.8396   H         1 RES1   0.0000
   190 H105      4.6699   -1.4773   -3.4172   H         1 RES1   0.0000
   191 H106      6.7405   -0.7687   -3.8593   H         1 RES1   0.0000
   192 H107      5.7756    1.3587   -1.9044   H         1 RES1   0.0000
   193 H108      7.4564    1.0953   -2.3104   H         1 RES1   0.0000
   194 H109      6.5602   -0.1804   -1.5310   H         1 RES1   0.0000
   195 H110      6.1451    2.1451   -4.3994   H         1 RES1   0.0000
   196 H111      6.0624    0.9049   -5.6651   H         1 RES1   0.0000
   197 H112      7.5531    1.1966   -4.8010   H         1 RES1   0.0000
   198 H113      1.7801    1.2570   -3.4654   H         1 RES1   0.0000
   199 H114      2.4161    0.3827   -4.8737   H         1 RES1   0.0000
   200 H115      4.1633    1.9886   -5.2283   H         1 RES1   0.0000
   201 H116      1.4619    3.3307   -4.8660   H         1 RES1   0.0000
   202 H117      1.9404    2.3263   -6.2422   H         1 RES1   0.0000
   203 H118      2.7492    3.8573   -5.9520   H         1 RES1   0.0000
   204 H119      3.0555    3.7554   -3.0175   H         1 RES1   0.0000
   205 H120      4.4930    4.0065   -3.9859   H         1 RES1   0.0000
   206 H121      4.4580    2.7176   -2.7811   H         1 RES1   0.0000
   207 H122      1.5294   -4.7320   -0.1890   H         1 RES1   0.0000
   208 H123      1.5008   -6.9217   -1.3533   H         1 RES1   0.0000
   209 H124      2.8115   -7.2223   -3.4184   H         1 RES1   0.0000
   210 H125      4.1461   -5.3460   -4.3068   H         1 RES1   0.0000
   211 H126      4.2137   -3.2118   -3.1256   H         1 RES1   0.0000
   212 C73      -3.3041    2.9384    3.9752   C.3       1 RES1   0.0000
   213 C74      -4.6198    2.2448    3.6617   C.3       1 RES1   0.0000
   214 C75      -4.5408    1.2833    2.4754   C.3       1 RES1   0.0000
   215 C76      -5.9180    0.6656    2.2614   C.3       1 RES1   0.0000
   216 C77      -6.0753   -0.2474    1.0447   C.3       1 RES1   0.0000
   217 C78      -7.4878   -0.8501    1.0282   C.3       1 RES1   0.0000
   218 C79      -8.5779    0.2114    0.9431   C.3       1 RES1   0.0000
   219 C80      -5.0378   -1.3868    0.9495   C.3       1 RES1   0.0000
   220 P4       -3.6756   -1.0499   -0.2367   P.3       1 RES1   0.0000
   221 O7       -2.5849   -0.1852    0.3142   O.2       1 RES1   0.0000
   222 C81      -2.9681   -2.7405   -0.5704   C.3       1 RES1   0.0000
   223 C82      -1.7371   -2.6669   -1.4572   C.2       1 RES1   0.0000
   224 O8       -1.0003   -1.6686   -1.3496   O.2       1 RES1   0.0000
   225 N4       -1.4455   -3.6585   -2.3194   N.am      1 RES1   0.0000
   226 C83      -0.0903   -3.6495   -2.8791   C.3       1 RES1   0.0000
   227 C84       0.2858   -3.0718   -4.2688   C.3       1 RES1   0.0000
   228 C85      -0.5874   -3.3655   -5.4897   C.3       1 RES1   0.0000
   229 C86       0.5683   -1.5744   -4.1420   C.3       1 RES1   0.0000
   230 C87      -2.0674   -4.9845   -2.2024   C.3       1 RES1   0.0000
   231 C88      -2.1392   -5.8480   -3.4715   C.3       1 RES1   0.0000
   232 C89      -3.2673   -5.4414   -4.4139   C.3       1 RES1   0.0000
   233 C90      -2.3405   -7.3009   -3.0483   C.3       1 RES1   0.0000
   234 C91      -4.6305   -0.2155   -1.5406   C.ar      1 RES1   0.0000
   235 C92      -4.4357    1.1592   -1.5888   C.ar      1 RES1   0.0000
   236 C93      -5.3535    1.9785   -2.2182   C.ar      1 RES1   0.0000
   237 C94      -6.4626    1.4280   -2.8342   C.ar      1 RES1   0.0000
   238 C95      -6.6324    0.0503   -2.8424   C.ar      1 RES1   0.0000
   239 C96      -5.7388   -0.7686   -2.1724   C.ar      1 RES1   0.0000
   240 H127     -3.4277    3.5919    4.8340   H         1 RES1   0.0000
   241 H128     -2.9876    3.5413    3.1286   H         1 RES1   0.0000
   242 H129     -2.5270    2.2142    4.2100   H         1 RES1   0.0000
   243 H130     -5.3830    2.9978    3.4568   H         1 RES1   0.0000
   244 H131     -4.9478    1.6860    4.5395   H         1 RES1   0.0000
   245 H132     -3.8089    0.5014    2.6904   H         1 RES1   0.0000
   246 H133     -4.2335    1.8184    1.5709   H         1 RES1   0.0000
   247 H134     -6.6199    1.4906    2.1366   H         1 RES1   0.0000
   248 H135     -6.2122    0.1286    3.1610   H         1 RES1   0.0000
   249 H136     -6.0031    0.3993    0.1680   H         1 RES1   0.0000
   250 H137     -7.6382   -1.4604    1.9217   H         1 RES1   0.0000
   251 H138     -7.5804   -1.4989    0.1547   H         1 RES1   0.0000
   252 H139     -8.6408    0.7860    1.8612   H         1 RES1   0.0000
   253 H140     -9.5451   -0.2531    0.7750   H         1 RES1   0.0000
   254 H141     -8.3761    0.8946    0.1201   H         1 RES1   0.0000
   255 H142     -5.5341   -2.2946    0.6008   H         1 RES1   0.0000
   256 H143     -4.6177   -1.6128    1.9247   H         1 RES1   0.0000
   257 H144     -3.7449   -3.4183   -0.9103   H         1 RES1   0.0000
   258 H145     -2.6136   -3.0762    0.4136   H         1 RES1   0.0000
   259 H146      0.2506   -4.6799   -2.8476   H         1 RES1   0.0000
   260 H147      0.5156   -3.0637   -2.1775   H         1 RES1   0.0000
   261 H148      1.2474   -3.5595   -4.4765   H         1 RES1   0.0000
   262 H149     -1.5065   -2.7881   -5.4969   H         1 RES1   0.0000
   263 H150     -0.8218   -4.4231   -5.5739   H         1 RES1   0.0000
   264 H151     -0.0303   -3.0878   -6.3854   H         1 RES1   0.0000
   265 H152     -0.1857   -1.0837   -3.5329   H         1 RES1   0.0000
   266 H153      0.5981   -1.1075   -5.1244   H         1 RES1   0.0000
   267 H154      1.5283   -1.4399   -3.6484   H         1 RES1   0.0000
   268 H155     -3.0821   -4.8842   -1.8273   H         1 RES1   0.0000
   269 H156     -1.4976   -5.5377   -1.4425   H         1 RES1   0.0000
   270 H157     -1.1889   -5.7792   -4.0045   H         1 RES1   0.0000
   271 H158     -4.2214   -5.4039   -3.8959   H         1 RES1   0.0000
   272 H159     -3.3511   -6.1656   -5.2177   H         1 RES1   0.0000
   273 H160     -3.0815   -4.4791   -4.8670   H         1 RES1   0.0000
   274 H161     -3.2517   -7.4130   -2.4693   H         1 RES1   0.0000
   275 H162     -1.5060   -7.6600   -2.4545   H         1 RES1   0.0000
   276 H163     -2.4246   -7.9287   -3.9277   H         1 RES1   0.0000
   277 H164     -3.5624    1.5659   -1.1084   H         1 RES1   0.0000
   278 H165     -5.2195    3.0492   -2.1915   H         1 RES1   0.0000
   279 H166     -7.2044    2.0686   -3.2870   H         1 RES1   0.0000
   280 H167     -7.4809   -0.3804   -3.3535   H         1 RES1   0.0000
   281 H168     -5.9133   -1.8341   -2.1586   H         1 RES1   0.0000
   282 O9       -1.2146    1.2141    2.0737   O.3       1 RES1   0.0000
   283 H169     -2.0933    0.8541    1.8516   H         1 RES1   0.0000
   284 H170     -1.2377    2.1514    1.8335   H         1 RES1   0.0000
@<TRIPOS>BOND
     1     1    11    1
     2     1    14    1
     3     1    81    1
     4     1    84    1
     5     1   151    1
     6     1   154    1
     7     1   221    1
     8     1   224    1
     9     1   282    1
    10     2     3    1
    11     2    30    1
    12     2    31    1
    13     2    32    1
    14     3     4    1
    15     3    33    1
    16     3    34    1
    17     4     5    1
    18     4    35    1
    19     4    36    1
    20     5     6    1
    21     5    37    1
    22     5    38    1
    23     6     7    1
    24     6     9    1
    25     6    39    1
    26     7     8    1
    27     7    40    1
    28     7    41    1
    29     8    42    1
    30     8    43    1
    31     8    44    1
    32     9    10    1
    33     9    45    1
    34     9    46    1
    35    10    11    2
    36    10    12    1
    37    10    24    1
    38    12    13    1
    39    12    47    1
    40    12    48    1
    41    13    14    2
    42    13    15    1
    43    15    16    1
    44    15    20    1
    45    16    17    1
    46    16    49    1
    47    16    50    1
    48    17    18    1
    49    17    19    1
    50    17    51    1
    51    18    52    1
    52    18    53    1
    53    18    54    1
    54    19    55    1
    55    19    56    1
    56    19    57    1
    57    20    21    1
    58    20    58    1
    59    20    59    1
    60    21    22    1
    61    21    23    1
    62    21    60    1
    63    22    61    1
    64    22    62    1
    65    22    63    1
    66    23    64    1
    67    23    65    1
    68    23    66    1
    69    24    25    1
    70    24    29    2
    71    25    26    2
    72    25    67    1
    73    26    27    1
    74    26    68    1
    75    27    28    2
    76    27    69    1
    77    28    29    1
    78    28    70    1
    79    29    71    1
    80    72    73    1
    81    72   100    1
    82    72   101    1
    83    72   102    1
    84    73    74    1
    85    73   103    1
    86    73   104    1
    87    74    75    1
    88    74   105    1
    89    74   106    1
    90    75    76    1
    91    75   107    1
    92    75   108    1
    93    76    77    1
    94    76    79    1
    95    76   109    1
    96    77    78    1
    97    77   110    1
    98    77   111    1
    99    78   112    1
   100    78   113    1
   101    78   114    1
   102    79    80    1
   103    79   115    1
   104    79   116    1
   105    80    81    2
   106    80    82    1
   107    80    94    1
   108    82    83    1
   109    82   117    1
   110    82   118    1
   111    83    84    2
   112    83    85    1
   113    85    86    1
   114    85    90    1
   115    86    87    1
   116    86   119    1
   117    86   120    1
   118    87    88    1
   119    87    89    1
   120    87   121    1
   121    88   122    1
   122    88   123    1
   123    88   124    1
   124    89   125    1
   125    89   126    1
   126    89   127    1
   127    90    91    1
   128    90   128    1
   129    90   129    1
   130    91    92    1
   131    91    93    1
   132    91   130    1
   133    92   131    1
   134    92   132    1
   135    92   133    1
   136    93   134    1
   137    93   135    1
   138    93   136    1
   139    94    95    1
   140    94    99    2
   141    95    96    2
   142    95   137    1
   143    96    97    1
   144    96   138    1
   145    97    98    2
   146    97   139    1
   147    98    99    1
   148    98   140    1
   149    99   141    1
   150   142   143    1
   151   142   170    1
   152   142   171    1
   153   142   172    1
   154   143   144    1
   155   143   173    1
   156   143   174    1
   157   144   145    1
   158   144   175    1
   159   144   176    1
   160   145   146    1
   161   145   177    1
   162   145   178    1
   163   146   147    1
   164   146   149    1
   165   146   179    1
   166   147   148    1
   167   147   180    1
   168   147   181    1
   169   148   182    1
   170   148   183    1
   171   148   184    1
   172   149   150    1
   173   149   185    1
   174   149   186    1
   175   150   151    2
   176   150   152    1
   177   150   164    1
   178   152   153    1
   179   152   187    1
   180   152   188    1
   181   153   154    2
   182   153   155    1
   183   155   156    1
   184   155   160    1
   185   156   157    1
   186   156   189    1
   187   156   190    1
   188   157   158    1
   189   157   159    1
   190   157   191    1
   191   158   192    1
   192   158   193    1
   193   158   194    1
   194   159   195    1
   195   159   196    1
   196   159   197    1
   197   160   161    1
   198   160   198    1
   199   160   199    1
   200   161   162    1
   201   161   163    1
   202   161   200    1
   203   162   201    1
   204   162   202    1
   205   162   203    1
   206   163   204    1
   207   163   205    1
   208   163   206    1
   209   164   165    1
   210   164   169    2
   211   165   166    2
   212   165   207    1
   213   166   167    1
   214   166   208    1
   215   167   168    2
   216   167   209    1
   217   168   169    1
   218   168   210    1
   219   169   211    1
   220   212   213    1
   221   212   240    1
   222   212   241    1
   223   212   242    1
   224   213   214    1
   225   213   243    1
   226   213   244    1
   227   214   215    1
   228   214   245    1
   229   214   246    1
   230   215   216    1
   231   215   247    1
   232   215   248    1
   233   216   217    1
   234   216   219    1
   235   216   249    1
   236   217   218    1
   237   217   250    1
   238   217   251    1
   239   218   252    1
   240   218   253    1
   241   218   254    1
   242   219   220    1
   243   219   255    1
   244   219   256    1
   245   220   221    2
   246   220   222    1
   247   220   234    1
   248   222   223    1
   249   222   257    1
   250   222   258    1
   251   223   224    2
   252   223   225    1
   253   225   226    1
   254   225   230    1
   255   226   227    1
   256   226   259    1
   257   226   260    1
   258   227   228    1
   259   227   229    1
   260   227   261    1
   261   228   262    1
   262   228   263    1
   263   228   264    1
   264   229   265    1
   265   229   266    1
   266   229   267    1
   267   230   231    1
   268   230   268    1
   269   230   269    1
   270   231   232    1
   271   231   233    1
   272   231   270    1
   273   232   271    1
   274   232   272    1
   275   232   273    1
   276   233   274    1
   277   233   275    1
   278   233   276    1
   279   234   235    1
   280   234   239    2
   281   235   236    2
   282   235   277    1
   283   236   237    1
   284   236   278    1
   285   237   238    2
   286   237   279    1
   287   238   239    1
   288   238   280    1
   289   239   281    1
   290   282   283    1
   291   282   284    1
@<TRIPOS>SUBSTRUCTURE
     1 RES1      284 GROUP             0 ****  ****    0  
