@<TRIPOS>MOLECULE
cn9_YICLED_0_nunpairedes_0_charge_3 Charge: 3 Unpaired_Electrons: 6 XTB_Unpaired_Electrons: 0 XTB_Charge: 3
   268   273     1     0     0
SMALL
NoCharges
****
Generated from Architector

@<TRIPOS>ATOM
     1 Eu1       0.0932   -0.1728    0.1661   Eu        1 RES1   0.0000
     2 C1       -5.2317    3.0889    8.5635   C.3       1 RES1   0.0000
     3 C2       -3.9626    3.4531    7.8035   C.3       1 RES1   0.0000
     4 C3       -2.8930    4.0243    8.7312   C.3       1 RES1   0.0000
     5 C4       -1.5258    4.2348    8.0727   C.3       1 RES1   0.0000
     6 C5       -1.4824    5.3512    7.0179   C.3       1 RES1   0.0000
     7 C6       -1.8361    4.9503    5.5797   C.3       1 RES1   0.0000
     8 C7       -0.6306    4.5833    4.7061   C.3       1 RES1   0.0000
     9 C8        0.0734    3.3008    5.1703   C.3       1 RES1   0.0000
    10 N1        0.9481    2.7428    4.1356   N.am      1 RES1   0.0000
    11 C9        2.3485    3.1698    4.2693   C.3       1 RES1   0.0000
    12 C10       3.0188    3.7536    3.0306   C.3       1 RES1   0.0000
    13 C11       2.1778    4.7930    2.3028   C.3       1 RES1   0.0000
    14 C12       2.9605    5.4121    1.1464   C.3       1 RES1   0.0000
    15 C13       2.1023    6.3533    0.3041   C.3       1 RES1   0.0000
    16 C14       0.9978    5.6371   -0.4705   C.3       1 RES1   0.0000
    17 C15       0.3835    6.5197   -1.5579   C.3       1 RES1   0.0000
    18 C16      -0.1729    7.8346   -1.0271   C.3       1 RES1   0.0000
    19 C17       0.4973    1.9311    3.1772   C.2       1 RES1   0.0000
    20 O1        1.1347    1.5560    2.1721   O.2       1 RES1   0.0000
    21 C18      -0.9512    1.4477    3.2890   C.3       1 RES1   0.0000
    22 N2       -1.1418    0.1795    2.5670   N.4       1 RES1   0.0000
    23 C19      -0.8599   -0.9572    3.4432   C.3       1 RES1   0.0000
    24 P1       -0.9180   -2.5292    2.4338   P.3       1 RES1   0.0000
    25 O2       -0.5477   -2.1386    1.0277   O.2       1 RES1   0.0000
    26 C20      -2.6178   -3.2354    2.4521   C.3       1 RES1   0.0000
    27 C21      -2.8558   -4.2358    1.3098   C.3       1 RES1   0.0000
    28 C22      -3.0858   -3.5738   -0.0509   C.3       1 RES1   0.0000
    29 C23      -3.2656   -4.6131   -1.1526   C.3       1 RES1   0.0000
    30 C24       0.3404   -3.5780    3.2623   C.3       1 RES1   0.0000
    31 C25       0.0022   -5.0524    3.4912   C.3       1 RES1   0.0000
    32 C26       1.2218   -5.8336    3.9952   C.3       1 RES1   0.0000
    33 C27       1.6286   -5.4709    5.4162   C.3       1 RES1   0.0000
    34 H1       -5.9838    2.6927    7.8854   H         1 RES1   0.0000
    35 H2       -5.0260    2.3389    9.3226   H         1 RES1   0.0000
    36 H3       -5.6441    3.9647    9.0561   H         1 RES1   0.0000
    37 H4       -3.5692    2.5561    7.3132   H         1 RES1   0.0000
    38 H5       -4.2117    4.1861    7.0339   H         1 RES1   0.0000
    39 H6       -3.2428    4.9706    9.1445   H         1 RES1   0.0000
    40 H7       -2.7571    3.3379    9.5693   H         1 RES1   0.0000
    41 H8       -0.8250    4.4998    8.8689   H         1 RES1   0.0000
    42 H9       -1.1857    3.2886    7.6452   H         1 RES1   0.0000
    43 H10      -2.1718    6.1307    7.3403   H         1 RES1   0.0000
    44 H11      -0.4870    5.7998    7.0142   H         1 RES1   0.0000
    45 H12      -2.5467    4.1232    5.5842   H         1 RES1   0.0000
    46 H13      -2.3256    5.7970    5.0954   H         1 RES1   0.0000
    47 H14      -0.9668    4.4560    3.6744   H         1 RES1   0.0000
    48 H15       0.0790    5.4115    4.7150   H         1 RES1   0.0000
    49 H16       0.6825    3.5191    6.0476   H         1 RES1   0.0000
    50 H17      -0.6784    2.5770    5.4837   H         1 RES1   0.0000
    51 H18       2.3574    3.9352    5.0433   H         1 RES1   0.0000
    52 H19       2.9417    2.3271    4.6457   H         1 RES1   0.0000
    53 H20       3.9600    4.1997    3.3563   H         1 RES1   0.0000
    54 H21       3.2527    2.9556    2.3315   H         1 RES1   0.0000
    55 H22       1.2787    4.3097    1.9181   H         1 RES1   0.0000
    56 H23       1.8708    5.5848    2.9873   H         1 RES1   0.0000
    57 H24       3.8046    5.9714    1.5524   H         1 RES1   0.0000
    58 H25       3.3688    4.6181    0.5116   H         1 RES1   0.0000
    59 H26       1.6588    7.1015    0.9596   H         1 RES1   0.0000
    60 H27       2.7472    6.8772   -0.4021   H         1 RES1   0.0000
    61 H28       1.4145    4.7383   -0.9410   H         1 RES1   0.0000
    62 H29       0.2138    5.3154    0.2185   H         1 RES1   0.0000
    63 H30       1.1441    6.7366   -2.3090   H         1 RES1   0.0000
    64 H31      -0.4161    5.9609   -2.0537   H         1 RES1   0.0000
    65 H32       0.6265    8.4808   -0.6789   H         1 RES1   0.0000
    66 H33      -0.7034    8.3587   -1.8166   H         1 RES1   0.0000
    67 H34      -0.8614    7.6644   -0.2038   H         1 RES1   0.0000
    68 H35      -1.2694    1.3163    4.3281   H         1 RES1   0.0000
    69 H36      -1.5693    2.2307    2.8310   H         1 RES1   0.0000
    70 H37      -2.1269    0.1378    2.2984   H         1 RES1   0.0000
    71 H38       0.1689   -0.8588    3.8055   H         1 RES1   0.0000
    72 H39      -1.5371   -0.9772    4.3086   H         1 RES1   0.0000
    73 H40      -2.7822   -3.7165    3.4160   H         1 RES1   0.0000
    74 H41      -3.3368   -2.4148    2.3665   H         1 RES1   0.0000
    75 H42      -2.0021   -4.9066    1.2184   H         1 RES1   0.0000
    76 H43      -3.7322   -4.8409    1.5553   H         1 RES1   0.0000
    77 H44      -3.9856   -2.9500   -0.0004   H         1 RES1   0.0000
    78 H45      -2.2227   -2.9446   -0.2899   H         1 RES1   0.0000
    79 H46      -4.1634   -5.2014   -0.9842   H         1 RES1   0.0000
    80 H47      -3.3393   -4.1401   -2.1278   H         1 RES1   0.0000
    81 H48      -2.4183   -5.2923   -1.1750   H         1 RES1   0.0000
    82 H49       1.2204   -3.4908    2.6192   H         1 RES1   0.0000
    83 H50       0.5681   -3.1094    4.2223   H         1 RES1   0.0000
    84 H51      -0.8062   -5.1486    4.2180   H         1 RES1   0.0000
    85 H52      -0.3277   -5.4996    2.5514   H         1 RES1   0.0000
    86 H53       0.9771   -6.8947    3.9586   H         1 RES1   0.0000
    87 H54       2.0569   -5.6666    3.3137   H         1 RES1   0.0000
    88 H55       0.8179   -5.6765    6.1098   H         1 RES1   0.0000
    89 H56       2.4881   -6.0622    5.7142   H         1 RES1   0.0000
    90 H57       1.8958   -4.4193    5.4976   H         1 RES1   0.0000
    91 C28      -7.1974   -1.8692   -2.7903   C.3       1 RES1   0.0000
    92 C29      -6.1026   -2.1497   -3.8143   C.3       1 RES1   0.0000
    93 C30      -6.6824   -2.6879   -5.1225   C.3       1 RES1   0.0000
    94 C31      -5.6672   -2.8526   -6.2628   C.3       1 RES1   0.0000
    95 C32      -5.0555   -4.2526   -6.3917   C.3       1 RES1   0.0000
    96 C33      -4.2592   -4.7964   -5.2013   C.3       1 RES1   0.0000
    97 C34      -2.7870   -4.3719   -5.1322   C.3       1 RES1   0.0000
    98 C35      -2.5331   -2.8554   -5.0764   C.3       1 RES1   0.0000
    99 N3       -1.3872   -2.4719   -4.2523   N.am      1 RES1   0.0000
   100 C36      -0.0675   -2.6351   -4.8704   C.3       1 RES1   0.0000
   101 C37       0.3122   -3.9025   -5.6462   C.3       1 RES1   0.0000
   102 C38       0.5366   -5.2221   -4.8999   C.3       1 RES1   0.0000
   103 C39       1.4233   -6.1631   -5.7276   C.3       1 RES1   0.0000
   104 C40       2.0629   -7.2941   -4.9095   C.3       1 RES1   0.0000
   105 C41       3.4368   -6.9251   -4.3434   C.3       1 RES1   0.0000
   106 C42       4.2012   -8.1057   -3.7362   C.3       1 RES1   0.0000
   107 C43       3.6152   -8.6275   -2.4296   C.3       1 RES1   0.0000
   108 C44      -1.4638   -1.6801   -3.1761   C.2       1 RES1   0.0000
   109 O3       -0.4848   -1.2212   -2.5628   O.2       1 RES1   0.0000
   110 C45      -2.8479   -1.2387   -2.7207   C.3       1 RES1   0.0000
   111 N4       -2.7448   -0.4100   -1.5188   N.4       1 RES1   0.0000
   112 C46      -3.6028    0.7581   -1.6024   C.3       1 RES1   0.0000
   113 P2       -3.3344    1.6982   -0.0504   P.3       1 RES1   0.0000
   114 O4       -1.8756    1.5378    0.3056   O.2       1 RES1   0.0000
   115 C47      -4.4950    0.8466    1.1186   C.3       1 RES1   0.0000
   116 C48      -4.5058    1.3255    2.5744   C.3       1 RES1   0.0000
   117 C49      -4.6762    0.1762    3.5716   C.3       1 RES1   0.0000
   118 C50      -4.5284    0.6588    5.0065   C.3       1 RES1   0.0000
   119 C51      -3.9155    3.3890   -0.4707   C.3       1 RES1   0.0000
   120 C52      -4.5054    4.2211    0.6658   C.3       1 RES1   0.0000
   121 C53      -3.4451    4.6403    1.6808   C.3       1 RES1   0.0000
   122 C54      -2.6285    5.8339    1.2083   C.3       1 RES1   0.0000
   123 H58      -6.7702   -1.5839   -1.8278   H         1 RES1   0.0000
   124 H59      -7.8419   -1.0644   -3.1338   H         1 RES1   0.0000
   125 H60      -7.8121   -2.7535   -2.6411   H         1 RES1   0.0000
   126 H61      -5.5590   -1.2214   -4.0215   H         1 RES1   0.0000
   127 H62      -5.4033   -2.8710   -3.3845   H         1 RES1   0.0000
   128 H63      -7.1719   -3.6437   -4.9382   H         1 RES1   0.0000
   129 H64      -7.4535   -1.9882   -5.4466   H         1 RES1   0.0000
   130 H65      -6.1872   -2.6667   -7.2053   H         1 RES1   0.0000
   131 H66      -4.8924   -2.0882   -6.1866   H         1 RES1   0.0000
   132 H67      -5.8802   -4.9420   -6.5763   H         1 RES1   0.0000
   133 H68      -4.4195   -4.2756   -7.2796   H         1 RES1   0.0000
   134 H69      -4.7730   -4.5649   -4.2685   H         1 RES1   0.0000
   135 H70      -4.2489   -5.8858   -5.2838   H         1 RES1   0.0000
   136 H71      -2.3467   -4.8328   -4.2469   H         1 RES1   0.0000
   137 H72      -2.2905   -4.7927   -6.0048   H         1 RES1   0.0000
   138 H73      -2.3510   -2.4794   -6.0860   H         1 RES1   0.0000
   139 H74      -3.4350   -2.3810   -4.7002   H         1 RES1   0.0000
   140 H75       0.0375   -1.8083   -5.5859   H         1 RES1   0.0000
   141 H76       0.6388   -2.4673   -4.0610   H         1 RES1   0.0000
   142 H77      -0.3777   -4.0591   -6.4739   H         1 RES1   0.0000
   143 H78       1.2743   -3.6410   -6.0996   H         1 RES1   0.0000
   144 H79       1.0285   -5.0317   -3.9537   H         1 RES1   0.0000
   145 H80      -0.4064   -5.7230   -4.6901   H         1 RES1   0.0000
   146 H81       0.8304   -6.5895   -6.5331   H         1 RES1   0.0000
   147 H82       2.2204   -5.5880   -6.2021   H         1 RES1   0.0000
   148 H83       1.3871   -7.5871   -4.1056   H         1 RES1   0.0000
   149 H84       2.1980   -8.1628   -5.5539   H         1 RES1   0.0000
   150 H85       4.0458   -6.5260   -5.1584   H         1 RES1   0.0000
   151 H86       3.3415   -6.1406   -3.5881   H         1 RES1   0.0000
   152 H87       4.2346   -8.9189   -4.4632   H         1 RES1   0.0000
   153 H88       5.2319   -7.7918   -3.5461   H         1 RES1   0.0000
   154 H89       2.5882   -8.9610   -2.5620   H         1 RES1   0.0000
   155 H90       4.1964   -9.4771   -2.0788   H         1 RES1   0.0000
   156 H91       3.6468   -7.8572   -1.6587   H         1 RES1   0.0000
   157 H92      -3.2598   -0.6261   -3.5273   H         1 RES1   0.0000
   158 H93      -3.5241   -2.0780   -2.5681   H         1 RES1   0.0000
   159 H94      -3.0443   -0.9735   -0.7235   H         1 RES1   0.0000
   160 H95      -3.2770    1.3808   -2.4409   H         1 RES1   0.0000
   161 H96      -4.6611    0.5082   -1.7516   H         1 RES1   0.0000
   162 H97      -5.4880    0.9322    0.6768   H         1 RES1   0.0000
   163 H98      -4.2211   -0.2157    1.0799   H         1 RES1   0.0000
   164 H99      -3.5761    1.8497    2.7945   H         1 RES1   0.0000
   165 H100     -5.3185    2.0352    2.7299   H         1 RES1   0.0000
   166 H101     -5.6532   -0.2902    3.4383   H         1 RES1   0.0000
   167 H102     -3.9225   -0.5948    3.3738   H         1 RES1   0.0000
   168 H103     -5.2769    1.4089    5.2427   H         1 RES1   0.0000
   169 H104     -4.6510   -0.1652    5.7015   H         1 RES1   0.0000
   170 H105     -3.5468    1.1014    5.1615   H         1 RES1   0.0000
   171 H106     -3.0585    3.8969   -0.9118   H         1 RES1   0.0000
   172 H107     -4.6711    3.2532   -1.2477   H         1 RES1   0.0000
   173 H108     -4.9627    5.1141    0.2326   H         1 RES1   0.0000
   174 H109     -5.2969    3.6597    1.1613   H         1 RES1   0.0000
   175 H110     -3.9318    4.8911    2.6233   H         1 RES1   0.0000
   176 H111     -2.7729    3.7935    1.8511   H         1 RES1   0.0000
   177 H112     -3.2728    6.6930    1.0338   H         1 RES1   0.0000
   178 H113     -1.8986    6.1101    1.9658   H         1 RES1   0.0000
   179 H114     -2.1021    5.6064    0.2849   H         1 RES1   0.0000
   180 C55      -0.3688   -1.0670   -8.5258   C.3       1 RES1   0.0000
   181 C56      -0.3485    0.3388   -7.9359   C.3       1 RES1   0.0000
   182 C57       0.7622    0.6231   -6.9179   C.3       1 RES1   0.0000
   183 C58       2.1941    0.4971   -7.4549   C.3       1 RES1   0.0000
   184 C59       2.8060   -0.9128   -7.4001   C.3       1 RES1   0.0000
   185 C60       3.8233   -1.1320   -6.2740   C.3       1 RES1   0.0000
   186 C61       3.1844   -0.9618   -4.8939   C.3       1 RES1   0.0000
   187 C62       3.9459   -1.6128   -3.7259   C.3       1 RES1   0.0000
   188 N5        3.0425   -1.9828   -2.6362   N.am      1 RES1   0.0000
   189 C63       2.5731   -3.3711   -2.5308   C.3       1 RES1   0.0000
   190 C64       2.6043   -4.0538   -1.1583   C.3       1 RES1   0.0000
   191 C65       1.6212   -5.2327   -1.1773   C.3       1 RES1   0.0000
   192 C66       1.4433   -5.8866    0.1942   C.3       1 RES1   0.0000
   193 C67       0.9667   -7.3432    0.1041   C.3       1 RES1   0.0000
   194 C68      -0.5216   -7.5414   -0.2175   C.3       1 RES1   0.0000
   195 C69      -1.3513   -7.8211    1.0345   C.3       1 RES1   0.0000
   196 C70      -2.8188   -8.1041    0.7412   C.3       1 RES1   0.0000
   197 C71       2.3526   -1.0853   -1.9398   C.2       1 RES1   0.0000
   198 O5        1.5041   -1.4246   -1.0983   O.2       1 RES1   0.0000
   199 C72       2.5496    0.4125   -2.1606   C.3       1 RES1   0.0000
   200 N6        2.1106    1.1415   -0.9618   N.4       1 RES1   0.0000
   201 C73       3.1952    1.2794    0.0235   C.3       1 RES1   0.0000
   202 P3        3.4452   -0.2268    1.1246   P.3       1 RES1   0.0000
   203 O6        2.1292   -0.9036    1.3656   O.2       1 RES1   0.0000
   204 C74       4.1822    0.4772    2.6479   C.3       1 RES1   0.0000
   205 C75       4.9031   -0.5152    3.5549   C.3       1 RES1   0.0000
   206 C76       3.9822   -1.6624    3.9529   C.3       1 RES1   0.0000
   207 C77       4.6902   -2.6436    4.8755   C.3       1 RES1   0.0000
   208 C78       4.7657   -1.1636    0.2358   C.3       1 RES1   0.0000
   209 C79       5.1491   -2.5550    0.7425   C.3       1 RES1   0.0000
   210 C80       6.1338   -3.1877   -0.2486   C.3       1 RES1   0.0000
   211 C81       6.6899   -4.5387    0.1835   C.3       1 RES1   0.0000
   212 H115     -1.2365   -1.1791   -9.1724   H         1 RES1   0.0000
   213 H116      0.5194   -1.2516   -9.1239   H         1 RES1   0.0000
   214 H117     -0.4303   -1.8280   -7.7490   H         1 RES1   0.0000
   215 H118     -0.2631    1.0531   -8.7538   H         1 RES1   0.0000
   216 H119     -1.3099    0.5275   -7.4469   H         1 RES1   0.0000
   217 H120      0.6139    1.6515   -6.5764   H         1 RES1   0.0000
   218 H121      0.6342   -0.0194   -6.0450   H         1 RES1   0.0000
   219 H122      2.1943    0.8504   -8.4843   H         1 RES1   0.0000
   220 H123      2.8416    1.1762   -6.8956   H         1 RES1   0.0000
   221 H124      2.0162   -1.6567   -7.3101   H         1 RES1   0.0000
   222 H125      3.3255   -1.1125   -8.3363   H         1 RES1   0.0000
   223 H126      4.2304   -2.1398   -6.3687   H         1 RES1   0.0000
   224 H127      4.6526   -0.4327   -6.3889   H         1 RES1   0.0000
   225 H128      3.0474    0.1024   -4.7154   H         1 RES1   0.0000
   226 H129      2.2005   -1.4245   -4.9252   H         1 RES1   0.0000
   227 H130      4.4352   -2.5238   -4.0702   H         1 RES1   0.0000
   228 H131      4.7241   -0.9472   -3.3419   H         1 RES1   0.0000
   229 H132      3.1214   -3.9659   -3.2596   H         1 RES1   0.0000
   230 H133      1.5159   -3.3595   -2.7979   H         1 RES1   0.0000
   231 H134      3.6044   -4.4130   -0.9226   H         1 RES1   0.0000
   232 H135      2.2829   -3.3472   -0.3929   H         1 RES1   0.0000
   233 H136      0.6478   -4.8742   -1.5173   H         1 RES1   0.0000
   234 H137      1.9727   -5.9851   -1.8823   H         1 RES1   0.0000
   235 H138      2.4014   -5.8776    0.7191   H         1 RES1   0.0000
   236 H139      0.7447   -5.2864    0.7785   H         1 RES1   0.0000
   237 H140      1.5689   -7.8439   -0.6524   H         1 RES1   0.0000
   238 H141      1.1803   -7.8413    1.0510   H         1 RES1   0.0000
   239 H142     -0.6364   -8.3927   -0.8905   H         1 RES1   0.0000
   240 H143     -0.9104   -6.6643   -0.7388   H         1 RES1   0.0000
   241 H144     -0.9245   -8.6815    1.5477   H         1 RES1   0.0000
   242 H145     -1.2813   -6.9742    1.7197   H         1 RES1   0.0000
   243 H146     -2.9233   -9.0405    0.2006   H         1 RES1   0.0000
   244 H147     -3.3747   -8.1905    1.6719   H         1 RES1   0.0000
   245 H148     -3.2606   -7.3122    0.1424   H         1 RES1   0.0000
   246 H149      3.5845    0.6624   -2.4203   H         1 RES1   0.0000
   247 H150      1.8917    0.6852   -2.9954   H         1 RES1   0.0000
   248 H151      1.8615    2.0896   -1.2598   H         1 RES1   0.0000
   249 H152      4.1460    1.5289   -0.4738   H         1 RES1   0.0000
   250 H153      2.9297    2.1075    0.6837   H         1 RES1   0.0000
   251 H154      4.8581    1.2853    2.3676   H         1 RES1   0.0000
   252 H155      3.3284    0.8848    3.1884   H         1 RES1   0.0000
   253 H156      5.8001   -0.9035    3.0703   H         1 RES1   0.0000
   254 H157      5.2344    0.0135    4.4517   H         1 RES1   0.0000
   255 H158      3.0979   -1.2529    4.4518   H         1 RES1   0.0000
   256 H159      3.6400   -2.1707    3.0457   H         1 RES1   0.0000
   257 H160      4.9628   -2.1565    5.8083   H         1 RES1   0.0000
   258 H161      4.0546   -3.4955    5.1002   H         1 RES1   0.0000
   259 H162      5.5975   -3.0144    4.4078   H         1 RES1   0.0000
   260 H163      4.4405   -1.2633   -0.7999   H         1 RES1   0.0000
   261 H164      5.6447   -0.5151    0.2482   H         1 RES1   0.0000
   262 H165      5.6239   -2.5005    1.7199   H         1 RES1   0.0000
   263 H166      4.2513   -3.1651    0.8396   H         1 RES1   0.0000
   264 H167      5.6392   -3.3006   -1.2162   H         1 RES1   0.0000
   265 H168      6.9715   -2.5021   -0.3870   H         1 RES1   0.0000
   266 H169      5.9053   -5.2790    0.3234   H         1 RES1   0.0000
   267 H170      7.3641   -4.9051   -0.5843   H         1 RES1   0.0000
   268 H171      7.2546   -4.4547    1.1080   H         1 RES1   0.0000
@<TRIPOS>BOND
     1     1    20    1
     2     1    22    1
     3     1    25    1
     4     1   109    1
     5     1   111    1
     6     1   114    1
     7     1   198    1
     8     1   200    1
     9     1   203    1
    10     2     3    1
    11     2    34    1
    12     2    35    1
    13     2    36    1
    14     3     4    1
    15     3    37    1
    16     3    38    1
    17     4     5    1
    18     4    39    1
    19     4    40    1
    20     5     6    1
    21     5    41    1
    22     5    42    1
    23     6     7    1
    24     6    43    1
    25     6    44    1
    26     7     8    1
    27     7    45    1
    28     7    46    1
    29     8     9    1
    30     8    47    1
    31     8    48    1
    32     9    10    1
    33     9    49    1
    34     9    50    1
    35    10    11    1
    36    10    19    1
    37    11    12    1
    38    11    51    1
    39    11    52    1
    40    12    13    1
    41    12    53    1
    42    12    54    1
    43    13    14    1
    44    13    55    1
    45    13    56    1
    46    14    15    1
    47    14    57    1
    48    14    58    1
    49    15    16    1
    50    15    59    1
    51    15    60    1
    52    16    17    1
    53    16    61    1
    54    16    62    1
    55    17    18    1
    56    17    63    1
    57    17    64    1
    58    18    65    1
    59    18    66    1
    60    18    67    1
    61    19    20    2
    62    19    21    1
    63    21    22    1
    64    21    68    1
    65    21    69    1
    66    22    23    1
    67    22    70    1
    68    23    24    1
    69    23    71    1
    70    23    72    1
    71    24    25    2
    72    24    26    1
    73    24    30    1
    74    26    27    1
    75    26    73    1
    76    26    74    1
    77    27    28    1
    78    27    75    1
    79    27    76    1
    80    28    29    1
    81    28    77    1
    82    28    78    1
    83    29    79    1
    84    29    80    1
    85    29    81    1
    86    30    31    1
    87    30    82    1
    88    30    83    1
    89    31    32    1
    90    31    84    1
    91    31    85    1
    92    32    33    1
    93    32    86    1
    94    32    87    1
    95    33    88    1
    96    33    89    1
    97    33    90    1
    98    91    92    1
    99    91   123    1
   100    91   124    1
   101    91   125    1
   102    92    93    1
   103    92   126    1
   104    92   127    1
   105    93    94    1
   106    93   128    1
   107    93   129    1
   108    94    95    1
   109    94   130    1
   110    94   131    1
   111    95    96    1
   112    95   132    1
   113    95   133    1
   114    96    97    1
   115    96   134    1
   116    96   135    1
   117    97    98    1
   118    97   136    1
   119    97   137    1
   120    98    99    1
   121    98   138    1
   122    98   139    1
   123    99   100    1
   124    99   108    1
   125   100   101    1
   126   100   140    1
   127   100   141    1
   128   101   102    1
   129   101   142    1
   130   101   143    1
   131   102   103    1
   132   102   144    1
   133   102   145    1
   134   103   104    1
   135   103   146    1
   136   103   147    1
   137   104   105    1
   138   104   148    1
   139   104   149    1
   140   105   106    1
   141   105   150    1
   142   105   151    1
   143   106   107    1
   144   106   152    1
   145   106   153    1
   146   107   154    1
   147   107   155    1
   148   107   156    1
   149   108   109    2
   150   108   110    1
   151   110   111    1
   152   110   157    1
   153   110   158    1
   154   111   112    1
   155   111   159    1
   156   112   113    1
   157   112   160    1
   158   112   161    1
   159   113   114    2
   160   113   115    1
   161   113   119    1
   162   115   116    1
   163   115   162    1
   164   115   163    1
   165   116   117    1
   166   116   164    1
   167   116   165    1
   168   117   118    1
   169   117   166    1
   170   117   167    1
   171   118   168    1
   172   118   169    1
   173   118   170    1
   174   119   120    1
   175   119   171    1
   176   119   172    1
   177   120   121    1
   178   120   173    1
   179   120   174    1
   180   121   122    1
   181   121   175    1
   182   121   176    1
   183   122   177    1
   184   122   178    1
   185   122   179    1
   186   180   181    1
   187   180   212    1
   188   180   213    1
   189   180   214    1
   190   181   182    1
   191   181   215    1
   192   181   216    1
   193   182   183    1
   194   182   217    1
   195   182   218    1
   196   183   184    1
   197   183   219    1
   198   183   220    1
   199   184   185    1
   200   184   221    1
   201   184   222    1
   202   185   186    1
   203   185   223    1
   204   185   224    1
   205   186   187    1
   206   186   225    1
   207   186   226    1
   208   187   188    1
   209   187   227    1
   210   187   228    1
   211   188   189    1
   212   188   197    1
   213   189   190    1
   214   189   229    1
   215   189   230    1
   216   190   191    1
   217   190   231    1
   218   190   232    1
   219   191   192    1
   220   191   233    1
   221   191   234    1
   222   192   193    1
   223   192   235    1
   224   192   236    1
   225   193   194    1
   226   193   237    1
   227   193   238    1
   228   194   195    1
   229   194   239    1
   230   194   240    1
   231   195   196    1
   232   195   241    1
   233   195   242    1
   234   196   243    1
   235   196   244    1
   236   196   245    1
   237   197   198    2
   238   197   199    1
   239   199   200    1
   240   199   246    1
   241   199   247    1
   242   200   201    1
   243   200   248    1
   244   201   202    1
   245   201   249    1
   246   201   250    1
   247   202   203    2
   248   202   204    1
   249   202   208    1
   250   204   205    1
   251   204   251    1
   252   204   252    1
   253   205   206    1
   254   205   253    1
   255   205   254    1
   256   206   207    1
   257   206   255    1
   258   206   256    1
   259   207   257    1
   260   207   258    1
   261   207   259    1
   262   208   209    1
   263   208   260    1
   264   208   261    1
   265   209   210    1
   266   209   262    1
   267   209   263    1
   268   210   211    1
   269   210   264    1
   270   210   265    1
   271   211   266    1
   272   211   267    1
   273   211   268    1
@<TRIPOS>SUBSTRUCTURE
     1 RES1      268 GROUP             0 ****  ****    0  
