@<TRIPOS>MOLECULE
capped_square_antiprismatic_0_nunpairedes_0_charge_1 Charge: 1 Unpaired_Electrons: 6 XTB_Unpaired_Electrons: 0 XTB_Charge: 1
   122   128     1     0     0
SMALL
NoCharges
****
Generated from Architector

@<TRIPOS>ATOM
     1 Eu1      -0.1949   -1.2600   -0.4083   Eu        1 RES1   0.0000
     2 C1        5.2170   -1.9323   -4.5318   C.3       1 RES1   0.0000
     3 C2        6.1133   -0.8063   -4.0300   C.3       1 RES1   0.0000
     4 C3        7.0860   -1.2677   -2.9451   C.3       1 RES1   0.0000
     5 C4        6.4369   -1.8489   -1.6888   C.3       1 RES1   0.0000
     6 C5        5.5818   -0.8355   -0.9275   C.3       1 RES1   0.0000
     7 C6        5.1870   -1.3666    0.4504   C.3       1 RES1   0.0000
     8 C7        4.4767   -0.3324    1.3202   C.3       1 RES1   0.0000
     9 C8        3.0521   -0.0439    0.8476   C.3       1 RES1   0.0000
    10 N1        2.3734    0.8920    1.7271   N.am      1 RES1   0.0000
    11 C9        2.6512    2.2985    1.5043   C.3       1 RES1   0.0000
    12 C10       3.3159    2.9397    2.7252   C.3       1 RES1   0.0000
    13 C11       3.4969    4.4550    2.5953   C.3       1 RES1   0.0000
    14 C12       4.5365    4.9575    1.5838   C.3       1 RES1   0.0000
    15 C13       5.9882    4.9711    2.0741   C.3       1 RES1   0.0000
    16 C14       6.7052    3.6228    2.1664   C.3       1 RES1   0.0000
    17 C15       6.8063    2.8499    0.8514   C.3       1 RES1   0.0000
    18 C16       7.6970    3.5399   -0.1728   C.3       1 RES1   0.0000
    19 C17       1.4177    0.4450    2.5667   C.2       1 RES1   0.0000
    20 S1        1.2036   -1.1722    2.9223   S.3       1 RES1   0.0000
    21 C18       0.2350    1.3098    2.6766   C.ar      1 RES1   0.0000
    22 C19      -0.0797    2.6381    2.7784   C.ar      1 RES1   0.0000
    23 C20      -1.0719    3.0472    1.8535   C.ar      1 RES1   0.0000
    24 C21      -1.5003    2.0295    1.0351   C.ar      1 RES1   0.0000
    25 C22      -1.8314    1.9018   -0.3644   C.2       1 RES1   0.0000
    26 S2       -2.5246    0.4115   -0.8520   S.3       1 RES1   0.0000
    27 N2       -1.3833    2.7865   -1.2486   N.am      1 RES1   0.0000
    28 C23      -1.3724    2.4174   -2.6571   C.3       1 RES1   0.0000
    29 C24      -0.2402    1.4279   -2.9774   C.3       1 RES1   0.0000
    30 C25       1.1750    1.9603   -2.7163   C.3       1 RES1   0.0000
    31 C26       1.5561    3.0997   -3.6644   C.3       1 RES1   0.0000
    32 C27       3.0309    3.4881   -3.5540   C.3       1 RES1   0.0000
    33 C28       3.4078    4.6568   -4.4691   C.3       1 RES1   0.0000
    34 C29       2.8392    5.9995   -4.0138   C.3       1 RES1   0.0000
    35 C30       3.3166    7.1526   -4.8886   C.3       1 RES1   0.0000
    36 C31      -0.8194    4.0769   -0.9134   C.3       1 RES1   0.0000
    37 C32      -1.8882    5.1726   -0.8137   C.3       1 RES1   0.0000
    38 C33      -1.3048    6.5892   -0.8732   C.3       1 RES1   0.0000
    39 C34      -0.5459    6.9742   -2.1474   C.3       1 RES1   0.0000
    40 C35      -1.3900    7.2992   -3.3869   C.3       1 RES1   0.0000
    41 C36      -2.0407    6.1130   -4.1182   C.3       1 RES1   0.0000
    42 C37      -3.5480    5.9828   -3.9005   C.3       1 RES1   0.0000
    43 C38      -4.1031    4.7245   -4.5566   C.3       1 RES1   0.0000
    44 S3       -0.9640    0.4884    1.6890   S.2       1 RES1   0.0000
    45 H1        4.6666   -1.6190   -5.4167   H         1 RES1   0.0000
    46 H2        4.4978   -2.2373   -3.7742   H         1 RES1   0.0000
    47 H3        5.8240   -2.7950   -4.7959   H         1 RES1   0.0000
    48 H4        5.5017    0.0179   -3.6584   H         1 RES1   0.0000
    49 H5        6.7001   -0.4190   -4.8662   H         1 RES1   0.0000
    50 H6        7.7167   -0.4246   -2.6557   H         1 RES1   0.0000
    51 H7        7.7402   -2.0289   -3.3717   H         1 RES1   0.0000
    52 H8        7.2383   -2.1976   -1.0326   H         1 RES1   0.0000
    53 H9        5.8307   -2.7167   -1.9507   H         1 RES1   0.0000
    54 H10       4.6846   -0.6110   -1.5080   H         1 RES1   0.0000
    55 H11       6.1521    0.0891   -0.8029   H         1 RES1   0.0000
    56 H12       6.0889   -1.6799    0.9791   H         1 RES1   0.0000
    57 H13       4.5498   -2.2459    0.3414   H         1 RES1   0.0000
    58 H14       5.0481    0.5981    1.3132   H         1 RES1   0.0000
    59 H15       4.4140   -0.6967    2.3469   H         1 RES1   0.0000
    60 H16       2.4831   -0.9955    0.8151   H         1 RES1   0.0000
    61 H17       3.0629    0.3854   -0.1633   H         1 RES1   0.0000
    62 H18       1.7284    2.8419    1.2688   H         1 RES1   0.0000
    63 H19       3.3103    2.3722    0.6407   H         1 RES1   0.0000
    64 H20       4.2737    2.4585    2.8974   H         1 RES1   0.0000
    65 H21       2.6964    2.7350    3.6004   H         1 RES1   0.0000
    66 H22       3.7638    4.8437    3.5797   H         1 RES1   0.0000
    67 H23       2.5277    4.8872    2.3296   H         1 RES1   0.0000
    68 H24       4.2773    5.9944    1.3559   H         1 RES1   0.0000
    69 H25       4.4586    4.4085    0.6459   H         1 RES1   0.0000
    70 H26       6.0098    5.4345    3.0627   H         1 RES1   0.0000
    71 H27       6.5576    5.6184    1.4046   H         1 RES1   0.0000
    72 H28       6.2277    2.9999    2.9247   H         1 RES1   0.0000
    73 H29       7.7176    3.8172    2.5240   H         1 RES1   0.0000
    74 H30       5.8124    2.7037    0.4220   H         1 RES1   0.0000
    75 H31       7.2222    1.8639    1.0704   H         1 RES1   0.0000
    76 H32       7.2801    4.4955   -0.4776   H         1 RES1   0.0000
    77 H33       7.8049    2.9221   -1.0606   H         1 RES1   0.0000
    78 H34       8.6840    3.7127    0.2468   H         1 RES1   0.0000
    79 H35       0.4139    3.3347    3.4279   H         1 RES1   0.0000
    80 H36      -1.4320    4.0588    1.7894   H         1 RES1   0.0000
    81 H37      -1.2611    3.3148   -3.2692   H         1 RES1   0.0000
    82 H38      -2.3305    1.9492   -2.8896   H         1 RES1   0.0000
    83 H39      -0.3304    1.1596   -4.0326   H         1 RES1   0.0000
    84 H40      -0.3857    0.4961   -2.3820   H         1 RES1   0.0000
    85 H41       1.8751    1.1342   -2.8639   H         1 RES1   0.0000
    86 H42       1.2806    2.2874   -1.6745   H         1 RES1   0.0000
    87 H43       0.9417    3.9789   -3.4659   H         1 RES1   0.0000
    88 H44       1.3550    2.7844   -4.6887   H         1 RES1   0.0000
    89 H45       3.6399    2.6231   -3.8239   H         1 RES1   0.0000
    90 H46       3.2648    3.7500   -2.5185   H         1 RES1   0.0000
    91 H47       3.0598    4.4462   -5.4811   H         1 RES1   0.0000
    92 H48       4.4961    4.7340   -4.5040   H         1 RES1   0.0000
    93 H49       3.1416    6.1849   -2.9810   H         1 RES1   0.0000
    94 H50       1.7488    5.9767   -4.0472   H         1 RES1   0.0000
    95 H51       4.4010    7.2308   -4.8654   H         1 RES1   0.0000
    96 H52       2.8962    8.0946   -4.5401   H         1 RES1   0.0000
    97 H53       3.0074    7.0008   -5.9203   H         1 RES1   0.0000
    98 H54      -0.1202    4.3511   -1.6991   H         1 RES1   0.0000
    99 H55      -0.2488    4.0141    0.0167   H         1 RES1   0.0000
   100 H56      -2.4428    5.0694    0.1195   H         1 RES1   0.0000
   101 H57      -2.6022    5.0290   -1.6188   H         1 RES1   0.0000
   102 H58      -0.6272    6.7173   -0.0254   H         1 RES1   0.0000
   103 H59      -2.1222    7.2997   -0.7376   H         1 RES1   0.0000
   104 H60       0.1947    6.2115   -2.3959   H         1 RES1   0.0000
   105 H61       0.0212    7.8780   -1.9103   H         1 RES1   0.0000
   106 H62      -0.7205    7.8032   -4.0879   H         1 RES1   0.0000
   107 H63      -2.1604    8.0187   -3.1081   H         1 RES1   0.0000
   108 H64      -1.5429    5.1851   -3.8297   H         1 RES1   0.0000
   109 H65      -1.8738    6.2285   -5.1900   H         1 RES1   0.0000
   110 H66      -4.0398    6.8582   -4.3243   H         1 RES1   0.0000
   111 H67      -3.7882    5.9729   -2.8365   H         1 RES1   0.0000
   112 H68      -3.9853    4.7692   -5.6358   H         1 RES1   0.0000
   113 H69      -5.1599    4.6117   -4.3338   H         1 RES1   0.0000
   114 H70      -3.5881    3.8349   -4.1985   H         1 RES1   0.0000
   115 N3        0.8322   -2.3675   -2.1943   N.3       1 RES1   0.0000
   116 O1        1.4625   -3.2785   -2.5853   O.2       1 RES1   0.0000
   117 O2       -0.4084   -2.3845   -2.1176   O.co2     1 RES1   0.0000
   118 O3        1.3625   -1.2912   -1.8120   O.co2     1 RES1   0.0000
   119 N4       -0.5987   -3.3314    0.7620   N.3       1 RES1   0.0000
   120 O4       -0.8171   -4.4064    1.1823   O.2       1 RES1   0.0000
   121 O5        0.5589   -2.9524    0.4507   O.co2     1 RES1   0.0000
   122 O6       -1.4946   -2.4756    0.5977   O.co2     1 RES1   0.0000
@<TRIPOS>BOND
     1     1    10    1
     2     1    20    1
     3     1    26    1
     4     1    27    1
     5     1    44    1
     6     1   117    1
     7     1   118    1
     8     1   121    1
     9     1   122    1
    10     2     3    1
    11     2    45    1
    12     2    46    1
    13     2    47    1
    14     3     4    1
    15     3    48    1
    16     3    49    1
    17     4     5    1
    18     4    50    1
    19     4    51    1
    20     5     6    1
    21     5    52    1
    22     5    53    1
    23     6     7    1
    24     6    54    1
    25     6    55    1
    26     7     8    1
    27     7    56    1
    28     7    57    1
    29     8     9    1
    30     8    58    1
    31     8    59    1
    32     9    10    1
    33     9    60    1
    34     9    61    1
    35    10    11    1
    36    10    19    1
    37    11    12    1
    38    11    62    1
    39    11    63    1
    40    12    13    1
    41    12    64    1
    42    12    65    1
    43    13    14    1
    44    13    66    1
    45    13    67    1
    46    14    15    1
    47    14    68    1
    48    14    69    1
    49    15    16    1
    50    15    70    1
    51    15    71    1
    52    16    17    1
    53    16    72    1
    54    16    73    1
    55    17    18    1
    56    17    74    1
    57    17    75    1
    58    18    76    1
    59    18    77    1
    60    18    78    1
    61    19    20    2
    62    19    21    1
    63    21    22    2
    64    21    44    1
    65    22    23    1
    66    22    79    1
    67    23    24    2
    68    23    80    1
    69    24    25    1
    70    24    44    1
    71    25    26    2
    72    25    27    1
    73    27    28    1
    74    27    36    1
    75    28    29    1
    76    28    81    1
    77    28    82    1
    78    29    30    1
    79    29    83    1
    80    29    84    1
    81    30    31    1
    82    30    85    1
    83    30    86    1
    84    31    32    1
    85    31    87    1
    86    31    88    1
    87    32    33    1
    88    32    89    1
    89    32    90    1
    90    33    34    1
    91    33    91    1
    92    33    92    1
    93    34    35    1
    94    34    93    1
    95    34    94    1
    96    35    95    1
    97    35    96    1
    98    35    97    1
    99    36    37    1
   100    36    98    1
   101    36    99    1
   102    37    38    1
   103    37   100    1
   104    37   101    1
   105    38    39    1
   106    38   102    1
   107    38   103    1
   108    39    40    1
   109    39   104    1
   110    39   105    1
   111    40    41    1
   112    40   106    1
   113    40   107    1
   114    41    42    1
   115    41   108    1
   116    41   109    1
   117    42    43    1
   118    42   110    1
   119    42   111    1
   120    43   112    1
   121    43   113    1
   122    43   114    1
   123   115   116    2
   124   115   117    1
   125   115   118    1
   126   119   120    2
   127   119   121    1
   128   119   122    1
@<TRIPOS>SUBSTRUCTURE
     1 RES1      122 GROUP             0 ****  ****    0  
