@<TRIPOS>MOLECULE
tri_tri_mer_capped_0_nunpairedes_0_charge_3 Charge: 3 Unpaired_Electrons: 6 XTB_Unpaired_Electrons: 0 XTB_Charge: 3
    84    97     1     0     0
SMALL
NoCharges
****
Generated from Architector

@<TRIPOS>ATOM
     1 Eu1      -0.0343    0.0355   -0.9964   Eu        1 RES1   0.0000
     2 C1       -1.6406   -1.6551   -4.6092   C.3       1 RES1   0.0000
     3 C2       -2.6541   -0.5187   -4.7885   C.3       1 RES1   0.0000
     4 C3       -4.1018   -1.0550   -4.8607   C.3       1 RES1   0.0000
     5 C4       -2.2683    0.3932   -5.9634   C.3       1 RES1   0.0000
     6 C5       -3.2510    1.5392   -6.1408   C.3       1 RES1   0.0000
     7 C6       -3.5091    2.3990   -4.8884   C.3       1 RES1   0.0000
     8 C7       -4.9809    2.8765   -4.9049   C.3       1 RES1   0.0000
     9 C8       -2.6257    3.6712   -4.8898   C.3       1 RES1   0.0000
    10 C9       -3.1970    1.6821   -3.6168   C.ar      1 RES1   0.0000
    11 N1       -3.1824    2.3812   -2.4891   N.ar      1 RES1   0.0000
    12 C10      -2.6948    1.8193   -1.3963   C.ar      1 RES1   0.0000
    13 C11      -2.1893    2.6837   -0.2959   C.ar      1 RES1   0.0000
    14 C12      -2.7720    3.7991    0.3132   C.ar      1 RES1   0.0000
    15 C13      -1.9695    4.6674    1.0339   C.ar      1 RES1   0.0000
    16 C14      -0.5757    4.4603    1.0846   C.ar      1 RES1   0.0000
    17 C15       0.3800    5.4198    1.5450   C.ar      1 RES1   0.0000
    18 C16       1.7195    5.1930    1.4486   C.ar      1 RES1   0.0000
    19 C17       2.2353    3.9769    0.9068   C.ar      1 RES1   0.0000
    20 C18       3.5982    3.6952    0.6835   C.ar      1 RES1   0.0000
    21 C19       3.9547    2.5939   -0.0696   C.ar      1 RES1   0.0000
    22 C20       2.9508    1.7409   -0.5348   C.ar      1 RES1   0.0000
    23 C21       2.9505    0.8704   -1.7315   C.ar      1 RES1   0.0000
    24 N2        2.0622   -0.1298   -1.7198   N.ar      1 RES1   0.0000
    25 N3        1.7855   -0.7663   -2.8808   N.ar      1 RES1   0.0000
    26 C22       2.3444   -0.3350   -3.9977   C.ar      1 RES1   0.0000
    27 C23       2.8762    1.0079   -3.9848   C.ar      1 RES1   0.0000
    28 N4        3.2888    1.5026   -2.8456   N.ar      1 RES1   0.0000
    29 C24       2.7031    1.9045   -5.1669   C.3       1 RES1   0.0000
    30 C25       1.2388    2.4216   -5.0501   C.3       1 RES1   0.0000
    31 C26       3.6564    3.1003   -5.1117   C.3       1 RES1   0.0000
    32 C27       2.8872    1.0970   -6.4624   C.3       1 RES1   0.0000
    33 C28       2.1697   -0.2484   -6.4449   C.3       1 RES1   0.0000
    34 C29       2.5326   -1.1271   -5.2346   C.3       1 RES1   0.0000
    35 C30       1.8072   -2.4654   -5.2844   C.3       1 RES1   0.0000
    36 C31       4.0648   -1.3802   -5.1267   C.3       1 RES1   0.0000
    37 N5        1.6658    1.8931   -0.1930   N.ar      1 RES1   0.0000
    38 C32       1.3099    2.9977    0.4808   C.ar      1 RES1   0.0000
    39 C33      -0.1043    3.2440    0.5445   C.ar      1 RES1   0.0000
    40 N6       -0.9003    2.3669   -0.0986   N.ar      1 RES1   0.0000
    41 N7       -2.1848    0.5818   -1.3391   N.ar      1 RES1   0.0000
    42 N8       -2.1184   -0.1293   -2.4711   N.ar      1 RES1   0.0000
    43 C34      -2.6670    0.3474   -3.5778   C.ar      1 RES1   0.0000
    44 H1       -1.4835   -2.1895   -5.5461   H         1 RES1   0.0000
    45 H2       -1.9995   -2.3703   -3.8700   H         1 RES1   0.0000
    46 H3       -0.6792   -1.2397   -4.2613   H         1 RES1   0.0000
    47 H4       -4.2028   -1.7339   -5.7011   H         1 RES1   0.0000
    48 H5       -4.8241   -0.2512   -4.9769   H         1 RES1   0.0000
    49 H6       -4.3409   -1.5957   -3.9461   H         1 RES1   0.0000
    50 H7       -2.2287   -0.1737   -6.8900   H         1 RES1   0.0000
    51 H8       -1.2641    0.7923   -5.7885   H         1 RES1   0.0000
    52 H9       -4.1879    1.1347   -6.5161   H         1 RES1   0.0000
    53 H10      -2.8731    2.1982   -6.9175   H         1 RES1   0.0000
    54 H11      -5.1957    3.2757   -5.8956   H         1 RES1   0.0000
    55 H12      -5.1397    3.6616   -4.1698   H         1 RES1   0.0000
    56 H13      -5.6693    2.0562   -4.7107   H         1 RES1   0.0000
    57 H14      -3.0444    4.3903   -5.5863   H         1 RES1   0.0000
    58 H15      -1.6045    3.4379   -5.1782   H         1 RES1   0.0000
    59 H16      -2.6111    4.1316   -3.9059   H         1 RES1   0.0000
    60 H17      -3.8270    3.9871    0.1947   H         1 RES1   0.0000
    61 H18      -2.3947    5.5288    1.5300   H         1 RES1   0.0000
    62 H19       0.0322    6.3578    1.9558   H         1 RES1   0.0000
    63 H20       2.4146    5.9571    1.7610   H         1 RES1   0.0000
    64 H21       4.3500    4.3762    1.0520   H         1 RES1   0.0000
    65 H22       4.9904    2.4182   -0.3075   H         1 RES1   0.0000
    66 H23       0.9327    2.5606   -4.0032   H         1 RES1   0.0000
    67 H24       0.5392    1.7423   -5.5342   H         1 RES1   0.0000
    68 H25       1.1760    3.3838   -5.5532   H         1 RES1   0.0000
    69 H26       3.3863    3.7807   -4.3107   H         1 RES1   0.0000
    70 H27       3.6028    3.6421   -6.0517   H         1 RES1   0.0000
    71 H28       4.6803    2.7820   -4.9419   H         1 RES1   0.0000
    72 H29       3.9492    0.9438   -6.6487   H         1 RES1   0.0000
    73 H30       2.5025    1.6799   -7.2969   H         1 RES1   0.0000
    74 H31       2.4004   -0.7930   -7.3583   H         1 RES1   0.0000
    75 H32       1.0877   -0.0957   -6.4413   H         1 RES1   0.0000
    76 H33       0.7877   -2.3419   -5.6302   H         1 RES1   0.0000
    77 H34       1.7945   -2.9320   -4.3036   H         1 RES1   0.0000
    78 H35       2.3108   -3.1341   -5.9783   H         1 RES1   0.0000
    79 H36       4.6156   -0.4682   -4.8906   H         1 RES1   0.0000
    80 H37       4.4222   -1.7596   -6.0819   H         1 RES1   0.0000
    81 H38       4.2686   -2.1215   -4.3523   H         1 RES1   0.0000
    82 O1       -0.3833   -1.4943    1.0065   O.3       1 RES1   0.0000
    83 H39       0.2590   -2.0796    1.4481   H         1 RES1   0.0000
    84 H40      -1.2039   -1.6582    1.5068   H         1 RES1   0.0000
@<TRIPOS>BOND
     1     1    11    1
     2     1    24    1
     3     1    25    1
     4     1    28    1
     5     1    37    1
     6     1    40    1
     7     1    41    1
     8     1    42    1
     9     1    82    1
    10     2     3    1
    11     2    44    1
    12     2    45    1
    13     2    46    1
    14     3     4    1
    15     3     5    1
    16     3    43    1
    17     4    47    1
    18     4    48    1
    19     4    49    1
    20     5     6    1
    21     5    50    1
    22     5    51    1
    23     6     7    1
    24     6    52    1
    25     6    53    1
    26     7     8    1
    27     7     9    1
    28     7    10    1
    29     8    54    1
    30     8    55    1
    31     8    56    1
    32     9    57    1
    33     9    58    1
    34     9    59    1
    35    10    11    1
    36    10    43    2
    37    11    12    2
    38    12    13    1
    39    12    41    1
    40    13    14    1
    41    13    40    2
    42    14    15    2
    43    14    60    1
    44    15    16    1
    45    15    61    1
    46    16    17    1
    47    16    39    2
    48    17    18    2
    49    17    62    1
    50    18    19    1
    51    18    63    1
    52    19    20    1
    53    19    38    2
    54    20    21    2
    55    20    64    1
    56    21    22    1
    57    21    65    1
    58    22    23    1
    59    22    37    2
    60    23    24    1
    61    23    28    2
    62    24    25    2
    63    25    26    1
    64    26    27    2
    65    26    34    1
    66    27    28    1
    67    27    29    1
    68    29    30    1
    69    29    31    1
    70    29    32    1
    71    30    66    1
    72    30    67    1
    73    30    68    1
    74    31    69    1
    75    31    70    1
    76    31    71    1
    77    32    33    1
    78    32    72    1
    79    32    73    1
    80    33    34    1
    81    33    74    1
    82    33    75    1
    83    34    35    1
    84    34    36    1
    85    35    76    1
    86    35    77    1
    87    35    78    1
    88    36    79    1
    89    36    80    1
    90    36    81    1
    91    37    38    1
    92    38    39    1
    93    39    40    1
    94    41    42    2
    95    42    43    1
    96    82    83    1
    97    82    84    1
@<TRIPOS>SUBSTRUCTURE
     1 RES1       84 GROUP             0 ****  ****    0  
