@<TRIPOS>MOLECULE
am_c3_9H2O_c0_0_nunpairedes_0_charge_3 Charge: 3 Unpaired_Electrons: 6 XTB_Unpaired_Electrons: 0 XTB_Charge: 3
   156   163     1     0     0
SMALL
NoCharges
****
Generated from Architector

@<TRIPOS>ATOM
     1 Eu1       0.0189   -0.1400    0.0720   Eu        1 RES1   0.0000
     2 C1       -3.6478    4.9168   -4.9086   C.3       1 RES1   0.0000
     3 C2       -3.4309    6.4215   -4.8162   C.3       1 RES1   0.0000
     4 C3       -3.0403    6.9086   -3.4123   C.3       1 RES1   0.0000
     5 C4       -1.5297    6.9028   -3.1573   C.3       1 RES1   0.0000
     6 C5       -1.1371    7.3181   -1.7322   C.3       1 RES1   0.0000
     7 C6       -1.5891    6.2935   -0.6869   C.3       1 RES1   0.0000
     8 C7       -0.9965    6.3829    0.7225   C.3       1 RES1   0.0000
     9 C8        0.4362    5.8454    0.9303   C.3       1 RES1   0.0000
    10 N1        0.8770    4.6213    0.2387   N.am      1 RES1   0.0000
    11 C9        1.8336    4.8958   -0.8428   C.3       1 RES1   0.0000
    12 C10       2.8795    3.8381   -1.1812   C.3       1 RES1   0.0000
    13 C11       3.8548    3.5190   -0.0455   C.3       1 RES1   0.0000
    14 C12       5.0402    2.6588   -0.5011   C.3       1 RES1   0.0000
    15 C13       4.6208    1.3385   -1.1470   C.3       1 RES1   0.0000
    16 C14       5.7953    0.4193   -1.4977   C.3       1 RES1   0.0000
    17 C15       6.6215   -0.0798   -0.3129   C.3       1 RES1   0.0000
    18 C16       5.8202   -0.9070    0.6855   C.3       1 RES1   0.0000
    19 C17       0.5132    3.3963    0.5796   C.2       1 RES1   0.0000
    20 O1        0.9287    2.3310    0.0590   O.2       1 RES1   0.0000
    21 C18      -0.4634    3.2240    1.7456   C.3       1 RES1   0.0000
    22 O2       -0.6873    1.8174    1.8195   O.3       1 RES1   0.0000
    23 C19      -0.9050    1.2815    3.1264   C.3       1 RES1   0.0000
    24 C20      -0.3521   -0.1310    3.0120   C.2       1 RES1   0.0000
    25 O3       -0.8118   -0.8442    2.0953   O.2       1 RES1   0.0000
    26 N2        0.6145   -0.5473    3.8368   N.am      1 RES1   0.0000
    27 C21       1.1424   -1.8796    3.5764   C.3       1 RES1   0.0000
    28 C22       2.3348   -1.6778    2.6037   C.3       1 RES1   0.0000
    29 O4        2.1624   -0.4193    1.9289   O.3       1 RES1   0.0000
    30 C23       2.4828    0.6050    2.8817   C.3       1 RES1   0.0000
    31 C24       1.6988    0.3552    4.2038   C.3       1 RES1   0.0000
    32 H1       -4.0156    4.6302   -5.8896   H         1 RES1   0.0000
    33 H2       -4.3819    4.5946   -4.1798   H         1 RES1   0.0000
    34 H3       -2.7354    4.3600   -4.7253   H         1 RES1   0.0000
    35 H4       -4.3639    6.8984   -5.1178   H         1 RES1   0.0000
    36 H5       -2.6615    6.7118   -5.5298   H         1 RES1   0.0000
    37 H6       -3.5778    6.2958   -2.6899   H         1 RES1   0.0000
    38 H7       -3.3967    7.9269   -3.2729   H         1 RES1   0.0000
    39 H8       -1.0812    7.6031   -3.8646   H         1 RES1   0.0000
    40 H9       -1.0981    5.9186   -3.3668   H         1 RES1   0.0000
    41 H10      -1.5867    8.2878   -1.5181   H         1 RES1   0.0000
    42 H11      -0.0562    7.4429   -1.7014   H         1 RES1   0.0000
    43 H12      -1.3940    5.2942   -1.0628   H         1 RES1   0.0000
    44 H13      -2.6652    6.4082   -0.5770   H         1 RES1   0.0000
    45 H14      -1.6872    5.8820    1.4072   H         1 RES1   0.0000
    46 H15      -0.9590    7.4273    1.0354   H         1 RES1   0.0000
    47 H16       0.5835    5.7093    2.0044   H         1 RES1   0.0000
    48 H17       1.1277    6.6199    0.6006   H         1 RES1   0.0000
    49 H18       2.3813    5.7948   -0.5557   H         1 RES1   0.0000
    50 H19       1.2563    5.1283   -1.7429   H         1 RES1   0.0000
    51 H20       3.4512    4.2468   -2.0170   H         1 RES1   0.0000
    52 H21       2.3965    2.9229   -1.5134   H         1 RES1   0.0000
    53 H22       3.3308    2.9923    0.7574   H         1 RES1   0.0000
    54 H23       4.2524    4.4481    0.3673   H         1 RES1   0.0000
    55 H24       5.6670    2.4567    0.3685   H         1 RES1   0.0000
    56 H25       5.6505    3.2179   -1.2116   H         1 RES1   0.0000
    57 H26       4.1045    1.5615   -2.0843   H         1 RES1   0.0000
    58 H27       3.9067    0.8172   -0.4940   H         1 RES1   0.0000
    59 H28       6.4596    0.9581   -2.1749   H         1 RES1   0.0000
    60 H29       5.4047   -0.4435   -2.0461   H         1 RES1   0.0000
    61 H30       7.0803    0.7648    0.2004   H         1 RES1   0.0000
    62 H31       7.4327   -0.6930   -0.7065   H         1 RES1   0.0000
    63 H32       5.0528   -0.3024    1.1669   H         1 RES1   0.0000
    64 H33       6.4811   -1.2974    1.4542   H         1 RES1   0.0000
    65 H34       5.3405   -1.7498    0.1896   H         1 RES1   0.0000
    66 H35      -1.4144    3.7416    1.5821   H         1 RES1   0.0000
    67 H36      -0.0018    3.6253    2.6601   H         1 RES1   0.0000
    68 H37      -1.9831    1.2046    3.3391   H         1 RES1   0.0000
    69 H38      -0.4359    1.9033    3.8933   H         1 RES1   0.0000
    70 H39       0.3529   -2.4776    3.1173   H         1 RES1   0.0000
    71 H40       1.4278   -2.3427    4.5247   H         1 RES1   0.0000
    72 H41       2.3961   -2.4637    1.8556   H         1 RES1   0.0000
    73 H42       3.2898   -1.6546    3.1369   H         1 RES1   0.0000
    74 H43       2.2222    1.5581    2.4198   H         1 RES1   0.0000
    75 H44       3.5638    0.5947    3.0575   H         1 RES1   0.0000
    76 H45       1.3531    1.2844    4.6480   H         1 RES1   0.0000
    77 H46       2.3181   -0.1330    4.9580   H         1 RES1   0.0000
    78 C25      -6.4119    1.8501   -6.2041   C.3       1 RES1   0.0000
    79 C26      -5.3237    0.8803   -6.6476   C.3       1 RES1   0.0000
    80 C27      -3.9430    1.3819   -6.2377   C.3       1 RES1   0.0000
    81 C28      -2.8341    0.3680   -6.5203   C.3       1 RES1   0.0000
    82 C29      -1.5232    0.7412   -5.8212   C.3       1 RES1   0.0000
    83 C30      -0.9745    2.0534   -6.3714   C.3       1 RES1   0.0000
    84 C31       0.3548    2.4985   -5.7750   C.3       1 RES1   0.0000
    85 C32       0.2358    3.1943   -4.4141   C.3       1 RES1   0.0000
    86 N3       -0.3527    2.4743   -3.2797   N.am      1 RES1   0.0000
    87 C33      -1.3100    3.2059   -2.4355   C.3       1 RES1   0.0000
    88 C34      -2.6022    2.5271   -1.9569   C.3       1 RES1   0.0000
    89 C35      -3.5563    3.6077   -1.4317   C.3       1 RES1   0.0000
    90 C36      -4.9972    3.1440   -1.2326   C.3       1 RES1   0.0000
    91 C37      -5.2089    2.1608   -0.0823   C.3       1 RES1   0.0000
    92 C38      -4.6325    2.6594    1.2427   C.3       1 RES1   0.0000
    93 C39      -4.9924    1.7793    2.4382   C.3       1 RES1   0.0000
    94 C40      -4.4445    0.3613    2.2950   C.3       1 RES1   0.0000
    95 C41       0.1518    1.3905   -2.7311   C.2       1 RES1   0.0000
    96 O5       -0.3898    0.8915   -1.7135   O.2       1 RES1   0.0000
    97 C42       1.4062    0.6888   -3.2260   C.3       1 RES1   0.0000
    98 O6        1.4463   -0.6088   -2.6508   O.3       1 RES1   0.0000
    99 C43       0.7384   -1.5930   -3.4299   C.3       1 RES1   0.0000
   100 C44      -0.1099   -2.3207   -2.4101   C.2       1 RES1   0.0000
   101 O7       -1.0192   -1.6979   -1.8459   O.2       1 RES1   0.0000
   102 N4        0.1952   -3.5877   -2.0856   N.am      1 RES1   0.0000
   103 C45       1.5856   -3.9761   -1.9469   C.3       1 RES1   0.0000
   104 C46       2.1160   -3.2090   -0.7064   C.3       1 RES1   0.0000
   105 O8        1.0277   -2.6319    0.0431   O.3       1 RES1   0.0000
   106 C47       0.0347   -3.6371    0.3249   C.3       1 RES1   0.0000
   107 C48      -0.6098   -4.1239   -1.0024   C.3       1 RES1   0.0000
   108 H47      -7.3862    1.5005   -6.5305   H         1 RES1   0.0000
   109 H48      -6.2454    2.8390   -6.6255   H         1 RES1   0.0000
   110 H49      -6.4283    1.9420   -5.1188   H         1 RES1   0.0000
   111 H50      -5.3582    0.7592   -7.7305   H         1 RES1   0.0000
   112 H51      -5.5005   -0.1004   -6.2008   H         1 RES1   0.0000
   113 H52      -3.9529    1.6066   -5.1654   H         1 RES1   0.0000
   114 H53      -3.7432    2.3084   -6.7780   H         1 RES1   0.0000
   115 H54      -2.6602    0.3092   -7.5960   H         1 RES1   0.0000
   116 H55      -3.1570   -0.6222   -6.1841   H         1 RES1   0.0000
   117 H56      -0.7933   -0.0590   -5.9819   H         1 RES1   0.0000
   118 H57      -1.7038    0.8215   -4.7448   H         1 RES1   0.0000
   119 H58      -1.7087    2.8391   -6.2132   H         1 RES1   0.0000
   120 H59      -0.8548    1.9367   -7.4476   H         1 RES1   0.0000
   121 H60       0.7763    3.2622   -6.4301   H         1 RES1   0.0000
   122 H61       1.0659    1.6750   -5.7850   H         1 RES1   0.0000
   123 H62      -0.4050    4.0593   -4.5904   H         1 RES1   0.0000
   124 H63       1.2257    3.5544   -4.1154   H         1 RES1   0.0000
   125 H64      -1.5935    4.0976   -2.9855   H         1 RES1   0.0000
   126 H65      -0.7499    3.4991   -1.5425   H         1 RES1   0.0000
   127 H66      -2.3813    1.8417   -1.1342   H         1 RES1   0.0000
   128 H67      -3.0746    1.9789   -2.7738   H         1 RES1   0.0000
   129 H68      -3.5811    4.4276   -2.1454   H         1 RES1   0.0000
   130 H69      -3.1825    3.9998   -0.4864   H         1 RES1   0.0000
   131 H70      -5.3571    2.6937   -2.1586   H         1 RES1   0.0000
   132 H71      -5.6092    4.0270   -1.0455   H         1 RES1   0.0000
   133 H72      -4.7624    1.2021   -0.3436   H         1 RES1   0.0000
   134 H73      -6.2829    2.0017    0.0269   H         1 RES1   0.0000
   135 H74      -5.0007    3.6701    1.4260   H         1 RES1   0.0000
   136 H75      -3.5398    2.6984    1.1714   H         1 RES1   0.0000
   137 H76      -6.0741    1.7343    2.5493   H         1 RES1   0.0000
   138 H77      -4.5937    2.2445    3.3439   H         1 RES1   0.0000
   139 H78      -5.0409   -0.1992    1.5790   H         1 RES1   0.0000
   140 H79      -4.4799   -0.1690    3.2425   H         1 RES1   0.0000
   141 H80      -3.4078    0.3916    1.9514   H         1 RES1   0.0000
   142 H81       2.2904    1.2027   -2.8271   H         1 RES1   0.0000
   143 H82       1.4769    0.6214   -4.3115   H         1 RES1   0.0000
   144 H83       1.4440   -2.2229   -3.9830   H         1 RES1   0.0000
   145 H84       0.0529   -1.1287   -4.1493   H         1 RES1   0.0000
   146 H85       2.1701   -3.7325   -2.8303   H         1 RES1   0.0000
   147 H86       1.6279   -5.0544   -1.7967   H         1 RES1   0.0000
   148 H87       2.7468   -2.3665   -0.9958   H         1 RES1   0.0000
   149 H88       2.6929   -3.8759   -0.0565   H         1 RES1   0.0000
   150 H89      -0.7124   -3.1785    0.9801   H         1 RES1   0.0000
   151 H90       0.4915   -4.4831    0.8513   H         1 RES1   0.0000
   152 H91      -1.6236   -3.7357   -1.1189   H         1 RES1   0.0000
   153 H92      -0.6398   -5.2117   -1.0744   H         1 RES1   0.0000
   154 O9       -2.5003   -0.3005   -0.1867   O.3       1 RES1   0.0000
   155 H93      -2.7513   -0.2648   -1.1266   H         1 RES1   0.0000
   156 H94      -3.2001   -0.8196    0.2479   H         1 RES1   0.0000
@<TRIPOS>BOND
     1     1    20    1
     2     1    22    1
     3     1    25    1
     4     1    29    1
     5     1    96    1
     6     1    98    1
     7     1   101    1
     8     1   105    1
     9     1   154    1
    10     2     3    1
    11     2    32    1
    12     2    33    1
    13     2    34    1
    14     3     4    1
    15     3    35    1
    16     3    36    1
    17     4     5    1
    18     4    37    1
    19     4    38    1
    20     5     6    1
    21     5    39    1
    22     5    40    1
    23     6     7    1
    24     6    41    1
    25     6    42    1
    26     7     8    1
    27     7    43    1
    28     7    44    1
    29     8     9    1
    30     8    45    1
    31     8    46    1
    32     9    10    1
    33     9    47    1
    34     9    48    1
    35    10    11    1
    36    10    19    1
    37    11    12    1
    38    11    49    1
    39    11    50    1
    40    12    13    1
    41    12    51    1
    42    12    52    1
    43    13    14    1
    44    13    53    1
    45    13    54    1
    46    14    15    1
    47    14    55    1
    48    14    56    1
    49    15    16    1
    50    15    57    1
    51    15    58    1
    52    16    17    1
    53    16    59    1
    54    16    60    1
    55    17    18    1
    56    17    61    1
    57    17    62    1
    58    18    63    1
    59    18    64    1
    60    18    65    1
    61    19    20    2
    62    19    21    1
    63    21    22    1
    64    21    66    1
    65    21    67    1
    66    22    23    1
    67    23    24    1
    68    23    68    1
    69    23    69    1
    70    24    25    2
    71    24    26    1
    72    26    27    1
    73    26    31    1
    74    27    28    1
    75    27    70    1
    76    27    71    1
    77    28    29    1
    78    28    72    1
    79    28    73    1
    80    29    30    1
    81    30    31    1
    82    30    74    1
    83    30    75    1
    84    31    76    1
    85    31    77    1
    86    78    79    1
    87    78   108    1
    88    78   109    1
    89    78   110    1
    90    79    80    1
    91    79   111    1
    92    79   112    1
    93    80    81    1
    94    80   113    1
    95    80   114    1
    96    81    82    1
    97    81   115    1
    98    81   116    1
    99    82    83    1
   100    82   117    1
   101    82   118    1
   102    83    84    1
   103    83   119    1
   104    83   120    1
   105    84    85    1
   106    84   121    1
   107    84   122    1
   108    85    86    1
   109    85   123    1
   110    85   124    1
   111    86    87    1
   112    86    95    1
   113    87    88    1
   114    87   125    1
   115    87   126    1
   116    88    89    1
   117    88   127    1
   118    88   128    1
   119    89    90    1
   120    89   129    1
   121    89   130    1
   122    90    91    1
   123    90   131    1
   124    90   132    1
   125    91    92    1
   126    91   133    1
   127    91   134    1
   128    92    93    1
   129    92   135    1
   130    92   136    1
   131    93    94    1
   132    93   137    1
   133    93   138    1
   134    94   139    1
   135    94   140    1
   136    94   141    1
   137    95    96    2
   138    95    97    1
   139    97    98    1
   140    97   142    1
   141    97   143    1
   142    98    99    1
   143    99   100    1
   144    99   144    1
   145    99   145    1
   146   100   101    2
   147   100   102    1
   148   102   103    1
   149   102   107    1
   150   103   104    1
   151   103   146    1
   152   103   147    1
   153   104   105    1
   154   104   148    1
   155   104   149    1
   156   105   106    1
   157   106   107    1
   158   106   150    1
   159   106   151    1
   160   107   152    1
   161   107   153    1
   162   154   155    1
   163   154   156    1
@<TRIPOS>SUBSTRUCTURE
     1 RES1      156 GROUP             0 ****  ****    0  
