@<TRIPOS>MOLECULE
am_c3_9H2O_c0_0_nunpairedes_0_charge_3 Charge: 3 Unpaired_Electrons: 6 XTB_Unpaired_Electrons: 0 XTB_Charge: 3
   256   267     1     0     0
SMALL
NoCharges
****
Generated from Architector

@<TRIPOS>ATOM
     1 Eu1       0.1772    0.3523    0.9714   Eu        1 RES1   0.0000
     2 C1       -5.9365   -1.8243   -6.0062   C.3       1 RES1   0.0000
     3 C2       -4.5996   -1.4171   -6.6157   C.3       1 RES1   0.0000
     4 C3       -4.4777    0.0445   -7.0668   C.3       1 RES1   0.0000
     5 C4       -4.9388    1.0933   -6.0440   C.3       1 RES1   0.0000
     6 C5       -4.1710    2.4202   -6.0925   C.3       1 RES1   0.0000
     7 C6       -2.8467    2.3863   -5.2952   C.3       1 RES1   0.0000
     8 C7       -2.8322    3.3204   -4.0622   C.3       1 RES1   0.0000
     9 C8       -2.0081    2.7835   -2.8760   C.3       1 RES1   0.0000
    10 N1       -0.9383    3.5944   -2.2501   N.am      1 RES1   0.0000
    11 C9       -0.8177    5.0081   -2.5609   C.3       1 RES1   0.0000
    12 C10      -1.2476    5.9086   -1.3890   C.3       1 RES1   0.0000
    13 C11      -2.7629    5.9589   -1.1463   C.3       1 RES1   0.0000
    14 C12      -3.0686    6.8024    0.1001   C.3       1 RES1   0.0000
    15 C13      -4.5096    6.6605    0.5958   C.3       1 RES1   0.0000
    16 C14      -4.8017    7.5285    1.8380   C.3       1 RES1   0.0000
    17 C15      -4.9699    6.7792    3.1715   C.3       1 RES1   0.0000
    18 C16      -3.7213    6.8657    4.0432   C.3       1 RES1   0.0000
    19 C17      -0.3435    2.9689   -1.2176   C.2       1 RES1   0.0000
    20 O1       -0.8416    1.9006   -0.7843   O.2       1 RES1   0.0000
    21 C18       0.9866    3.3188   -0.5694   C.ar      1 RES1   0.0000
    22 C19       1.7571    4.4725   -0.7708   C.ar      1 RES1   0.0000
    23 C20       2.9879    4.5735   -0.1603   C.ar      1 RES1   0.0000
    24 C21       3.4838    3.5265    0.6325   C.ar      1 RES1   0.0000
    25 C22       4.7605    3.5731    1.2625   C.ar      1 RES1   0.0000
    26 C23       5.2230    2.5350    1.9984   C.ar      1 RES1   0.0000
    27 C24       4.4463    1.3502    2.1331   C.ar      1 RES1   0.0000
    28 C25       4.9161    0.1925    2.7772   C.ar      1 RES1   0.0000
    29 C26       4.1644   -0.9629    2.8050   C.ar      1 RES1   0.0000
    30 C27       2.8805   -0.9527    2.2269   C.ar      1 RES1   0.0000
    31 C28       1.8987   -2.0792    1.9126   C.2       1 RES1   0.0000
    32 O2        0.8218   -1.7203    1.3887   O.2       1 RES1   0.0000
    33 N2        2.1755   -3.3906    1.9674   N.am      1 RES1   0.0000
    34 C29       2.8938   -4.0288    3.0596   C.3       1 RES1   0.0000
    35 C30       2.0337   -3.9835    4.3331   C.3       1 RES1   0.0000
    36 C31       0.9349   -5.0539    4.3818   C.3       1 RES1   0.0000
    37 C32      -0.3037   -4.5963    5.1555   C.3       1 RES1   0.0000
    38 C33      -1.2752   -3.7581    4.3186   C.3       1 RES1   0.0000
    39 C34      -2.1189   -4.5877    3.3505   C.3       1 RES1   0.0000
    40 C35      -3.0539   -3.7094    2.5209   C.3       1 RES1   0.0000
    41 C36      -3.9110   -4.5023    1.5402   C.3       1 RES1   0.0000
    42 C37       1.2278   -4.2132    1.2027   C.3       1 RES1   0.0000
    43 C38       1.4404   -4.0558   -0.3047   C.3       1 RES1   0.0000
    44 C39       0.3411   -4.7346   -1.1253   C.3       1 RES1   0.0000
    45 C40       0.8246   -5.0301   -2.5467   C.3       1 RES1   0.0000
    46 C41      -0.2375   -5.7113   -3.4291   C.3       1 RES1   0.0000
    47 C42       0.2439   -7.0461   -4.0103   C.3       1 RES1   0.0000
    48 C43       0.3082   -8.1729   -2.9733   C.3       1 RES1   0.0000
    49 C44      -1.0702   -8.7274   -2.6268   C.3       1 RES1   0.0000
    50 N3        2.4084    0.1761    1.6967   N.ar      1 RES1   0.0000
    51 C45       3.1471    1.2823    1.5781   C.ar      1 RES1   0.0000
    52 C46       2.6400    2.4049    0.8035   C.ar      1 RES1   0.0000
    53 N4        1.4256    2.3355    0.2309   N.ar      1 RES1   0.0000
    54 H1       -5.9281   -2.8887   -5.7735   H         1 RES1   0.0000
    55 H2       -6.1666   -1.2949   -5.0832   H         1 RES1   0.0000
    56 H3       -6.7390   -1.6405   -6.7142   H         1 RES1   0.0000
    57 H4       -4.4483   -2.0428   -7.4953   H         1 RES1   0.0000
    58 H5       -3.8050   -1.6499   -5.9038   H         1 RES1   0.0000
    59 H6       -5.0563    0.1777   -7.9741   H         1 RES1   0.0000
    60 H7       -3.4337    0.2223   -7.3369   H         1 RES1   0.0000
    61 H8       -4.8203    0.6956   -5.0374   H         1 RES1   0.0000
    62 H9       -5.9983    1.3024   -6.2023   H         1 RES1   0.0000
    63 H10      -4.8080    3.1897   -5.6562   H         1 RES1   0.0000
    64 H11      -3.9869    2.6900   -7.1330   H         1 RES1   0.0000
    65 H12      -2.0080    2.6477   -5.9428   H         1 RES1   0.0000
    66 H13      -2.6670    1.3690   -4.9576   H         1 RES1   0.0000
    67 H14      -3.8597    3.4527   -3.7241   H         1 RES1   0.0000
    68 H15      -2.4970    4.2945   -4.4117   H         1 RES1   0.0000
    69 H16      -1.5182    1.8505   -3.1711   H         1 RES1   0.0000
    70 H17      -2.7015    2.5212   -2.0736   H         1 RES1   0.0000
    71 H18      -1.4629    5.2329   -3.4067   H         1 RES1   0.0000
    72 H19       0.1965    5.2391   -2.8982   H         1 RES1   0.0000
    73 H20      -0.9111    6.9281   -1.5985   H         1 RES1   0.0000
    74 H21      -0.7394    5.5492   -0.4891   H         1 RES1   0.0000
    75 H22      -3.1670    4.9501   -1.0131   H         1 RES1   0.0000
    76 H23      -3.2409    6.4137   -2.0189   H         1 RES1   0.0000
    77 H24      -2.8728    7.8482   -0.1424   H         1 RES1   0.0000
    78 H25      -2.3952    6.5128    0.9141   H         1 RES1   0.0000
    79 H26      -4.6977    5.6072    0.8167   H         1 RES1   0.0000
    80 H27      -5.1921    6.9369   -0.2091   H         1 RES1   0.0000
    81 H28      -5.7090    8.0992    1.6525   H         1 RES1   0.0000
    82 H29      -3.9977    8.2556    1.9630   H         1 RES1   0.0000
    83 H30      -5.2341    5.7326    3.0010   H         1 RES1   0.0000
    84 H31      -5.7977    7.2248    3.7221   H         1 RES1   0.0000
    85 H32      -2.8325    6.6652    3.4503   H         1 RES1   0.0000
    86 H33      -3.7691    6.1611    4.8720   H         1 RES1   0.0000
    87 H34      -3.6162    7.8657    4.4528   H         1 RES1   0.0000
    88 H35       1.4019    5.2978   -1.3643   H         1 RES1   0.0000
    89 H36       3.5918    5.4540   -0.3034   H         1 RES1   0.0000
    90 H37       5.3528    4.4612    1.1378   H         1 RES1   0.0000
    91 H38       6.1871    2.5904    2.4770   H         1 RES1   0.0000
    92 H39       5.9021    0.1913    3.2162   H         1 RES1   0.0000
    93 H40       4.5901   -1.8433    3.2597   H         1 RES1   0.0000
    94 H41       3.8406   -3.5265    3.2409   H         1 RES1   0.0000
    95 H42       3.1191   -5.0607    2.7886   H         1 RES1   0.0000
    96 H43       1.5835   -2.9875    4.3929   H         1 RES1   0.0000
    97 H44       2.6846   -4.1124    5.1978   H         1 RES1   0.0000
    98 H45       1.3395   -5.9509    4.8492   H         1 RES1   0.0000
    99 H46       0.6113   -5.3259    3.3815   H         1 RES1   0.0000
   100 H47       0.0109   -4.0187    6.0255   H         1 RES1   0.0000
   101 H48      -0.8360   -5.4735    5.5217   H         1 RES1   0.0000
   102 H49      -0.7286   -2.9893    3.7608   H         1 RES1   0.0000
   103 H50      -1.9595   -3.2467    4.9985   H         1 RES1   0.0000
   104 H51      -2.7098   -5.3036    3.9211   H         1 RES1   0.0000
   105 H52      -1.4813   -5.1586    2.6757   H         1 RES1   0.0000
   106 H53      -2.4545   -2.9774    1.9679   H         1 RES1   0.0000
   107 H54      -3.7131   -3.1565    3.1959   H         1 RES1   0.0000
   108 H55      -3.2885   -5.0608    0.8456   H         1 RES1   0.0000
   109 H56      -4.5532   -3.8357    0.9654   H         1 RES1   0.0000
   110 H57      -4.5443   -5.2092    2.0687   H         1 RES1   0.0000
   111 H58       0.2061   -3.9106    1.4560   H         1 RES1   0.0000
   112 H59       1.3719   -5.2567    1.4732   H         1 RES1   0.0000
   113 H60       2.3944   -4.5069   -0.5653   H         1 RES1   0.0000
   114 H61       1.4768   -2.9955   -0.5611   H         1 RES1   0.0000
   115 H62      -0.5451   -4.0961   -1.1518   H         1 RES1   0.0000
   116 H63       0.0545   -5.6759   -0.6539   H         1 RES1   0.0000
   117 H64       1.6941   -5.6860   -2.4736   H         1 RES1   0.0000
   118 H65       1.1598   -4.1008   -3.0164   H         1 RES1   0.0000
   119 H66      -0.5146   -5.0524   -4.2549   H         1 RES1   0.0000
   120 H67      -1.1431   -5.8916   -2.8489   H         1 RES1   0.0000
   121 H68       1.2309   -6.9059   -4.4593   H         1 RES1   0.0000
   122 H69      -0.4344   -7.3514   -4.8103   H         1 RES1   0.0000
   123 H70       0.8005   -7.8160   -2.0640   H         1 RES1   0.0000
   124 H71       0.9155   -8.9861   -3.3765   H         1 RES1   0.0000
   125 H72      -1.7055   -7.9665   -2.1763   H         1 RES1   0.0000
   126 H73      -0.9822   -9.5547   -1.9272   H         1 RES1   0.0000
   127 H74      -1.5588   -9.0991   -3.5243   H         1 RES1   0.0000
   128 C47      -2.8690    2.9258    1.4864   C.3       1 RES1   0.0000
   129 C48      -1.5308    3.3451    2.0800   C.3       1 RES1   0.0000
   130 C49      -1.6654    4.0432    3.4375   C.3       1 RES1   0.0000
   131 C50      -2.2031    3.1742    4.5867   C.3       1 RES1   0.0000
   132 C51      -1.4639    3.3960    5.9135   C.3       1 RES1   0.0000
   133 C52      -1.3297    2.1549    6.8016   C.3       1 RES1   0.0000
   134 C53      -0.4871    1.0258    6.1872   C.3       1 RES1   0.0000
   135 C54      -1.1684   -0.3243    5.9363   C.3       1 RES1   0.0000
   136 N5       -2.2363   -0.3783    4.9252   N.am      1 RES1   0.0000
   137 C55      -3.5633   -0.7148    5.4306   C.3       1 RES1   0.0000
   138 C56      -4.4376    0.5118    5.7071   C.3       1 RES1   0.0000
   139 C57      -5.8791    0.1454    6.1032   C.3       1 RES1   0.0000
   140 C58      -6.9546    0.8112    5.2240   C.3       1 RES1   0.0000
   141 C59      -7.4409   -0.0946    4.0908   C.3       1 RES1   0.0000
   142 C60      -8.7128    0.3876    3.3937   C.3       1 RES1   0.0000
   143 C61      -8.5363    1.6316    2.5159   C.3       1 RES1   0.0000
   144 C62      -8.8200    2.9369    3.2451   C.3       1 RES1   0.0000
   145 C63      -1.8735   -0.2416    3.6414   C.2       1 RES1   0.0000
   146 O3       -0.6811    0.0244    3.3520   O.2       1 RES1   0.0000
   147 C64      -2.7965   -0.3617    2.4296   C.ar      1 RES1   0.0000
   148 C65      -4.1971   -0.3734    2.4320   C.ar      1 RES1   0.0000
   149 C66      -4.8944   -0.3082    1.2481   C.ar      1 RES1   0.0000
   150 C67      -4.2150   -0.3219    0.0247   C.ar      1 RES1   0.0000
   151 C68      -4.8962   -0.2561   -1.2244   C.ar      1 RES1   0.0000
   152 C69      -4.2116   -0.3956   -2.3824   C.ar      1 RES1   0.0000
   153 C70      -2.7987   -0.5720   -2.3729   C.ar      1 RES1   0.0000
   154 C71      -2.0611   -0.7331   -3.5573   C.ar      1 RES1   0.0000
   155 C72      -0.6856   -0.7536   -3.5246   C.ar      1 RES1   0.0000
   156 C73      -0.0410   -0.6826   -2.2788   C.ar      1 RES1   0.0000
   157 C74       1.4358   -0.4987   -2.0149   C.2       1 RES1   0.0000
   158 O4        1.7352   -0.2858   -0.8189   O.2       1 RES1   0.0000
   159 N6        2.4057   -0.4661   -2.9310   N.am      1 RES1   0.0000
   160 C75       3.7399   -0.1122   -2.4438   C.3       1 RES1   0.0000
   161 C76       4.5295   -1.2934   -1.8720   C.3       1 RES1   0.0000
   162 C77       4.9042   -2.3497   -2.9143   C.3       1 RES1   0.0000
   163 C78       5.7131   -3.5038   -2.3187   C.3       1 RES1   0.0000
   164 C79       4.8234   -4.4471   -1.5123   C.3       1 RES1   0.0000
   165 C80       5.5794   -5.6573   -0.9431   C.3       1 RES1   0.0000
   166 C81       5.6179   -5.6833    0.5848   C.3       1 RES1   0.0000
   167 C82       6.3967   -4.5188    1.1825   C.3       1 RES1   0.0000
   168 C83       2.3600   -0.6387   -4.3726   C.3       1 RES1   0.0000
   169 C84       2.0474    0.6776   -5.1216   C.3       1 RES1   0.0000
   170 C85       3.0914    1.0648   -6.1804   C.3       1 RES1   0.0000
   171 C86       4.3822    1.7015   -5.6289   C.3       1 RES1   0.0000
   172 C87       5.6333    0.8220   -5.7338   C.3       1 RES1   0.0000
   173 C88       6.8530    1.5485   -5.1570   C.3       1 RES1   0.0000
   174 C89       8.1713    0.7781   -5.2714   C.3       1 RES1   0.0000
   175 C90       8.2156   -0.5023   -4.4458   C.3       1 RES1   0.0000
   176 N7       -0.7351   -0.6574   -1.1381   N.ar      1 RES1   0.0000
   177 C91      -2.0725   -0.5769   -1.1566   C.ar      1 RES1   0.0000
   178 C92      -2.8030   -0.4392    0.0916   C.ar      1 RES1   0.0000
   179 N8       -2.1355   -0.3951    1.2642   N.ar      1 RES1   0.0000
   180 H75      -3.4842    3.7907    1.2662   H         1 RES1   0.0000
   181 H76      -3.4082    2.3000    2.1899   H         1 RES1   0.0000
   182 H77      -2.7182    2.3715    0.5611   H         1 RES1   0.0000
   183 H78      -1.0461    4.0411    1.3894   H         1 RES1   0.0000
   184 H79      -0.8862    2.4467    2.1501   H         1 RES1   0.0000
   185 H80      -2.3370    4.8815    3.2853   H         1 RES1   0.0000
   186 H81      -0.6904    4.4618    3.7044   H         1 RES1   0.0000
   187 H82      -2.1316    2.1304    4.2876   H         1 RES1   0.0000
   188 H83      -3.2597    3.3963    4.7326   H         1 RES1   0.0000
   189 H84      -1.9853    4.1642    6.4862   H         1 RES1   0.0000
   190 H85      -0.4608    3.7789    5.7099   H         1 RES1   0.0000
   191 H86      -2.3142    1.7856    7.0738   H         1 RES1   0.0000
   192 H87      -0.8555    2.4864    7.7253   H         1 RES1   0.0000
   193 H88       0.3382    0.7978    6.8641   H         1 RES1   0.0000
   194 H89      -0.0635    1.3542    5.2450   H         1 RES1   0.0000
   195 H90      -1.5668   -0.6813    6.8832   H         1 RES1   0.0000
   196 H91      -0.3898   -1.0251    5.6137   H         1 RES1   0.0000
   197 H92      -3.4370   -1.2570    6.3682   H         1 RES1   0.0000
   198 H93      -4.0551   -1.3965    4.7387   H         1 RES1   0.0000
   199 H94      -4.4550    1.1577    4.8308   H         1 RES1   0.0000
   200 H95      -3.9941    1.0802    6.5210   H         1 RES1   0.0000
   201 H96      -6.0411    0.4518    7.1350   H         1 RES1   0.0000
   202 H97      -6.0142   -0.9370    6.0674   H         1 RES1   0.0000
   203 H98      -6.5638    1.7476    4.8170   H         1 RES1   0.0000
   204 H99      -7.8184    1.0653    5.8405   H         1 RES1   0.0000
   205 H100     -7.6337   -1.0889    4.5038   H         1 RES1   0.0000
   206 H101     -6.6606   -0.2029    3.3367   H         1 RES1   0.0000
   207 H102     -9.4811    0.5728    4.1434   H         1 RES1   0.0000
   208 H103     -9.0647   -0.4394    2.7749   H         1 RES1   0.0000
   209 H104     -9.2254    1.5511    1.6754   H         1 RES1   0.0000
   210 H105     -7.5240    1.6603    2.1008   H         1 RES1   0.0000
   211 H106     -9.8042    2.8977    3.6991   H         1 RES1   0.0000
   212 H107     -8.8007    3.7727    2.5515   H         1 RES1   0.0000
   213 H108     -8.0925    3.1274    4.0274   H         1 RES1   0.0000
   214 H109     -4.7623   -0.3952    3.3418   H         1 RES1   0.0000
   215 H110     -5.9747   -0.2629    1.2735   H         1 RES1   0.0000
   216 H111     -5.9687   -0.1397   -1.2234   H         1 RES1   0.0000
   217 H112     -4.7263   -0.3901   -3.3281   H         1 RES1   0.0000
   218 H113     -2.5929   -0.8123   -4.4946   H         1 RES1   0.0000
   219 H114     -0.1415   -0.8108   -4.4526   H         1 RES1   0.0000
   220 H115      3.6370    0.6500   -1.6652   H         1 RES1   0.0000
   221 H116      4.2966    0.3012   -3.2810   H         1 RES1   0.0000
   222 H117      3.9514   -1.7360   -1.0589   H         1 RES1   0.0000
   223 H118      5.4580   -0.8873   -1.4601   H         1 RES1   0.0000
   224 H119      5.4996   -1.8735   -3.6950   H         1 RES1   0.0000
   225 H120      4.0093   -2.7771   -3.3709   H         1 RES1   0.0000
   226 H121      6.5146   -3.1123   -1.6895   H         1 RES1   0.0000
   227 H122      6.1745   -4.0698   -3.1299   H         1 RES1   0.0000
   228 H123      4.0126   -4.7898   -2.1617   H         1 RES1   0.0000
   229 H124      4.3736   -3.8870   -0.6897   H         1 RES1   0.0000
   230 H125      6.6019   -5.6574   -1.3191   H         1 RES1   0.0000
   231 H126      5.1106   -6.5785   -1.2920   H         1 RES1   0.0000
   232 H127      6.0870   -6.6146    0.9022   H         1 RES1   0.0000
   233 H128      4.5949   -5.6872    0.9703   H         1 RES1   0.0000
   234 H129      7.4295   -4.5603    0.8521   H         1 RES1   0.0000
   235 H130      6.3919   -4.5739    2.2679   H         1 RES1   0.0000
   236 H131      5.9804   -3.5583    0.8839   H         1 RES1   0.0000
   237 H132      1.6644   -1.4292   -4.6443   H         1 RES1   0.0000
   238 H133      3.3517   -0.9889   -4.6570   H         1 RES1   0.0000
   239 H134      1.9678    1.4916   -4.3970   H         1 RES1   0.0000
   240 H135      1.0803    0.6080   -5.6235   H         1 RES1   0.0000
   241 H136      2.6207    1.7802   -6.8559   H         1 RES1   0.0000
   242 H137      3.3462    0.1924   -6.7820   H         1 RES1   0.0000
   243 H138      4.2403    1.9960   -4.5851   H         1 RES1   0.0000
   244 H139      4.5923    2.6219   -6.1772   H         1 RES1   0.0000
   245 H140      5.8181    0.5871   -6.7832   H         1 RES1   0.0000
   246 H141      5.4832   -0.1239   -5.2063   H         1 RES1   0.0000
   247 H142      6.6639    1.7768   -4.1019   H         1 RES1   0.0000
   248 H143      6.9688    2.4998   -5.6834   H         1 RES1   0.0000
   249 H144      8.9717    1.4400   -4.9352   H         1 RES1   0.0000
   250 H145      8.3679    0.5398   -6.3171   H         1 RES1   0.0000
   251 H146      7.9689   -0.2977   -3.4051   H         1 RES1   0.0000
   252 H147      9.2130   -0.9300   -4.4846   H         1 RES1   0.0000
   253 H148      7.5243   -1.2476   -4.8309   H         1 RES1   0.0000
   254 O5        1.2305    2.1110    3.2960   O.3       1 RES1   0.0000
   255 H149      1.7205    1.6023    3.9516   H         1 RES1   0.0000
   256 H150      0.6461    2.6905    3.8055   H         1 RES1   0.0000
@<TRIPOS>BOND
     1     1    20    1
     2     1    32    1
     3     1    50    1
     4     1    53    1
     5     1   146    1
     6     1   158    1
     7     1   176    1
     8     1   179    1
     9     1   254    1
    10     2     3    1
    11     2    54    1
    12     2    55    1
    13     2    56    1
    14     3     4    1
    15     3    57    1
    16     3    58    1
    17     4     5    1
    18     4    59    1
    19     4    60    1
    20     5     6    1
    21     5    61    1
    22     5    62    1
    23     6     7    1
    24     6    63    1
    25     6    64    1
    26     7     8    1
    27     7    65    1
    28     7    66    1
    29     8     9    1
    30     8    67    1
    31     8    68    1
    32     9    10    1
    33     9    69    1
    34     9    70    1
    35    10    11    1
    36    10    19    1
    37    11    12    1
    38    11    71    1
    39    11    72    1
    40    12    13    1
    41    12    73    1
    42    12    74    1
    43    13    14    1
    44    13    75    1
    45    13    76    1
    46    14    15    1
    47    14    77    1
    48    14    78    1
    49    15    16    1
    50    15    79    1
    51    15    80    1
    52    16    17    1
    53    16    81    1
    54    16    82    1
    55    17    18    1
    56    17    83    1
    57    17    84    1
    58    18    85    1
    59    18    86    1
    60    18    87    1
    61    19    20    2
    62    19    21    1
    63    21    22    1
    64    21    53    2
    65    22    23    2
    66    22    88    1
    67    23    24    1
    68    23    89    1
    69    24    25    1
    70    24    52    2
    71    25    26    2
    72    25    90    1
    73    26    27    1
    74    26    91    1
    75    27    28    1
    76    27    51    2
    77    28    29    2
    78    28    92    1
    79    29    30    1
    80    29    93    1
    81    30    31    1
    82    30    50    2
    83    31    32    2
    84    31    33    1
    85    33    34    1
    86    33    42    1
    87    34    35    1
    88    34    94    1
    89    34    95    1
    90    35    36    1
    91    35    96    1
    92    35    97    1
    93    36    37    1
    94    36    98    1
    95    36    99    1
    96    37    38    1
    97    37   100    1
    98    37   101    1
    99    38    39    1
   100    38   102    1
   101    38   103    1
   102    39    40    1
   103    39   104    1
   104    39   105    1
   105    40    41    1
   106    40   106    1
   107    40   107    1
   108    41   108    1
   109    41   109    1
   110    41   110    1
   111    42    43    1
   112    42   111    1
   113    42   112    1
   114    43    44    1
   115    43   113    1
   116    43   114    1
   117    44    45    1
   118    44   115    1
   119    44   116    1
   120    45    46    1
   121    45   117    1
   122    45   118    1
   123    46    47    1
   124    46   119    1
   125    46   120    1
   126    47    48    1
   127    47   121    1
   128    47   122    1
   129    48    49    1
   130    48   123    1
   131    48   124    1
   132    49   125    1
   133    49   126    1
   134    49   127    1
   135    50    51    1
   136    51    52    1
   137    52    53    1
   138   128   129    1
   139   128   180    1
   140   128   181    1
   141   128   182    1
   142   129   130    1
   143   129   183    1
   144   129   184    1
   145   130   131    1
   146   130   185    1
   147   130   186    1
   148   131   132    1
   149   131   187    1
   150   131   188    1
   151   132   133    1
   152   132   189    1
   153   132   190    1
   154   133   134    1
   155   133   191    1
   156   133   192    1
   157   134   135    1
   158   134   193    1
   159   134   194    1
   160   135   136    1
   161   135   195    1
   162   135   196    1
   163   136   137    1
   164   136   145    1
   165   137   138    1
   166   137   197    1
   167   137   198    1
   168   138   139    1
   169   138   199    1
   170   138   200    1
   171   139   140    1
   172   139   201    1
   173   139   202    1
   174   140   141    1
   175   140   203    1
   176   140   204    1
   177   141   142    1
   178   141   205    1
   179   141   206    1
   180   142   143    1
   181   142   207    1
   182   142   208    1
   183   143   144    1
   184   143   209    1
   185   143   210    1
   186   144   211    1
   187   144   212    1
   188   144   213    1
   189   145   146    2
   190   145   147    1
   191   147   148    1
   192   147   179    2
   193   148   149    2
   194   148   214    1
   195   149   150    1
   196   149   215    1
   197   150   151    1
   198   150   178    2
   199   151   152    2
   200   151   216    1
   201   152   153    1
   202   152   217    1
   203   153   154    1
   204   153   177    2
   205   154   155    2
   206   154   218    1
   207   155   156    1
   208   155   219    1
   209   156   157    1
   210   156   176    2
   211   157   158    2
   212   157   159    1
   213   159   160    1
   214   159   168    1
   215   160   161    1
   216   160   220    1
   217   160   221    1
   218   161   162    1
   219   161   222    1
   220   161   223    1
   221   162   163    1
   222   162   224    1
   223   162   225    1
   224   163   164    1
   225   163   226    1
   226   163   227    1
   227   164   165    1
   228   164   228    1
   229   164   229    1
   230   165   166    1
   231   165   230    1
   232   165   231    1
   233   166   167    1
   234   166   232    1
   235   166   233    1
   236   167   234    1
   237   167   235    1
   238   167   236    1
   239   168   169    1
   240   168   237    1
   241   168   238    1
   242   169   170    1
   243   169   239    1
   244   169   240    1
   245   170   171    1
   246   170   241    1
   247   170   242    1
   248   171   172    1
   249   171   243    1
   250   171   244    1
   251   172   173    1
   252   172   245    1
   253   172   246    1
   254   173   174    1
   255   173   247    1
   256   173   248    1
   257   174   175    1
   258   174   249    1
   259   174   250    1
   260   175   251    1
   261   175   252    1
   262   175   253    1
   263   176   177    1
   264   177   178    1
   265   178   179    1
   266   254   255    1
   267   254   256    1
@<TRIPOS>SUBSTRUCTURE
     1 RES1      256 GROUP             0 ****  ****    0  
