@<TRIPOS>MOLECULE
capped_square_antiprismatic_0_nunpairedes_0_charge_1 Charge: 1 Unpaired_Electrons: 6 XTB_Unpaired_Electrons: 0 XTB_Charge: 1
   100   105     1     0     0
SMALL
NoCharges
****
Generated from Architector

@<TRIPOS>ATOM
     1 Eu1      -0.0251   -0.2167   -0.4279   Eu        1 RES1   0.0000
     2 C1        0.4582   -0.1558   -4.5847   C.3       1 RES1   0.0000
     3 C2       -0.5517    0.9850   -4.6304   C.3       1 RES1   0.0000
     4 C3       -0.1641    2.1173   -3.6819   C.3       1 RES1   0.0000
     5 C4       -1.1055    3.3204   -3.7521   C.3       1 RES1   0.0000
     6 C5       -2.5080    3.0579   -3.1935   C.3       1 RES1   0.0000
     7 C6       -2.5175    2.9178   -1.6727   C.3       1 RES1   0.0000
     8 C7       -3.9045    2.5879   -1.1172   C.3       1 RES1   0.0000
     9 C8       -3.9354    2.5099    0.4203   C.3       1 RES1   0.0000
    10 N1       -4.0158    1.1559    0.9833   N.am      1 RES1   0.0000
    11 C9       -5.2136    0.8554    1.7626   C.3       1 RES1   0.0000
    12 C10      -6.5486    0.9050    1.0046   C.3       1 RES1   0.0000
    13 C11      -7.0127   -0.4237    0.3951   C.3       1 RES1   0.0000
    14 C12      -6.6560   -0.6135   -1.0792   C.3       1 RES1   0.0000
    15 C13      -5.2654   -1.1877   -1.3390   C.3       1 RES1   0.0000
    16 C14      -5.1143   -1.6605   -2.7849   C.3       1 RES1   0.0000
    17 C15      -5.1977   -0.5355   -3.8124   C.3       1 RES1   0.0000
    18 C16      -4.9563   -1.0648   -5.2195   C.3       1 RES1   0.0000
    19 C17      -2.9183    0.4081    0.9754   C.2       1 RES1   0.0000
    20 O1       -1.8585    0.7974    0.4468   O.2       1 RES1   0.0000
    21 C18      -2.9211   -0.9559    1.6833   C.3       1 RES1   0.0000
    22 N2       -1.7291   -1.7194    1.3434   N.4       1 RES1   0.0000
    23 C19      -0.6598   -1.8359    2.2964   C.3       1 RES1   0.0000
    24 P1        1.0801    0.2103    2.6082   P.3       1 RES1   0.0000
    25 O2        0.4605   -1.0777    1.7826   O.2       1 RES1   0.0000
    26 O3        1.7617    0.7572    1.2013   O.3       1 RES1   0.0000
    27 C20       2.2714    2.1062    1.1902   C.3       1 RES1   0.0000
    28 C21       1.3414    3.0090    0.3734   C.3       1 RES1   0.0000
    29 C22       1.3682    4.4605    0.8478   C.3       1 RES1   0.0000
    30 C23       0.3646    5.2992    0.0685   C.3       1 RES1   0.0000
    31 O4       -0.2977    1.1069    2.5717   O.3       1 RES1   0.0000
    32 C24      -0.5020    2.2361    3.4277   C.3       1 RES1   0.0000
    33 C25      -1.8086    2.1237    4.2062   C.3       1 RES1   0.0000
    34 C26      -1.8340    0.9626    5.2019   C.3       1 RES1   0.0000
    35 C27      -0.5570    0.8304    6.0281   C.3       1 RES1   0.0000
    36 H1        0.1620   -0.9565   -5.2576   H         1 RES1   0.0000
    37 H2        0.5297   -0.5762   -3.5732   H         1 RES1   0.0000
    38 H3        1.4481    0.1902   -4.8749   H         1 RES1   0.0000
    39 H4       -1.5344    0.5962   -4.3650   H         1 RES1   0.0000
    40 H5       -0.6066    1.3709   -5.6497   H         1 RES1   0.0000
    41 H6        0.8440    2.4492   -3.9376   H         1 RES1   0.0000
    42 H7       -0.1372    1.7324   -2.6481   H         1 RES1   0.0000
    43 H8       -1.1944    3.6270   -4.7968   H         1 RES1   0.0000
    44 H9       -0.6618    4.1557   -3.2039   H         1 RES1   0.0000
    45 H10      -2.9123    2.1542   -3.6466   H         1 RES1   0.0000
    46 H11      -3.1575    3.8867   -3.4802   H         1 RES1   0.0000
    47 H12      -2.1725    3.8561   -1.2352   H         1 RES1   0.0000
    48 H13      -1.8168    2.1253   -1.3880   H         1 RES1   0.0000
    49 H14      -4.2457    1.6438   -1.5399   H         1 RES1   0.0000
    50 H15      -4.6010    3.3646   -1.4356   H         1 RES1   0.0000
    51 H16      -4.7925    3.0589    0.8119   H         1 RES1   0.0000
    52 H17      -3.0231    2.9697    0.8107   H         1 RES1   0.0000
    53 H18      -5.2506    1.5871    2.5786   H         1 RES1   0.0000
    54 H19      -5.1277   -0.1281    2.2172   H         1 RES1   0.0000
    55 H20      -6.5187    1.6682    0.2293   H         1 RES1   0.0000
    56 H21      -7.2985    1.2194    1.7325   H         1 RES1   0.0000
    57 H22      -8.0986   -0.4591    0.4753   H         1 RES1   0.0000
    58 H23      -6.6323   -1.2611    0.9842   H         1 RES1   0.0000
    59 H24      -6.7662    0.3421   -1.5917   H         1 RES1   0.0000
    60 H25      -7.3783   -1.3002   -1.5215   H         1 RES1   0.0000
    61 H26      -5.1099   -2.0460   -0.6785   H         1 RES1   0.0000
    62 H27      -4.4904   -0.4505   -1.1140   H         1 RES1   0.0000
    63 H28      -5.8908   -2.3971   -2.9967   H         1 RES1   0.0000
    64 H29      -4.1506   -2.1570   -2.9030   H         1 RES1   0.0000
    65 H30      -4.4467    0.2223   -3.5792   H         1 RES1   0.0000
    66 H31      -6.1783   -0.0595   -3.7735   H         1 RES1   0.0000
    67 H32      -3.9757   -1.5284   -5.2850   H         1 RES1   0.0000
    68 H33      -5.0124   -0.2611   -5.9491   H         1 RES1   0.0000
    69 H34      -5.7038   -1.8110   -5.4763   H         1 RES1   0.0000
    70 H35      -3.8105   -1.5172    1.3970   H         1 RES1   0.0000
    71 H36      -2.9439   -0.7539    2.7610   H         1 RES1   0.0000
    72 H37      -1.9241   -2.5867    0.8588   H         1 RES1   0.0000
    73 H38      -0.3304   -2.8808    2.3864   H         1 RES1   0.0000
    74 H39      -0.9363   -1.4359    3.2802   H         1 RES1   0.0000
    75 H40       3.2736    2.0578    0.7590   H         1 RES1   0.0000
    76 H41       2.3653    2.4943    2.2136   H         1 RES1   0.0000
    77 H42       0.3161    2.6113    0.4569   H         1 RES1   0.0000
    78 H43       1.6286    2.9672   -0.6783   H         1 RES1   0.0000
    79 H44       2.3702    4.8660    0.7117   H         1 RES1   0.0000
    80 H45       1.1386    4.5056    1.9153   H         1 RES1   0.0000
    81 H46       0.5745    5.2476   -0.9965   H         1 RES1   0.0000
    82 H47       0.4171    6.3394    0.3752   H         1 RES1   0.0000
    83 H48      -0.6471    4.9350    0.2387   H         1 RES1   0.0000
    84 H49      -0.5345    3.1262    2.7923   H         1 RES1   0.0000
    85 H50       0.3405    2.3404    4.1176   H         1 RES1   0.0000
    86 H51      -2.6347    2.0203    3.5002   H         1 RES1   0.0000
    87 H52      -1.9585    3.0586    4.7451   H         1 RES1   0.0000
    88 H53      -2.0038    0.0266    4.6648   H         1 RES1   0.0000
    89 H54      -2.6789    1.1128    5.8738   H         1 RES1   0.0000
    90 H55       0.2646    0.4446    5.4229   H         1 RES1   0.0000
    91 H56      -0.7139    0.1332    6.8481   H         1 RES1   0.0000
    92 H57      -0.2640    1.7905    6.4490   H         1 RES1   0.0000
    93 N3        2.2150   -0.3483   -1.5148   N.3       1 RES1   0.0000
    94 O5        3.2295   -0.4116   -2.1222   O.2       1 RES1   0.0000
    95 O6        1.7621   -1.3004   -0.8650   O.co2     1 RES1   0.0000
    96 O7        1.5320    0.7002   -1.5037   O.co2     1 RES1   0.0000
    97 N4       -1.4230   -1.5367   -2.0597   N.3       1 RES1   0.0000
    98 O8       -1.9799   -2.1074   -2.9373   O.2       1 RES1   0.0000
    99 O9       -1.4781   -0.2942   -1.9555   O.co2     1 RES1   0.0000
   100 O10      -0.7816   -2.1362   -1.1811   O.co2     1 RES1   0.0000
@<TRIPOS>BOND
     1     1    20    1
     2     1    22    1
     3     1    25    1
     4     1    26    1
     5     1    31    1
     6     1    95    1
     7     1    96    1
     8     1    99    1
     9     1   100    1
    10     2     3    1
    11     2    36    1
    12     2    37    1
    13     2    38    1
    14     3     4    1
    15     3    39    1
    16     3    40    1
    17     4     5    1
    18     4    41    1
    19     4    42    1
    20     5     6    1
    21     5    43    1
    22     5    44    1
    23     6     7    1
    24     6    45    1
    25     6    46    1
    26     7     8    1
    27     7    47    1
    28     7    48    1
    29     8     9    1
    30     8    49    1
    31     8    50    1
    32     9    10    1
    33     9    51    1
    34     9    52    1
    35    10    11    1
    36    10    19    1
    37    11    12    1
    38    11    53    1
    39    11    54    1
    40    12    13    1
    41    12    55    1
    42    12    56    1
    43    13    14    1
    44    13    57    1
    45    13    58    1
    46    14    15    1
    47    14    59    1
    48    14    60    1
    49    15    16    1
    50    15    61    1
    51    15    62    1
    52    16    17    1
    53    16    63    1
    54    16    64    1
    55    17    18    1
    56    17    65    1
    57    17    66    1
    58    18    67    1
    59    18    68    1
    60    18    69    1
    61    19    20    2
    62    19    21    1
    63    21    22    1
    64    21    70    1
    65    21    71    1
    66    22    23    1
    67    22    72    1
    68    23    24    1
    69    23    73    1
    70    23    74    1
    71    24    25    2
    72    24    26    1
    73    24    31    1
    74    26    27    1
    75    27    28    1
    76    27    75    1
    77    27    76    1
    78    28    29    1
    79    28    77    1
    80    28    78    1
    81    29    30    1
    82    29    79    1
    83    29    80    1
    84    30    81    1
    85    30    82    1
    86    30    83    1
    87    31    32    1
    88    32    33    1
    89    32    84    1
    90    32    85    1
    91    33    34    1
    92    33    86    1
    93    33    87    1
    94    34    35    1
    95    34    88    1
    96    34    89    1
    97    35    90    1
    98    35    91    1
    99    35    92    1
   100    93    94    2
   101    93    95    1
   102    93    96    1
   103    97    98    2
   104    97    99    1
   105    97   100    1
@<TRIPOS>SUBSTRUCTURE
     1 RES1      100 GROUP             0 ****  ****    0  
