@<TRIPOS>MOLECULE
am_c3_9H2O_c0_0_nunpairedes_0_charge_2 Charge: 2 Unpaired_Electrons: 6 XTB_Unpaired_Electrons: 0 XTB_Charge: 2
   134   142     1     0     0
SMALL
NoCharges
****
Generated from Architector

@<TRIPOS>ATOM
     1 Eu1      -0.1432    0.0177    0.1527   Eu        1 RES1   0.0000
     2 C1        4.3629    5.9965   -5.6961   C.3       1 RES1   0.0000
     3 C2        5.2705    4.8100   -5.4009   C.3       1 RES1   0.0000
     4 C3        4.6218    3.7551   -4.5051   C.3       1 RES1   0.0000
     5 C4        3.5467    2.9395   -5.2252   C.3       1 RES1   0.0000
     6 C5        2.7969    2.0014   -4.2768   C.3       1 RES1   0.0000
     7 C6        3.6360    0.7916   -3.8630   C.3       1 RES1   0.0000
     8 C7        3.2310    0.2149   -2.5039   C.3       1 RES1   0.0000
     9 C8        3.9613    0.9546   -1.3829   C.3       1 RES1   0.0000
    10 N1        3.5670    0.5959   -0.0264   N.am      1 RES1   0.0000
    11 C9        4.1031   -0.6194    0.5633   C.3       1 RES1   0.0000
    12 C10       3.1279   -1.8149    0.5297   C.3       1 RES1   0.0000
    13 C11       3.1442   -2.7175   -0.7199   C.3       1 RES1   0.0000
    14 C12       4.5515   -3.0650   -1.2135   C.3       1 RES1   0.0000
    15 C13       4.5465   -4.1404   -2.3053   C.3       1 RES1   0.0000
    16 C14       3.9905   -3.6917   -3.6632   C.3       1 RES1   0.0000
    17 C15       4.9551   -2.8276   -4.4798   C.3       1 RES1   0.0000
    18 C16       4.3569   -2.4528   -5.8306   C.3       1 RES1   0.0000
    19 C17       2.8923    1.4658    0.7213   C.2       1 RES1   0.0000
    20 S1        2.6724    1.4427    2.3735   S.3       1 RES1   0.0000
    21 C18       2.1825    2.5485   -0.0004   C.ar      1 RES1   0.0000
    22 C19       2.5867    3.8897   -0.0899   C.ar      1 RES1   0.0000
    23 C20       1.9482    4.7210   -0.9809   C.ar      1 RES1   0.0000
    24 C21       0.9290    4.1875   -1.8013   C.ar      1 RES1   0.0000
    25 C22       0.3455    4.8458   -2.9206   C.ar      1 RES1   0.0000
    26 C23      -0.5895    4.2347   -3.6967   C.ar      1 RES1   0.0000
    27 C24      -1.1149    2.9564   -3.3595   C.ar      1 RES1   0.0000
    28 C25      -2.1135    2.2606   -4.0756   C.ar      1 RES1   0.0000
    29 C26      -2.6468    1.1093   -3.5387   C.ar      1 RES1   0.0000
    30 C27      -2.2182    0.6817   -2.2738   C.ar      1 RES1   0.0000
    31 C28      -2.8404   -0.3567   -1.4142   C.2       1 RES1   0.0000
    32 S2       -2.8617   -1.9188   -1.9163   S.3       1 RES1   0.0000
    33 N2       -3.1829    0.1270   -0.1658   N.am      1 RES1   0.0000
    34 C29      -3.6744   -0.8093    0.8483   C.3       1 RES1   0.0000
    35 C30      -2.8769   -0.7352    2.1625   C.3       1 RES1   0.0000
    36 C31      -3.0677    0.5490    2.9854   C.3       1 RES1   0.0000
    37 C32      -1.9892    1.6208    2.7527   C.3       1 RES1   0.0000
    38 C33      -2.4986    3.0218    3.1078   C.3       1 RES1   0.0000
    39 C34      -1.4520    4.1134    2.8930   C.3       1 RES1   0.0000
    40 C35      -0.3136    4.0740    3.9130   C.3       1 RES1   0.0000
    41 C36       0.5710    5.3066    3.7927   C.3       1 RES1   0.0000
    42 C37      -3.7835    1.4734   -0.1306   C.3       1 RES1   0.0000
    43 C38      -5.1782    1.5282   -0.7574   C.3       1 RES1   0.0000
    44 C39      -5.5982    2.9767   -1.0289   C.3       1 RES1   0.0000
    45 C40      -4.8733    3.6203   -2.2141   C.3       1 RES1   0.0000
    46 C41      -5.4612    4.9819   -2.5919   C.3       1 RES1   0.0000
    47 C42      -4.7649    5.5871   -3.8127   C.3       1 RES1   0.0000
    48 C43      -5.4119    6.8966   -4.2625   C.3       1 RES1   0.0000
    49 C44      -4.7458    7.4875   -5.4968   C.3       1 RES1   0.0000
    50 N3       -1.1858    1.2442   -1.6480   N.ar      1 RES1   0.0000
    51 C45      -0.6284    2.3368   -2.1939   C.ar      1 RES1   0.0000
    52 C46       0.4780    2.8920   -1.4860   C.ar      1 RES1   0.0000
    53 N4        1.0753    2.0889   -0.5793   N.ar      1 RES1   0.0000
    54 H1        4.8907    6.7215   -6.3078   H         1 RES1   0.0000
    55 H2        4.0601    6.4899   -4.7749   H         1 RES1   0.0000
    56 H3        3.4701    5.6901   -6.2336   H         1 RES1   0.0000
    57 H4        6.1718    5.1770   -4.9090   H         1 RES1   0.0000
    58 H5        5.5752    4.3394   -6.3355   H         1 RES1   0.0000
    59 H6        4.1781    4.2501   -3.6341   H         1 RES1   0.0000
    60 H7        5.4018    3.0808   -4.1435   H         1 RES1   0.0000
    61 H8        4.0009    2.3535   -6.0254   H         1 RES1   0.0000
    62 H9        2.8296    3.6159   -5.6906   H         1 RES1   0.0000
    63 H10       1.8796    1.6470   -4.7545   H         1 RES1   0.0000
    64 H11       2.4958    2.5719   -3.3922   H         1 RES1   0.0000
    65 H12       4.6884    1.0718   -3.8284   H         1 RES1   0.0000
    66 H13       3.5411    0.0220   -4.6271   H         1 RES1   0.0000
    67 H14       3.5082   -0.8315   -2.4794   H         1 RES1   0.0000
    68 H15       2.1420    0.2840   -2.3754   H         1 RES1   0.0000
    69 H16       3.8148    2.0277   -1.5209   H         1 RES1   0.0000
    70 H17       5.0322    0.7557   -1.4612   H         1 RES1   0.0000
    71 H18       4.3438   -0.3955    1.6093   H         1 RES1   0.0000
    72 H19       5.0242   -0.8928    0.0500   H         1 RES1   0.0000
    73 H20       2.0984   -1.4249    0.7066   H         1 RES1   0.0000
    74 H21       3.3813   -2.4517    1.3802   H         1 RES1   0.0000
    75 H22       2.5747   -2.2725   -1.5346   H         1 RES1   0.0000
    76 H23       2.6325   -3.6480   -0.4538   H         1 RES1   0.0000
    77 H24       5.1359   -3.4259   -0.3650   H         1 RES1   0.0000
    78 H25       5.0522   -2.1824   -1.6157   H         1 RES1   0.0000
    79 H26       3.9661   -4.9946   -1.9551   H         1 RES1   0.0000
    80 H27       5.5727   -4.4778   -2.4544   H         1 RES1   0.0000
    81 H28       3.0452   -3.1595   -3.5249   H         1 RES1   0.0000
    82 H29       3.7664   -4.5816   -4.2563   H         1 RES1   0.0000
    83 H30       5.8816   -3.3810   -4.6440   H         1 RES1   0.0000
    84 H31       5.2117   -1.9188   -3.9288   H         1 RES1   0.0000
    85 H32       4.2086   -3.3395   -6.4381   H         1 RES1   0.0000
    86 H33       5.0192   -1.7812   -6.3683   H         1 RES1   0.0000
    87 H34       3.3903   -1.9697   -5.7052   H         1 RES1   0.0000
    88 H35       3.3916    4.2355    0.5406   H         1 RES1   0.0000
    89 H36       2.2311    5.7620   -1.0661   H         1 RES1   0.0000
    90 H37       0.7013    5.8312   -3.1721   H         1 RES1   0.0000
    91 H38      -0.9793    4.7307   -4.5688   H         1 RES1   0.0000
    92 H39      -2.4679    2.6466   -5.0221   H         1 RES1   0.0000
    93 H40      -3.4174    0.5435   -4.0369   H         1 RES1   0.0000
    94 H41      -3.5844   -1.8256    0.4434   H         1 RES1   0.0000
    95 H42      -4.7280   -0.6081    1.0586   H         1 RES1   0.0000
    96 H43      -1.7991   -0.8497    1.9393   H         1 RES1   0.0000
    97 H44      -3.1863   -1.5985    2.7593   H         1 RES1   0.0000
    98 H45      -3.0678    0.2958    4.0467   H         1 RES1   0.0000
    99 H46      -4.0511    0.9713    2.7776   H         1 RES1   0.0000
   100 H47      -1.6430    1.6250    1.6770   H         1 RES1   0.0000
   101 H48      -1.1295    1.4041    3.3929   H         1 RES1   0.0000
   102 H49      -2.7947    3.0295    4.1572   H         1 RES1   0.0000
   103 H50      -3.3827    3.2630    2.5123   H         1 RES1   0.0000
   104 H51      -1.9393    5.0870    2.9717   H         1 RES1   0.0000
   105 H52      -1.0460    4.0323    1.8765   H         1 RES1   0.0000
   106 H53       0.2916    3.1755    3.7655   H         1 RES1   0.0000
   107 H54      -0.7352    4.0373    4.9194   H         1 RES1   0.0000
   108 H55       0.9915    5.3787    2.7925   H         1 RES1   0.0000
   109 H56       1.3835    5.2620    4.5095   H         1 RES1   0.0000
   110 H57      -0.0058    6.2051    3.9898   H         1 RES1   0.0000
   111 H58      -3.1435    2.1821   -0.6578   H         1 RES1   0.0000
   112 H59      -3.8504    1.7856    0.9054   H         1 RES1   0.0000
   113 H60      -5.8935    1.0722   -0.0738   H         1 RES1   0.0000
   114 H61      -5.1864    0.9495   -1.6826   H         1 RES1   0.0000
   115 H62      -5.4366    3.5700   -0.1256   H         1 RES1   0.0000
   116 H63      -6.6686    2.9875   -1.2323   H         1 RES1   0.0000
   117 H64      -4.9463    2.9593   -3.0813   H         1 RES1   0.0000
   118 H65      -3.8083    3.7459   -1.9882   H         1 RES1   0.0000
   119 H66      -5.3720    5.6639   -1.7446   H         1 RES1   0.0000
   120 H67      -6.5236    4.8634   -2.8111   H         1 RES1   0.0000
   121 H68      -4.8057    4.8715   -4.6382   H         1 RES1   0.0000
   122 H69      -3.7108    5.7686   -3.5803   H         1 RES1   0.0000
   123 H70      -5.3695    7.6212   -3.4489   H         1 RES1   0.0000
   124 H71      -6.4635    6.7166   -4.4812   H         1 RES1   0.0000
   125 H72      -3.7022    7.7187   -5.3046   H         1 RES1   0.0000
   126 H73      -5.2478    8.4036   -5.7895   H         1 RES1   0.0000
   127 H74      -4.7959    6.7988   -6.3345   H         1 RES1   0.0000
   128 N5       -0.0283   -2.2025   -0.9284   N.3       1 RES1   0.0000
   129 O1        0.0598   -3.2755   -1.3989   O.2       1 RES1   0.0000
   130 O2        0.4240   -1.1818   -1.4903   O.co2     1 RES1   0.0000
   131 O3       -0.5370   -2.0023    0.1941   O.co2     1 RES1   0.0000
   132 O4        0.5082   -0.5602    2.4818   O.3       1 RES1   0.0000
   133 H75       1.2900   -0.0588    2.8225   H         1 RES1   0.0000
   134 H76       0.4208   -1.3289    3.0730   H         1 RES1   0.0000
@<TRIPOS>BOND
     1     1    10    1
     2     1    20    1
     3     1    32    1
     4     1    33    1
     5     1    50    1
     6     1    53    1
     7     1   130    1
     8     1   131    1
     9     1   132    1
    10     2     3    1
    11     2    54    1
    12     2    55    1
    13     2    56    1
    14     3     4    1
    15     3    57    1
    16     3    58    1
    17     4     5    1
    18     4    59    1
    19     4    60    1
    20     5     6    1
    21     5    61    1
    22     5    62    1
    23     6     7    1
    24     6    63    1
    25     6    64    1
    26     7     8    1
    27     7    65    1
    28     7    66    1
    29     8     9    1
    30     8    67    1
    31     8    68    1
    32     9    10    1
    33     9    69    1
    34     9    70    1
    35    10    11    1
    36    10    19    1
    37    11    12    1
    38    11    71    1
    39    11    72    1
    40    12    13    1
    41    12    73    1
    42    12    74    1
    43    13    14    1
    44    13    75    1
    45    13    76    1
    46    14    15    1
    47    14    77    1
    48    14    78    1
    49    15    16    1
    50    15    79    1
    51    15    80    1
    52    16    17    1
    53    16    81    1
    54    16    82    1
    55    17    18    1
    56    17    83    1
    57    17    84    1
    58    18    85    1
    59    18    86    1
    60    18    87    1
    61    19    20    2
    62    19    21    1
    63    21    22    1
    64    21    53    2
    65    22    23    2
    66    22    88    1
    67    23    24    1
    68    23    89    1
    69    24    25    1
    70    24    52    2
    71    25    26    2
    72    25    90    1
    73    26    27    1
    74    26    91    1
    75    27    28    1
    76    27    51    2
    77    28    29    2
    78    28    92    1
    79    29    30    1
    80    29    93    1
    81    30    31    1
    82    30    50    2
    83    31    32    2
    84    31    33    1
    85    33    34    1
    86    33    42    1
    87    34    35    1
    88    34    94    1
    89    34    95    1
    90    35    36    1
    91    35    96    1
    92    35    97    1
    93    36    37    1
    94    36    98    1
    95    36    99    1
    96    37    38    1
    97    37   100    1
    98    37   101    1
    99    38    39    1
   100    38   102    1
   101    38   103    1
   102    39    40    1
   103    39   104    1
   104    39   105    1
   105    40    41    1
   106    40   106    1
   107    40   107    1
   108    41   108    1
   109    41   109    1
   110    41   110    1
   111    42    43    1
   112    42   111    1
   113    42   112    1
   114    43    44    1
   115    43   113    1
   116    43   114    1
   117    44    45    1
   118    44   115    1
   119    44   116    1
   120    45    46    1
   121    45   117    1
   122    45   118    1
   123    46    47    1
   124    46   119    1
   125    46   120    1
   126    47    48    1
   127    47   121    1
   128    47   122    1
   129    48    49    1
   130    48   123    1
   131    48   124    1
   132    49   125    1
   133    49   126    1
   134    49   127    1
   135    50    51    1
   136    51    52    1
   137    52    53    1
   138   128   129    2
   139   128   130    1
   140   128   131    1
   141   132   133    1
   142   132   134    1
@<TRIPOS>SUBSTRUCTURE
     1 RES1      134 GROUP             0 ****  ****    0  
