@<TRIPOS>MOLECULE
am_c3_9H2O_c0_0_nunpairedes_0_charge_3 Charge: 3 Unpaired_Electrons: 6 XTB_Unpaired_Electrons: 0 XTB_Charge: 3
   104   119     1     0     0
SMALL
NoCharges
****
Generated from Architector

@<TRIPOS>ATOM
     1 Eu1       0.0464   -0.0613    0.0226   Eu        1 RES1   0.0000
     2 O1        0.8767   -2.1224    0.5885   O.2       1 RES1   0.0000
     3 C1        1.6578   -2.3020    1.5527   C.2       1 RES1   0.0000
     4 C2        2.3876   -1.0845    2.0743   C.ar      1 RES1   0.0000
     5 C3        3.3798   -1.0359    3.0571   C.ar      1 RES1   0.0000
     6 C4        3.9502    0.1863    3.3868   C.ar      1 RES1   0.0000
     7 Cl1       5.1519    0.2440    4.5901   Cl        1 RES1   0.0000
     8 C5        3.5268    1.3714    2.7308   C.ar      1 RES1   0.0000
     9 C6        4.0553    2.6694    2.9769   C.ar      1 RES1   0.0000
    10 C7        3.6073    3.7572    2.2938   C.ar      1 RES1   0.0000
    11 C8        2.5707    3.6515    1.3248   C.ar      1 RES1   0.0000
    12 C9        2.0534    4.7412    0.5754   C.ar      1 RES1   0.0000
    13 Cl2       2.6804    6.3171    0.7627   Cl        1 RES1   0.0000
    14 C10       1.0141    4.5266   -0.3224   C.ar      1 RES1   0.0000
    15 C11       0.4610    3.2496   -0.4430   C.ar      1 RES1   0.0000
    16 C12      -0.7007    2.8273   -1.3032   C.2       1 RES1   0.0000
    17 O2       -0.9327    1.5930   -1.3632   O.2       1 RES1   0.0000
    18 N1       -1.4842    3.6527   -1.9830   N.am      1 RES1   0.0000
    19 C13      -2.5420    3.0393   -2.7926   C.3       1 RES1   0.0000
    20 C14      -3.1025    4.1854   -3.6212   C.3       1 RES1   0.0000
    21 C15      -2.9251    5.3789   -2.6873   C.3       1 RES1   0.0000
    22 C16      -1.5616    5.1078   -2.0459   C.3       1 RES1   0.0000
    23 N2        0.9564    2.2131    0.2369   N.ar      1 RES1   0.0000
    24 C17       1.9892    2.3848    1.0745   C.ar      1 RES1   0.0000
    25 C18       2.5029    1.2165    1.7679   C.ar      1 RES1   0.0000
    26 N3        1.9719    0.0249    1.4628   N.ar      1 RES1   0.0000
    27 N4        1.7822   -3.5285    2.0466   N.am      1 RES1   0.0000
    28 C19       2.6021   -4.0705    3.1217   C.3       1 RES1   0.0000
    29 C20       2.1490   -5.5269    3.2549   C.3       1 RES1   0.0000
    30 C21       1.6845   -5.8749    1.8421   C.3       1 RES1   0.0000
    31 C22       0.9983   -4.5901    1.4072   C.3       1 RES1   0.0000
    32 H1        3.7290   -1.9137    3.5714   H         1 RES1   0.0000
    33 H2        4.8357    2.7761    3.7122   H         1 RES1   0.0000
    34 H3        4.0291    4.7299    2.4842   H         1 RES1   0.0000
    35 H4        0.6649    5.3585   -0.9061   H         1 RES1   0.0000
    36 H5       -3.2914    2.5960   -2.1278   H         1 RES1   0.0000
    37 H6       -2.1192    2.2350   -3.3961   H         1 RES1   0.0000
    38 H7       -4.1382    4.0299   -3.9101   H         1 RES1   0.0000
    39 H8       -2.5102    4.3189   -4.5262   H         1 RES1   0.0000
    40 H9       -3.6971    5.3823   -1.9183   H         1 RES1   0.0000
    41 H10      -2.9630    6.3339   -3.2058   H         1 RES1   0.0000
    42 H11      -1.4901    5.5496   -1.0527   H         1 RES1   0.0000
    43 H12      -0.7607    5.5070   -2.6756   H         1 RES1   0.0000
    44 H13       2.4490   -3.5278    4.0541   H         1 RES1   0.0000
    45 H14       3.6581   -4.0277    2.8472   H         1 RES1   0.0000
    46 H15       1.3151   -5.5956    3.9542   H         1 RES1   0.0000
    47 H16       2.9462   -6.1806    3.6029   H         1 RES1   0.0000
    48 H17       1.0202   -6.7374    1.8167   H         1 RES1   0.0000
    49 H18       2.5426   -6.0689    1.1970   H         1 RES1   0.0000
    50 H19      -0.0322   -4.5306    1.7725   H         1 RES1   0.0000
    51 H20       0.9823   -4.4476    0.3259   H         1 RES1   0.0000
    52 O3       -0.7193   -0.4518    2.2313   O.2       1 RES1   0.0000
    53 C23      -1.8718   -0.8588    2.5200   C.2       1 RES1   0.0000
    54 C24      -2.7637   -1.2481    1.3633   C.ar      1 RES1   0.0000
    55 C25      -4.1117   -1.6165    1.4163   C.ar      1 RES1   0.0000
    56 C26      -4.7964   -1.8773    0.2364   C.ar      1 RES1   0.0000
    57 Cl3      -6.4500   -2.2911    0.3031   Cl        1 RES1   0.0000
    58 C27      -4.1177   -1.7778   -1.0055   C.ar      1 RES1   0.0000
    59 C28      -4.7382   -1.9426   -2.2735   C.ar      1 RES1   0.0000
    60 C29      -4.0439   -1.7777   -3.4293   C.ar      1 RES1   0.0000
    61 C30      -2.6598   -1.4578   -3.4232   C.ar      1 RES1   0.0000
    62 C31      -1.8922   -1.2175   -4.5916   C.ar      1 RES1   0.0000
    63 Cl4      -2.5736   -1.3741   -6.1484   Cl        1 RES1   0.0000
    64 C32      -0.5704   -0.8158   -4.4640   C.ar      1 RES1   0.0000
    65 C33       0.0102   -0.7386   -3.1941   C.ar      1 RES1   0.0000
    66 C34       1.3949   -0.2321   -2.8666   C.2       1 RES1   0.0000
    67 O4        1.6436   -0.0190   -1.6512   O.2       1 RES1   0.0000
    68 N5        2.3187    0.0695   -3.7674   N.am      1 RES1   0.0000
    69 C35       2.4087   -0.1703   -5.2045   C.3       1 RES1   0.0000
    70 C36       3.8947    0.0217   -5.5166   C.3       1 RES1   0.0000
    71 C37       4.3045    1.1093   -4.5287   C.3       1 RES1   0.0000
    72 C38       3.5472    0.7036   -3.2727   C.3       1 RES1   0.0000
    73 N6       -0.6896   -1.0126   -2.0931   N.ar      1 RES1   0.0000
    74 C39      -1.9907   -1.3154   -2.1844   C.ar      1 RES1   0.0000
    75 C40      -2.7443   -1.4395   -0.9507   C.ar      1 RES1   0.0000
    76 N7       -2.1125   -1.1649    0.2007   N.ar      1 RES1   0.0000
    77 N8       -2.2232   -0.8808    3.8016   N.am      1 RES1   0.0000
    78 C41      -3.4346   -1.3225    4.4859   C.3       1 RES1   0.0000
    79 C42      -3.0797   -1.2485    5.9760   C.3       1 RES1   0.0000
    80 C43      -2.0496   -0.1242    6.0280   C.3       1 RES1   0.0000
    81 C44      -1.2370   -0.3872    4.7701   C.3       1 RES1   0.0000
    82 H21      -4.6536   -1.6934    2.3429   H         1 RES1   0.0000
    83 H22      -5.7903   -2.1684   -2.3030   H         1 RES1   0.0000
    84 H23      -4.5416   -1.8621   -4.3798   H         1 RES1   0.0000
    85 H24      -0.0256   -0.5602   -5.3553   H         1 RES1   0.0000
    86 H25       1.8133    0.5709   -5.7483   H         1 RES1   0.0000
    87 H26       2.0667   -1.1722   -5.4623   H         1 RES1   0.0000
    88 H27       4.0708    0.2982   -6.5533   H         1 RES1   0.0000
    89 H28       4.4343   -0.9029   -5.3126   H         1 RES1   0.0000
    90 H29       3.9696    2.0878   -4.8741   H         1 RES1   0.0000
    91 H30       5.3791    1.1457   -4.3755   H         1 RES1   0.0000
    92 H31       3.2860    1.5460   -2.6285   H         1 RES1   0.0000
    93 H32       4.1052   -0.0166   -2.6674   H         1 RES1   0.0000
    94 H33      -3.7060   -2.3364    4.1918   H         1 RES1   0.0000
    95 H34      -4.2663   -0.6484    4.2598   H         1 RES1   0.0000
    96 H35      -2.6302   -2.1877    6.2981   H         1 RES1   0.0000
    97 H36      -3.9498   -1.0604    6.6010   H         1 RES1   0.0000
    98 H37      -1.4456   -0.1499    6.9308   H         1 RES1   0.0000
    99 H38      -2.5386    0.8489    5.9659   H         1 RES1   0.0000
   100 H39      -0.4721   -1.1547    4.9278   H         1 RES1   0.0000
   101 H40      -0.7406    0.5006    4.3741   H         1 RES1   0.0000
   102 O5       -1.6860    1.8633    1.3604   O.3       1 RES1   0.0000
   103 H41      -1.3962    2.1686    2.2308   H         1 RES1   0.0000
   104 H42      -2.6513    1.9188    1.3716   H         1 RES1   0.0000
@<TRIPOS>BOND
     1     1     2    1
     2     1    17    1
     3     1    23    1
     4     1    26    1
     5     1    52    1
     6     1    67    1
     7     1    73    1
     8     1    76    1
     9     1   102    1
    10     2     3    2
    11     3     4    1
    12     3    27    1
    13     4     5    1
    14     4    26    2
    15     5     6    2
    16     5    32    1
    17     6     7    1
    18     6     8    1
    19     8     9    1
    20     8    25    2
    21     9    10    2
    22     9    33    1
    23    10    11    1
    24    10    34    1
    25    11    12    1
    26    11    24    2
    27    12    13    1
    28    12    14    2
    29    14    15    1
    30    14    35    1
    31    15    16    1
    32    15    23    2
    33    16    17    2
    34    16    18    1
    35    18    19    1
    36    18    22    1
    37    19    20    1
    38    19    36    1
    39    19    37    1
    40    20    21    1
    41    20    38    1
    42    20    39    1
    43    21    22    1
    44    21    40    1
    45    21    41    1
    46    22    42    1
    47    22    43    1
    48    23    24    1
    49    24    25    1
    50    25    26    1
    51    27    28    1
    52    27    31    1
    53    28    29    1
    54    28    44    1
    55    28    45    1
    56    29    30    1
    57    29    46    1
    58    29    47    1
    59    30    31    1
    60    30    48    1
    61    30    49    1
    62    31    50    1
    63    31    51    1
    64    52    53    2
    65    53    54    1
    66    53    77    1
    67    54    55    1
    68    54    76    2
    69    55    56    2
    70    55    82    1
    71    56    57    1
    72    56    58    1
    73    58    59    1
    74    58    75    2
    75    59    60    2
    76    59    83    1
    77    60    61    1
    78    60    84    1
    79    61    62    1
    80    61    74    2
    81    62    63    1
    82    62    64    2
    83    64    65    1
    84    64    85    1
    85    65    66    1
    86    65    73    2
    87    66    67    2
    88    66    68    1
    89    68    69    1
    90    68    72    1
    91    69    70    1
    92    69    86    1
    93    69    87    1
    94    70    71    1
    95    70    88    1
    96    70    89    1
    97    71    72    1
    98    71    90    1
    99    71    91    1
   100    72    92    1
   101    72    93    1
   102    73    74    1
   103    74    75    1
   104    75    76    1
   105    77    78    1
   106    77    81    1
   107    78    79    1
   108    78    94    1
   109    78    95    1
   110    79    80    1
   111    79    96    1
   112    79    97    1
   113    80    81    1
   114    80    98    1
   115    80    99    1
   116    81   100    1
   117    81   101    1
   118   102   103    1
   119   102   104    1
@<TRIPOS>SUBSTRUCTURE
     1 RES1      104 GROUP             0 ****  ****    0  
