@<TRIPOS>MOLECULE
am_c3_9H2O_c0_0_nunpairedes_0_charge_2 Charge: 2 Unpaired_Electrons: 6 XTB_Unpaired_Electrons: 0 XTB_Charge: 2
   118   132     1     0     0
SMALL
NoCharges
****
Generated from Architector

@<TRIPOS>ATOM
     1 Eu1       1.4110   -0.6309    0.6155   Eu        1 RES1   0.0000
     2 C1       -1.8078   -5.5726    1.7917   C.3       1 RES1   0.0000
     3 C2       -2.2516   -5.1243    0.3993   C.3       1 RES1   0.0000
     4 C3       -1.9560   -3.6539    0.0885   C.3       1 RES1   0.0000
     5 C4       -2.3996   -3.2214   -1.3191   C.3       1 RES1   0.0000
     6 C5       -1.8964   -4.0370   -2.5167   C.3       1 RES1   0.0000
     7 C6       -0.3679   -4.0446   -2.7167   C.3       1 RES1   0.0000
     8 N1        0.0566   -2.7133   -3.1216   N.ar      1 RES1   0.0000
     9 C7        0.0056   -2.3280   -4.4637   C.ar      1 RES1   0.0000
    10 C8        0.7268   -3.3038   -5.3281   C.ar      1 RES1   0.0000
    11 C9        0.2671   -4.1477   -6.3289   C.ar      1 RES1   0.0000
    12 C10       1.1505   -4.9778   -7.0024   C.ar      1 RES1   0.0000
    13 C11       2.4958   -4.9773   -6.6770   C.ar      1 RES1   0.0000
    14 C12       2.9615   -4.1525   -5.6635   C.ar      1 RES1   0.0000
    15 C13       2.0888   -3.3205   -4.9959   C.ar      1 RES1   0.0000
    16 C14      -0.3154   -1.0370   -4.8153   C.ar      1 RES1   0.0000
    17 C15      -0.5561   -0.6457   -6.2154   C.ar      1 RES1   0.0000
    18 C16      -0.0726    0.5634   -6.7188   C.ar      1 RES1   0.0000
    19 C17      -0.4154    0.9917   -7.9856   C.ar      1 RES1   0.0000
    20 C18      -1.2337    0.2072   -8.7822   C.ar      1 RES1   0.0000
    21 C19      -1.7018   -1.0082   -8.3095   C.ar      1 RES1   0.0000
    22 C20      -1.3619   -1.4351   -7.0370   C.ar      1 RES1   0.0000
    23 C21      -0.3834   -0.0441   -3.7659   C.ar      1 RES1   0.0000
    24 C22      -0.8674    1.2713   -3.8544   C.ar      1 RES1   0.0000
    25 C23      -0.7685    2.1288   -2.7514   C.ar      1 RES1   0.0000
    26 C24      -1.3366    3.4446   -2.6516   C.ar      1 RES1   0.0000
    27 C25      -1.3036    4.1621   -1.4976   C.ar      1 RES1   0.0000
    28 C26      -0.6814    3.6812   -0.2875   C.ar      1 RES1   0.0000
    29 C27      -0.6332    4.3252    0.9539   C.ar      1 RES1   0.0000
    30 C28      -0.0730    3.6587    2.0622   C.ar      1 RES1   0.0000
    31 C29      -0.0301    4.1212    3.4108   C.ar      1 RES1   0.0000
    32 C30      -0.5063    5.4789    3.7578   C.ar      1 RES1   0.0000
    33 C31       0.3912    6.5355    3.6292   C.ar      1 RES1   0.0000
    34 C32      -0.0019    7.8149    3.9783   C.ar      1 RES1   0.0000
    35 C33      -1.2973    8.0407    4.4228   C.ar      1 RES1   0.0000
    36 C34      -2.1935    6.9893    4.5407   C.ar      1 RES1   0.0000
    37 C35      -1.7967    5.7009    4.2224   C.ar      1 RES1   0.0000
    38 C36       0.5108    3.3288    4.3925   C.ar      1 RES1   0.0000
    39 C37       0.3120    3.6815    5.8159   C.ar      1 RES1   0.0000
    40 C38      -0.8742    3.2152    6.3823   C.ar      1 RES1   0.0000
    41 C39      -1.1921    3.5479    7.6835   C.ar      1 RES1   0.0000
    42 C40      -0.3433    4.3656    8.4120   C.ar      1 RES1   0.0000
    43 C41       0.8579    4.7920    7.8684   C.ar      1 RES1   0.0000
    44 C42       1.1924    4.4507    6.5672   C.ar      1 RES1   0.0000
    45 N2        1.1398    2.1330    4.1222   N.ar      1 RES1   0.0000
    46 C43       2.0023    1.4830    5.1041   C.3       1 RES1   0.0000
    47 C44       3.3901    2.1594    5.1367   C.3       1 RES1   0.0000
    48 C45       4.5373    1.2588    4.6729   C.3       1 RES1   0.0000
    49 C46       4.7101    1.1182    3.1614   C.3       1 RES1   0.0000
    50 C47       5.2391    2.3750    2.4738   C.3       1 RES1   0.0000
    51 C48       5.4967    2.0860    0.9977   C.3       1 RES1   0.0000
    52 C49       1.1106    1.6107    2.8858   C.ar      1 RES1   0.0000
    53 O1        1.6615    0.5133    2.5896   O.2       1 RES1   0.0000
    54 C50       0.4587    2.3684    1.8460   C.ar      1 RES1   0.0000
    55 N3        0.4785    1.7662    0.6576   N.ar      1 RES1   0.0000
    56 C51      -0.0771    2.3994   -0.3718   C.ar      1 RES1   0.0000
    57 C52      -0.1293    1.6350   -1.5877   C.ar      1 RES1   0.0000
    58 N4        0.3382    0.3939   -1.4860   N.ar      1 RES1   0.0000
    59 C53       0.1579   -0.4299   -2.5148   C.ar      1 RES1   0.0000
    60 C54       0.3676   -1.8236   -2.1693   C.ar      1 RES1   0.0000
    61 O2        0.7650   -2.1486   -1.0165   O.2       1 RES1   0.0000
    62 H1       -2.3216   -6.4894    2.0644   H         1 RES1   0.0000
    63 H2       -2.0208   -4.8205    2.5418   H         1 RES1   0.0000
    64 H3       -0.7398   -5.7714    1.8087   H         1 RES1   0.0000
    65 H4       -3.3267   -5.2857    0.2972   H         1 RES1   0.0000
    66 H5       -1.7463   -5.7565   -0.3303   H         1 RES1   0.0000
    67 H6       -0.8937   -3.4198    0.2570   H         1 RES1   0.0000
    68 H7       -2.5235   -3.0359    0.7883   H         1 RES1   0.0000
    69 H8       -2.1147   -2.1722   -1.4626   H         1 RES1   0.0000
    70 H9       -3.4907   -3.2449   -1.3563   H         1 RES1   0.0000
    71 H10      -2.3634   -3.6213   -3.4160   H         1 RES1   0.0000
    72 H11      -2.2237   -5.0719   -2.4312   H         1 RES1   0.0000
    73 H12      -0.0959   -4.7617   -3.4896   H         1 RES1   0.0000
    74 H13       0.1434   -4.2836   -1.7862   H         1 RES1   0.0000
    75 H14      -0.7784   -4.1799   -6.5801   H         1 RES1   0.0000
    76 H15       0.7794   -5.6314   -7.7729   H         1 RES1   0.0000
    77 H16       3.1752   -5.6189   -7.2134   H         1 RES1   0.0000
    78 H17       4.0092   -4.1463   -5.4002   H         1 RES1   0.0000
    79 H18       2.4457   -2.6468   -4.2236   H         1 RES1   0.0000
    80 H19       0.5737    1.1739   -6.1104   H         1 RES1   0.0000
    81 H20      -0.0700    1.9453   -8.3487   H         1 RES1   0.0000
    82 H21      -1.5103    0.5441   -9.7665   H         1 RES1   0.0000
    83 H22      -2.3567   -1.6119   -8.9187   H         1 RES1   0.0000
    84 H23      -1.7584   -2.3632   -6.6558   H         1 RES1   0.0000
    85 H24      -1.3647    1.6047   -4.7522   H         1 RES1   0.0000
    86 H25      -1.8443    3.8503   -3.5171   H         1 RES1   0.0000
    87 H26      -1.7879    5.1291   -1.4640   H         1 RES1   0.0000
    88 H27      -1.0286    5.3241    1.0783   H         1 RES1   0.0000
    89 H28       1.3909    6.3501    3.2586   H         1 RES1   0.0000
    90 H29       0.6940    8.6375    3.9020   H         1 RES1   0.0000
    91 H30      -1.6106    9.0437    4.6754   H         1 RES1   0.0000
    92 H31      -3.2032    7.1727    4.8870   H         1 RES1   0.0000
    93 H32      -2.4850    4.8734    4.3313   H         1 RES1   0.0000
    94 H33      -1.5429    2.6042    5.7922   H         1 RES1   0.0000
    95 H34      -2.1075    3.1798    8.1184   H         1 RES1   0.0000
    96 H35      -0.6129    4.6657    9.4109   H         1 RES1   0.0000
    97 H36       1.5365    5.3986    8.4525   H         1 RES1   0.0000
    98 H37       2.1226    4.7951    6.1356   H         1 RES1   0.0000
    99 H38       2.0998    0.4373    4.8016   H         1 RES1   0.0000
   100 H39       1.5358    1.5242    6.0879   H         1 RES1   0.0000
   101 H40       3.6004    2.4672    6.1602   H         1 RES1   0.0000
   102 H41       3.3638    3.0623    4.5260   H         1 RES1   0.0000
   103 H42       4.3928    0.2674    5.0997   H         1 RES1   0.0000
   104 H43       5.4629    1.6669    5.0832   H         1 RES1   0.0000
   105 H44       3.7697    0.8159    2.6813   H         1 RES1   0.0000
   106 H45       5.4255    0.3146    2.9787   H         1 RES1   0.0000
   107 H46       6.1709    2.6769    2.9577   H         1 RES1   0.0000
   108 H47       4.5291    3.2024    2.5690   H         1 RES1   0.0000
   109 H48       6.2128    1.2706    0.9009   H         1 RES1   0.0000
   110 H49       5.9078    2.9581    0.4937   H         1 RES1   0.0000
   111 H50       4.5579    1.7925    0.5073   H         1 RES1   0.0000
   112 N5        2.1511   -1.9439    2.4106   N.3       1 RES1   0.0000
   113 O3        2.5546   -1.9967    3.5172   O.2       1 RES1   0.0000
   114 O4        2.9213   -1.8112    1.4352   O.co2     1 RES1   0.0000
   115 O5        0.9377   -1.9923    2.1354   O.co2     1 RES1   0.0000
   116 O6        3.3919   -0.4550   -1.0024   O.3       1 RES1   0.0000
   117 H51       3.5538   -1.2847   -1.4761   H         1 RES1   0.0000
   118 H52       4.2703   -0.1652   -0.7054   H         1 RES1   0.0000
@<TRIPOS>BOND
     1     1     8    1
     2     1    45    1
     3     1    53    1
     4     1    55    1
     5     1    58    1
     6     1    61    1
     7     1   114    1
     8     1   115    1
     9     1   116    1
    10     2     3    1
    11     2    62    1
    12     2    63    1
    13     2    64    1
    14     3     4    1
    15     3    65    1
    16     3    66    1
    17     4     5    1
    18     4    67    1
    19     4    68    1
    20     5     6    1
    21     5    69    1
    22     5    70    1
    23     6     7    1
    24     6    71    1
    25     6    72    1
    26     7     8    1
    27     7    73    1
    28     7    74    1
    29     8     9    1
    30     8    60    1
    31     9    10    1
    32     9    16    2
    33    10    11    1
    34    10    15    2
    35    11    12    2
    36    11    75    1
    37    12    13    1
    38    12    76    1
    39    13    14    2
    40    13    77    1
    41    14    15    1
    42    14    78    1
    43    15    79    1
    44    16    17    1
    45    16    23    1
    46    17    18    1
    47    17    22    2
    48    18    19    2
    49    18    80    1
    50    19    20    1
    51    19    81    1
    52    20    21    2
    53    20    82    1
    54    21    22    1
    55    21    83    1
    56    22    84    1
    57    23    24    1
    58    23    59    2
    59    24    25    2
    60    24    85    1
    61    25    26    1
    62    25    57    1
    63    26    27    2
    64    26    86    1
    65    27    28    1
    66    27    87    1
    67    28    29    1
    68    28    56    2
    69    29    30    2
    70    29    88    1
    71    30    31    1
    72    30    54    1
    73    31    32    1
    74    31    38    2
    75    32    33    1
    76    32    37    2
    77    33    34    2
    78    33    89    1
    79    34    35    1
    80    34    90    1
    81    35    36    2
    82    35    91    1
    83    36    37    1
    84    36    92    1
    85    37    93    1
    86    38    39    1
    87    38    45    1
    88    39    40    1
    89    39    44    2
    90    40    41    2
    91    40    94    1
    92    41    42    1
    93    41    95    1
    94    42    43    2
    95    42    96    1
    96    43    44    1
    97    43    97    1
    98    44    98    1
    99    45    46    1
   100    45    52    1
   101    46    47    1
   102    46    99    1
   103    46   100    1
   104    47    48    1
   105    47   101    1
   106    47   102    1
   107    48    49    1
   108    48   103    1
   109    48   104    1
   110    49    50    1
   111    49   105    1
   112    49   106    1
   113    50    51    1
   114    50   107    1
   115    50   108    1
   116    51   109    1
   117    51   110    1
   118    51   111    1
   119    52    53    2
   120    52    54    1
   121    54    55    2
   122    55    56    1
   123    56    57    1
   124    57    58    2
   125    58    59    1
   126    59    60    1
   127    60    61    2
   128   112   113    2
   129   112   114    1
   130   112   115    1
   131   116   117    1
   132   116   118    1
@<TRIPOS>SUBSTRUCTURE
     1 RES1      118 GROUP             0 ****  ****    0  
