@<TRIPOS>MOLECULE
am_c3_9H2O_c0_0_nunpairedes_0_charge_3 Charge: 3 Unpaired_Electrons: 6 XTB_Unpaired_Electrons: 0 XTB_Charge: 3
   334   342     1     0     0
SMALL
NoCharges
****
Generated from Architector

@<TRIPOS>ATOM
     1 Eu1      -0.1521    0.0956   -0.0401   Eu        1 RES1   0.0000
     2 C1       -2.5116    9.3432   -0.0765   C.3       1 RES1   0.0000
     3 C2       -2.7014    7.9131   -0.5952   C.3       1 RES1   0.0000
     4 C3       -1.5349    7.4852   -1.4506   C.ar      1 RES1   0.0000
     5 C4       -0.4664    6.7720   -0.8982   C.ar      1 RES1   0.0000
     6 C5       -0.5449    6.3610    0.5645   C.3       1 RES1   0.0000
     7 C6       -1.7108    5.4052    0.9295   C.3       1 RES1   0.0000
     8 N1       -1.3028    4.0739    1.3795   N.am      1 RES1   0.0000
     9 C7       -1.3766    2.9387    0.6847   C.2       1 RES1   0.0000
    10 O1       -1.1698    1.8289    1.2046   O.2       1 RES1   0.0000
    11 C8       -1.6904    3.0501   -0.8036   C.3       1 RES1   0.0000
    12 O2       -1.4498    1.7972   -1.4425   O.3       1 RES1   0.0000
    13 C9       -2.5729    1.2271   -2.0900   C.3       1 RES1   0.0000
    14 C10      -2.8820   -0.1329   -1.4706   C.2       1 RES1   0.0000
    15 O3       -2.2404   -0.5331   -0.4776   O.2       1 RES1   0.0000
    16 N2       -3.7684   -0.9082   -2.0715   N.am      1 RES1   0.0000
    17 C11      -3.8014   -2.2887   -1.6222   C.3       1 RES1   0.0000
    18 C12      -4.6734   -0.4666   -3.1109   C.3       1 RES1   0.0000
    19 C13       0.6878    6.5529   -1.6614   C.ar      1 RES1   0.0000
    20 C14       1.8814    5.8354   -1.0749   C.3       1 RES1   0.0000
    21 C15       1.7277    4.3198   -1.2134   C.3       1 RES1   0.0000
    22 C16       0.7485    6.9986   -2.9893   C.ar      1 RES1   0.0000
    23 C17       2.0424    6.8999   -3.7787   C.3       1 RES1   0.0000
    24 C18       2.5466    5.5154   -4.2149   C.3       1 RES1   0.0000
    25 N3        1.5279    4.6614   -4.8019   N.am      1 RES1   0.0000
    26 C19       1.8662    3.6197   -5.5793   C.2       1 RES1   0.0000
    27 O4        3.0059    3.2699   -5.8032   O.2       1 RES1   0.0000
    28 C20       0.6728    2.9127   -6.2390   C.3       1 RES1   0.0000
    29 O5       -0.4257    2.8281   -5.3522   O.3       1 RES1   0.0000
    30 C21      -1.6546    2.5204   -5.9793   C.3       1 RES1   0.0000
    31 C22      -2.2557    3.7492   -6.6797   C.2       1 RES1   0.0000
    32 O6       -2.7722    4.6032   -5.9712   O.2       1 RES1   0.0000
    33 N4       -2.1817    3.8692   -8.0141   N.am      1 RES1   0.0000
    34 C23      -2.7521    5.0490   -8.6440   C.3       1 RES1   0.0000
    35 C24      -1.6598    2.9169   -8.9687   C.3       1 RES1   0.0000
    36 C25      -0.3569    7.6474   -3.5666   C.ar      1 RES1   0.0000
    37 C26      -0.3107    8.1395   -4.9968   C.3       1 RES1   0.0000
    38 C27      -0.4726    7.0280   -6.0369   C.3       1 RES1   0.0000
    39 C28      -1.4999    7.8850   -2.7923   C.ar      1 RES1   0.0000
    40 C29      -2.7163    8.5748   -3.3803   C.3       1 RES1   0.0000
    41 C30      -3.6757    7.5735   -4.0636   C.3       1 RES1   0.0000
    42 N5       -4.9850    7.5738   -3.4367   N.am      1 RES1   0.0000
    43 C31      -5.9254    6.6042   -3.4094   C.2       1 RES1   0.0000
    44 O7       -6.7592    6.5546   -2.5281   O.2       1 RES1   0.0000
    45 C32      -5.9386    5.6389   -4.6018   C.3       1 RES1   0.0000
    46 O8       -6.0812    4.2839   -4.2330   O.3       1 RES1   0.0000
    47 C33      -4.9652    3.8077   -3.5347   C.3       1 RES1   0.0000
    48 C34      -4.8886    4.2217   -2.0623   C.2       1 RES1   0.0000
    49 O9       -3.8565    4.7531   -1.6370   O.2       1 RES1   0.0000
    50 N6       -5.8674    3.8388   -1.2420   N.am      1 RES1   0.0000
    51 C35      -5.7532    4.1361    0.1744   C.3       1 RES1   0.0000
    52 C36      -7.1365    3.2808   -1.6492   C.3       1 RES1   0.0000
    53 H1       -3.3852    9.6394    0.4993   H         1 RES1   0.0000
    54 H2       -2.3618   10.0620   -0.8771   H         1 RES1   0.0000
    55 H3       -1.6389    9.3977    0.5689   H         1 RES1   0.0000
    56 H4       -3.6275    7.8356   -1.1585   H         1 RES1   0.0000
    57 H5       -2.8263    7.2727    0.2667   H         1 RES1   0.0000
    58 H6       -0.6750    7.2715    1.1510   H         1 RES1   0.0000
    59 H7        0.3838    5.9033    0.8978   H         1 RES1   0.0000
    60 H8       -2.3807    5.2942    0.0785   H         1 RES1   0.0000
    61 H9       -2.2730    5.8251    1.7676   H         1 RES1   0.0000
    62 H10      -1.1335    3.9750    2.3765   H         1 RES1   0.0000
    63 H11      -1.0691    3.8131   -1.2932   H         1 RES1   0.0000
    64 H12      -2.7352    3.3829   -0.9167   H         1 RES1   0.0000
    65 H13      -2.3041    1.0898   -3.1459   H         1 RES1   0.0000
    66 H14      -3.4425    1.8865   -2.0326   H         1 RES1   0.0000
    67 H15      -4.0548   -2.3347   -0.5601   H         1 RES1   0.0000
    68 H16      -2.8049   -2.7217   -1.7580   H         1 RES1   0.0000
    69 H17      -4.5453   -2.8331   -2.1967   H         1 RES1   0.0000
    70 H18      -4.1720   -0.3802   -4.0773   H         1 RES1   0.0000
    71 H19      -5.1152    0.4950   -2.8569   H         1 RES1   0.0000
    72 H20      -5.4964   -1.1775   -3.1719   H         1 RES1   0.0000
    73 H21       2.0197    6.0956   -0.0232   H         1 RES1   0.0000
    74 H22       2.7848    6.1502   -1.5917   H         1 RES1   0.0000
    75 H23       2.6255    3.8014   -0.8785   H         1 RES1   0.0000
    76 H24       1.5309    4.0487   -2.2460   H         1 RES1   0.0000
    77 H25       0.8853    3.9622   -0.6291   H         1 RES1   0.0000
    78 H26       2.8439    7.3540   -3.1876   H         1 RES1   0.0000
    79 H27       1.9637    7.5007   -4.6793   H         1 RES1   0.0000
    80 H28       3.0174    4.9825   -3.3857   H         1 RES1   0.0000
    81 H29       3.3203    5.6574   -4.9779   H         1 RES1   0.0000
    82 H30       0.5568    4.8115   -4.5647   H         1 RES1   0.0000
    83 H31       0.9889    1.9081   -6.5586   H         1 RES1   0.0000
    84 H32       0.4208    3.5009   -7.1323   H         1 RES1   0.0000
    85 H33      -2.3364    2.2806   -5.1607   H         1 RES1   0.0000
    86 H34      -1.5617    1.6396   -6.6202   H         1 RES1   0.0000
    87 H35      -3.1311    5.7149   -7.8714   H         1 RES1   0.0000
    88 H36      -3.5686    4.7637   -9.3111   H         1 RES1   0.0000
    89 H37      -1.9864    5.5666   -9.2254   H         1 RES1   0.0000
    90 H38      -1.1994    2.0552   -8.4991   H         1 RES1   0.0000
    91 H39      -0.9089    3.4022   -9.5951   H         1 RES1   0.0000
    92 H40      -2.4639    2.5661   -9.6202   H         1 RES1   0.0000
    93 H41       0.6181    8.6818   -5.1883   H         1 RES1   0.0000
    94 H42      -1.1100    8.8558   -5.1631   H         1 RES1   0.0000
    95 H43       0.3825    6.3582   -6.0411   H         1 RES1   0.0000
    96 H44      -0.5468    7.4716   -7.0277   H         1 RES1   0.0000
    97 H45      -1.3779    6.4592   -5.8370   H         1 RES1   0.0000
    98 H46      -2.4286    9.3333   -4.1049   H         1 RES1   0.0000
    99 H47      -3.2447    9.1162   -2.6015   H         1 RES1   0.0000
   100 H48      -3.2465    6.5703   -3.9849   H         1 RES1   0.0000
   101 H49      -3.7749    7.8314   -5.1226   H         1 RES1   0.0000
   102 H50      -5.1607    8.3253   -2.7846   H         1 RES1   0.0000
   103 H51      -5.0426    5.7466   -5.2227   H         1 RES1   0.0000
   104 H52      -6.8392    5.8615   -5.1810   H         1 RES1   0.0000
   105 H53      -4.0469    4.1383   -4.0421   H         1 RES1   0.0000
   106 H54      -5.0225    2.7123   -3.5680   H         1 RES1   0.0000
   107 H55      -4.8828    4.7730    0.3242   H         1 RES1   0.0000
   108 H56      -5.6372    3.2147    0.7547   H         1 RES1   0.0000
   109 H57      -6.6399    4.6710    0.5117   H         1 RES1   0.0000
   110 H58      -7.2248    3.2430   -2.7299   H         1 RES1   0.0000
   111 H59      -7.9335    3.9211   -1.2688   H         1 RES1   0.0000
   112 H60      -7.2490    2.2763   -1.2310   H         1 RES1   0.0000
   113 C37       4.5980    6.2179    6.1782   C.3       1 RES1   0.0000
   114 C38       4.4992    5.0934    5.1403   C.3       1 RES1   0.0000
   115 C39       3.6834    3.9510    5.6945   C.ar      1 RES1   0.0000
   116 C40       2.3504    3.7900    5.3108   C.ar      1 RES1   0.0000
   117 C41       1.9175    4.4753    4.0334   C.3       1 RES1   0.0000
   118 C42       2.7474    3.8360    2.8957   C.3       1 RES1   0.0000
   119 N7        1.9192    3.2866    1.8504   N.am      1 RES1   0.0000
   120 C43       1.8215    2.0532    1.3861   C.2       1 RES1   0.0000
   121 O10       1.1908    1.8273    0.3350   O.2       1 RES1   0.0000
   122 C44       2.4305    0.8630    2.1238   C.3       1 RES1   0.0000
   123 O11       2.2562   -0.3306    1.3523   O.3       1 RES1   0.0000
   124 C45       3.3515   -0.6815    0.5161   C.3       1 RES1   0.0000
   125 C46       2.9807   -0.5772   -0.9666   C.2       1 RES1   0.0000
   126 O12       1.8446   -0.1869   -1.2745   O.2       1 RES1   0.0000
   127 N8        3.8889   -0.8926   -1.8876   N.am      1 RES1   0.0000
   128 C47       3.5656   -0.6942   -3.2917   C.3       1 RES1   0.0000
   129 C48       5.1866   -1.4969   -1.6724   C.3       1 RES1   0.0000
   130 C49       1.5141    2.8926    5.9776   C.ar      1 RES1   0.0000
   131 C50       0.0408    2.8649    5.6273   C.3       1 RES1   0.0000
   132 C51      -0.3179    1.9825    4.4228   C.3       1 RES1   0.0000
   133 C52       2.0383    2.1041    7.0114   C.ar      1 RES1   0.0000
   134 C53       1.1223    1.2314    7.8479   C.3       1 RES1   0.0000
   135 C54       0.4486    0.0364    7.1628   C.3       1 RES1   0.0000
   136 N9        1.3826   -0.8399    6.4806   N.am      1 RES1   0.0000
   137 C55       1.1029   -2.1266    6.2344   C.2       1 RES1   0.0000
   138 O13       0.0257   -2.6548    6.4306   O.2       1 RES1   0.0000
   139 C56       2.3063   -2.8984    5.6793   C.3       1 RES1   0.0000
   140 O14       2.7349   -2.2493    4.4973   O.3       1 RES1   0.0000
   141 C57       3.9708   -2.7073    3.9910   C.3       1 RES1   0.0000
   142 C58       5.1529   -2.3376    4.9015   C.2       1 RES1   0.0000
   143 O15       5.5455   -1.1780    4.8757   O.2       1 RES1   0.0000
   144 N10       5.7036   -3.2746    5.6874   N.am      1 RES1   0.0000
   145 C59       6.8382   -2.9173    6.5244   C.3       1 RES1   0.0000
   146 C60       5.3465   -4.6725    5.7929   C.3       1 RES1   0.0000
   147 C61       3.4098    2.1762    7.3171   C.ar      1 RES1   0.0000
   148 C62       4.0075    1.3260    8.4139   C.3       1 RES1   0.0000
   149 C63       4.3419   -0.0994    7.9691   C.3       1 RES1   0.0000
   150 C64       4.2353    3.0875    6.6441   C.ar      1 RES1   0.0000
   151 C65       5.7389    3.0974    6.8228   C.3       1 RES1   0.0000
   152 C66       6.4118    2.1951    5.7626   C.3       1 RES1   0.0000
   153 N11       7.2688    2.9570    4.8727   N.am      1 RES1   0.0000
   154 C67       7.7613    2.6356    3.6535   C.2       1 RES1   0.0000
   155 O16       8.0725    3.4941    2.8526   O.2       1 RES1   0.0000
   156 C68       7.9922    1.1467    3.3748   C.3       1 RES1   0.0000
   157 O17       7.7426    0.7798    2.0333   O.3       1 RES1   0.0000
   158 C69       6.3842    0.7092    1.7071   C.3       1 RES1   0.0000
   159 C70       5.7882    1.9670    1.0549   C.2       1 RES1   0.0000
   160 O18       4.7697    2.4619    1.5445   O.2       1 RES1   0.0000
   161 N12       6.3342    2.4346   -0.0638   N.am      1 RES1   0.0000
   162 C71       5.8418    3.6728   -0.6381   C.3       1 RES1   0.0000
   163 C72       7.3464    1.7566   -0.8373   C.3       1 RES1   0.0000
   164 H61       5.2108    7.0243    5.7843   H         1 RES1   0.0000
   165 H62       5.0296    5.8770    7.1150   H         1 RES1   0.0000
   166 H63       3.6102    6.6129    6.4019   H         1 RES1   0.0000
   167 H64       5.4906    4.7614    4.8450   H         1 RES1   0.0000
   168 H65       4.0497    5.5160    4.2487   H         1 RES1   0.0000
   169 H66       2.0843    5.5514    4.0799   H         1 RES1   0.0000
   170 H67       0.8615    4.3252    3.8304   H         1 RES1   0.0000
   171 H68       3.3708    3.0460    3.3038   H         1 RES1   0.0000
   172 H69       3.4138    4.5618    2.4252   H         1 RES1   0.0000
   173 H70       1.4788    3.9914    1.2658   H         1 RES1   0.0000
   174 H71       1.9291    0.7038    3.0850   H         1 RES1   0.0000
   175 H72       3.4883    1.0790    2.2984   H         1 RES1   0.0000
   176 H73       3.6657   -1.7039    0.7645   H         1 RES1   0.0000
   177 H74       4.1873   -0.0074    0.6939   H         1 RES1   0.0000
   178 H75       2.5766   -0.2463   -3.3709   H         1 RES1   0.0000
   179 H76       3.5853   -1.6518   -3.8141   H         1 RES1   0.0000
   180 H77       4.2954   -0.0252   -3.7505   H         1 RES1   0.0000
   181 H78       5.4559   -1.5717   -0.6255   H         1 RES1   0.0000
   182 H79       5.9563   -0.9202   -2.1857   H         1 RES1   0.0000
   183 H80       5.1911   -2.4997   -2.1049   H         1 RES1   0.0000
   184 H81      -0.2875    3.8886    5.4266   H         1 RES1   0.0000
   185 H82      -0.5198    2.5196    6.4942   H         1 RES1   0.0000
   186 H83       0.1038    2.3657    3.4965   H         1 RES1   0.0000
   187 H84      -1.3987    1.9324    4.3010   H         1 RES1   0.0000
   188 H85       0.0604    0.9711    4.5524   H         1 RES1   0.0000
   189 H86       0.3243    1.8605    8.2533   H         1 RES1   0.0000
   190 H87       1.6636    0.8386    8.7025   H         1 RES1   0.0000
   191 H88      -0.3074    0.3677    6.4508   H         1 RES1   0.0000
   192 H89      -0.0531   -0.5685    7.9269   H         1 RES1   0.0000
   193 H90       2.2520   -0.4472    6.1446   H         1 RES1   0.0000
   194 H91       2.0205   -3.9390    5.4731   H         1 RES1   0.0000
   195 H92       3.0891   -2.8891    6.4502   H         1 RES1   0.0000
   196 H93       4.1099   -2.1384    3.0709   H         1 RES1   0.0000
   197 H94       3.9217   -3.7717    3.7444   H         1 RES1   0.0000
   198 H95       7.0627   -1.8613    6.3865   H         1 RES1   0.0000
   199 H96       7.7116   -3.5143    6.2500   H         1 RES1   0.0000
   200 H97       6.6010   -3.1046    7.5743   H         1 RES1   0.0000
   201 H98       4.4730   -4.9327    5.2071   H         1 RES1   0.0000
   202 H99       5.1353   -4.9174    6.8354   H         1 RES1   0.0000
   203 H100      6.1804   -5.2968    5.4639   H         1 RES1   0.0000
   204 H101      3.3454    1.2895    9.2805   H         1 RES1   0.0000
   205 H102      4.9239    1.7907    8.7670   H         1 RES1   0.0000
   206 H103      3.4368   -0.6741    7.7930   H         1 RES1   0.0000
   207 H104      4.9010   -0.6064    8.7518   H         1 RES1   0.0000
   208 H105      4.9449   -0.0838    7.0634   H         1 RES1   0.0000
   209 H106      6.0400    2.7475    7.8048   H         1 RES1   0.0000
   210 H107      6.1213    4.1116    6.7478   H         1 RES1   0.0000
   211 H108      5.6310    1.7050    5.1685   H         1 RES1   0.0000
   212 H109      6.9925    1.4189    6.2691   H         1 RES1   0.0000
   213 H110      7.3489    3.9422    5.0830   H         1 RES1   0.0000
   214 H111      7.4060    0.5052    4.0445   H         1 RES1   0.0000
   215 H112      9.0632    0.9620    3.5105   H         1 RES1   0.0000
   216 H113      5.8033    0.4928    2.6141   H         1 RES1   0.0000
   217 H114      6.2732   -0.1338    1.0110   H         1 RES1   0.0000
   218 H115      5.2724    4.2148    0.1162   H         1 RES1   0.0000
   219 H116      5.2012    3.4740   -1.5041   H         1 RES1   0.0000
   220 H117      6.6888    4.2839   -0.9499   H         1 RES1   0.0000
   221 H118      7.7771    0.9282   -0.2860   H         1 RES1   0.0000
   222 H119      8.1471    2.4512   -1.0866   H         1 RES1   0.0000
   223 H120      6.8950    1.3965   -1.7684   H         1 RES1   0.0000
   224 C73      -2.6873   -6.5369   -0.1325   C.3       1 RES1   0.0000
   225 C74      -3.1680   -5.1646    0.3567   C.3       1 RES1   0.0000
   226 C75      -3.8531   -5.2642    1.6980   C.ar      1 RES1   0.0000
   227 C76      -3.1032   -5.3092    2.8810   C.ar      1 RES1   0.0000
   228 C77      -1.5832   -5.4072    2.8174   C.3       1 RES1   0.0000
   229 C78      -0.7112   -4.3525    3.5355   C.3       1 RES1   0.0000
   230 N13      -0.9266   -2.9910    3.0763   N.am      1 RES1   0.0000
   231 C79      -0.3311   -2.3528    2.0887   C.2       1 RES1   0.0000
   232 O19      -0.5099   -1.1424    1.8736   O.2       1 RES1   0.0000
   233 C80       0.5888   -3.1424    1.1366   C.3       1 RES1   0.0000
   234 O20       0.5462   -2.4344   -0.0966   O.3       1 RES1   0.0000
   235 C81       0.6098   -3.2242   -1.2678   C.3       1 RES1   0.0000
   236 C82      -0.0316   -2.3808   -2.3840   C.2       1 RES1   0.0000
   237 O21      -0.3941   -1.2225   -2.1401   O.2       1 RES1   0.0000
   238 N14      -0.2085   -2.9349   -3.5796   N.am      1 RES1   0.0000
   239 C83      -0.8952   -2.1740   -4.6103   C.3       1 RES1   0.0000
   240 C84       0.2008   -4.2586   -3.9943   C.3       1 RES1   0.0000
   241 C85      -3.7682   -5.4242    4.1059   C.ar      1 RES1   0.0000
   242 C86      -2.9568   -5.6807    5.3570   C.3       1 RES1   0.0000
   243 C87      -2.7122   -4.4627    6.2554   C.3       1 RES1   0.0000
   244 C88      -5.1702   -5.4170    4.1382   C.ar      1 RES1   0.0000
   245 C89      -5.8324   -5.3502    5.4926   C.3       1 RES1   0.0000
   246 C90      -6.1190   -3.8924    5.9011   C.3       1 RES1   0.0000
   247 N15      -7.3381   -3.3807    5.3287   N.am      1 RES1   0.0000
   248 C91      -7.6216   -2.1458    4.8665   C.2       1 RES1   0.0000
   249 O22      -8.7438   -1.8194    4.5578   O.2       1 RES1   0.0000
   250 C92      -6.4399   -1.1689    4.7642   C.3       1 RES1   0.0000
   251 O23      -5.5007   -1.6590    3.8213   O.3       1 RES1   0.0000
   252 C93      -4.2131   -1.0895    3.8626   C.3       1 RES1   0.0000
   253 C94      -4.2422    0.4416    3.8900   C.2       1 RES1   0.0000
   254 O24      -4.5335    1.0750    2.8886   O.2       1 RES1   0.0000
   255 N16      -3.9507    1.0601    5.0549   N.am      1 RES1   0.0000
   256 C95      -3.4668    0.4048    6.2506   C.3       1 RES1   0.0000
   257 C96      -4.1779    2.4958    5.1058   C.3       1 RES1   0.0000
   258 C97      -5.9152   -5.4624    2.9484   C.ar      1 RES1   0.0000
   259 C98      -7.4038   -5.7278    2.9970   C.3       1 RES1   0.0000
   260 C99      -8.3328   -4.6156    2.4922   C.3       1 RES1   0.0000
   261 C100     -5.2468   -5.4090    1.7174   C.ar      1 RES1   0.0000
   262 C101     -6.0221   -5.6323    0.4310   C.3       1 RES1   0.0000
   263 C102     -6.5437   -4.4059   -0.3523   C.3       1 RES1   0.0000
   264 N17      -6.4755   -3.1525    0.3701   N.am      1 RES1   0.0000
   265 C103     -6.6428   -1.9858   -0.2664   C.2       1 RES1   0.0000
   266 O25      -6.6250   -1.8545   -1.4835   O.2       1 RES1   0.0000
   267 C104     -6.7338   -0.7728    0.6665   C.3       1 RES1   0.0000
   268 O26      -7.8730   -0.8157    1.4826   O.3       1 RES1   0.0000
   269 C105     -9.0634   -0.5125    0.7915   C.3       1 RES1   0.0000
   270 C106     -9.3490   -1.5126   -0.3309   C.2       1 RES1   0.0000
   271 O27      -9.2561   -2.7089   -0.1049   O.2       1 RES1   0.0000
   272 N18      -9.7708   -1.0502   -1.5282   N.am      1 RES1   0.0000
   273 C107     -9.4999    0.2427   -2.1096   C.3       1 RES1   0.0000
   274 C108    -10.2171   -2.0252   -2.5057   C.3       1 RES1   0.0000
   275 H121     -2.2118   -6.4389   -1.1077   H         1 RES1   0.0000
   276 H122     -3.5304   -7.2183   -0.2202   H         1 RES1   0.0000
   277 H123     -1.9832   -6.9896    0.5628   H         1 RES1   0.0000
   278 H124     -3.8714   -4.7560   -0.3652   H         1 RES1   0.0000
   279 H125     -2.3313   -4.4588    0.4093   H         1 RES1   0.0000
   280 H126     -1.2791   -5.4042    1.7762   H         1 RES1   0.0000
   281 H127     -1.2879   -6.3821    3.2229   H         1 RES1   0.0000
   282 H128      0.3387   -4.6166    3.3743   H         1 RES1   0.0000
   283 H129     -0.8831   -4.3421    4.6097   H         1 RES1   0.0000
   284 H130     -1.5665   -2.4344    3.6351   H         1 RES1   0.0000
   285 H131      0.2397   -4.1738    1.0190   H         1 RES1   0.0000
   286 H132      1.6127   -3.1487    1.5408   H         1 RES1   0.0000
   287 H133      0.0470   -4.1587   -1.1394   H         1 RES1   0.0000
   288 H134      1.6539   -3.4660   -1.5187   H         1 RES1   0.0000
   289 H135     -1.1113   -1.1784   -4.2266   H         1 RES1   0.0000
   290 H136     -1.8280   -2.6780   -4.8746   H         1 RES1   0.0000
   291 H137     -0.2578   -2.0935   -5.4921   H         1 RES1   0.0000
   292 H138      0.8475   -4.7436   -3.2714   H         1 RES1   0.0000
   293 H139      0.7452   -4.1749   -4.9362   H         1 RES1   0.0000
   294 H140     -0.6753   -4.8886   -4.1635   H         1 RES1   0.0000
   295 H141     -1.9974   -6.1020    5.0656   H         1 RES1   0.0000
   296 H142     -3.4438   -6.4584    5.9467   H         1 RES1   0.0000
   297 H143     -2.4934   -3.5722    5.6701   H         1 RES1   0.0000
   298 H144     -1.8628   -4.6433    6.9097   H         1 RES1   0.0000
   299 H145     -3.5738   -4.2537    6.8809   H         1 RES1   0.0000
   300 H146     -5.1605   -5.7751    6.2333   H         1 RES1   0.0000
   301 H147     -6.7525   -5.9296    5.5464   H         1 RES1   0.0000
   302 H148     -5.2824   -3.2787    5.5720   H         1 RES1   0.0000
   303 H149     -6.1970   -3.8499    6.9965   H         1 RES1   0.0000
   304 H150     -8.1501   -3.9750    5.4332   H         1 RES1   0.0000
   305 H151     -5.9948   -1.0610    5.7610   H         1 RES1   0.0000
   306 H152     -6.8385   -0.2024    4.4414   H         1 RES1   0.0000
   307 H153     -3.7463   -1.4008    2.9224   H         1 RES1   0.0000
   308 H154     -3.6508   -1.5050    4.7081   H         1 RES1   0.0000
   309 H155     -4.2221   -0.2326    6.7115   H         1 RES1   0.0000
   310 H156     -3.1876    1.1665    6.9736   H         1 RES1   0.0000
   311 H157     -2.5861   -0.2035    6.0366   H         1 RES1   0.0000
   312 H158     -5.2470    2.7097    5.1781   H         1 RES1   0.0000
   313 H159     -3.8110    2.9510    4.1838   H         1 RES1   0.0000
   314 H160     -3.6683    2.9229    5.9665   H         1 RES1   0.0000
   315 H161     -7.6997   -5.9509    4.0180   H         1 RES1   0.0000
   316 H162     -7.6029   -6.6422    2.4285   H         1 RES1   0.0000
   317 H163     -8.0022   -3.6360    2.8282   H         1 RES1   0.0000
   318 H164     -9.3312   -4.7743    2.8940   H         1 RES1   0.0000
   319 H165     -8.4342   -4.6057    1.4133   H         1 RES1   0.0000
   320 H166     -6.8776   -6.2560    0.6746   H         1 RES1   0.0000
   321 H167     -5.4188   -6.2279   -0.2531   H         1 RES1   0.0000
   322 H168     -7.5754   -4.5937   -0.6656   H         1 RES1   0.0000
   323 H169     -5.9787   -4.2547   -1.2744   H         1 RES1   0.0000
   324 H170     -6.7368   -3.1781    1.3468   H         1 RES1   0.0000
   325 H171     -6.7303    0.1488    0.0578   H         1 RES1   0.0000
   326 H172     -5.8747   -0.7712    1.3458   H         1 RES1   0.0000
   327 H173     -9.0298    0.5269    0.4477   H         1 RES1   0.0000
   328 H174     -9.8580   -0.6253    1.5341   H         1 RES1   0.0000
   329 H175     -9.3813    1.0276   -1.3714   H         1 RES1   0.0000
   330 H176    -10.3312    0.5239   -2.7544   H         1 RES1   0.0000
   331 H177     -8.5917    0.1861   -2.7207   H         1 RES1   0.0000
   332 H178    -10.5451   -2.9232   -1.9862   H         1 RES1   0.0000
   333 H179     -9.4108   -2.2868   -3.1967   H         1 RES1   0.0000
   334 H180    -11.0525   -1.6025   -3.0647   H         1 RES1   0.0000
@<TRIPOS>BOND
     1     1    10    1
     2     1    12    1
     3     1    15    1
     4     1   121    1
     5     1   123    1
     6     1   126    1
     7     1   232    1
     8     1   234    1
     9     1   237    1
    10     2     3    1
    11     2    53    1
    12     2    54    1
    13     2    55    1
    14     3     4    1
    15     3    56    1
    16     3    57    1
    17     4     5    1
    18     4    39    2
    19     5     6    1
    20     5    19    2
    21     6     7    1
    22     6    58    1
    23     6    59    1
    24     7     8    1
    25     7    60    1
    26     7    61    1
    27     8     9    1
    28     8    62    1
    29     9    10    2
    30     9    11    1
    31    11    12    1
    32    11    63    1
    33    11    64    1
    34    12    13    1
    35    13    14    1
    36    13    65    1
    37    13    66    1
    38    14    15    2
    39    14    16    1
    40    16    17    1
    41    16    18    1
    42    17    67    1
    43    17    68    1
    44    17    69    1
    45    18    70    1
    46    18    71    1
    47    18    72    1
    48    19    20    1
    49    19    22    1
    50    20    21    1
    51    20    73    1
    52    20    74    1
    53    21    75    1
    54    21    76    1
    55    21    77    1
    56    22    23    1
    57    22    36    2
    58    23    24    1
    59    23    78    1
    60    23    79    1
    61    24    25    1
    62    24    80    1
    63    24    81    1
    64    25    26    1
    65    25    82    1
    66    26    27    2
    67    26    28    1
    68    28    29    1
    69    28    83    1
    70    28    84    1
    71    29    30    1
    72    30    31    1
    73    30    85    1
    74    30    86    1
    75    31    32    2
    76    31    33    1
    77    33    34    1
    78    33    35    1
    79    34    87    1
    80    34    88    1
    81    34    89    1
    82    35    90    1
    83    35    91    1
    84    35    92    1
    85    36    37    1
    86    36    39    1
    87    37    38    1
    88    37    93    1
    89    37    94    1
    90    38    95    1
    91    38    96    1
    92    38    97    1
    93    39    40    1
    94    40    41    1
    95    40    98    1
    96    40    99    1
    97    41    42    1
    98    41   100    1
    99    41   101    1
   100    42    43    1
   101    42   102    1
   102    43    44    2
   103    43    45    1
   104    45    46    1
   105    45   103    1
   106    45   104    1
   107    46    47    1
   108    47    48    1
   109    47   105    1
   110    47   106    1
   111    48    49    2
   112    48    50    1
   113    50    51    1
   114    50    52    1
   115    51   107    1
   116    51   108    1
   117    51   109    1
   118    52   110    1
   119    52   111    1
   120    52   112    1
   121   113   114    1
   122   113   164    1
   123   113   165    1
   124   113   166    1
   125   114   115    1
   126   114   167    1
   127   114   168    1
   128   115   116    1
   129   115   150    2
   130   116   117    1
   131   116   130    2
   132   117   118    1
   133   117   169    1
   134   117   170    1
   135   118   119    1
   136   118   171    1
   137   118   172    1
   138   119   120    1
   139   119   173    1
   140   120   121    2
   141   120   122    1
   142   122   123    1
   143   122   174    1
   144   122   175    1
   145   123   124    1
   146   124   125    1
   147   124   176    1
   148   124   177    1
   149   125   126    2
   150   125   127    1
   151   127   128    1
   152   127   129    1
   153   128   178    1
   154   128   179    1
   155   128   180    1
   156   129   181    1
   157   129   182    1
   158   129   183    1
   159   130   131    1
   160   130   133    1
   161   131   132    1
   162   131   184    1
   163   131   185    1
   164   132   186    1
   165   132   187    1
   166   132   188    1
   167   133   134    1
   168   133   147    2
   169   134   135    1
   170   134   189    1
   171   134   190    1
   172   135   136    1
   173   135   191    1
   174   135   192    1
   175   136   137    1
   176   136   193    1
   177   137   138    2
   178   137   139    1
   179   139   140    1
   180   139   194    1
   181   139   195    1
   182   140   141    1
   183   141   142    1
   184   141   196    1
   185   141   197    1
   186   142   143    2
   187   142   144    1
   188   144   145    1
   189   144   146    1
   190   145   198    1
   191   145   199    1
   192   145   200    1
   193   146   201    1
   194   146   202    1
   195   146   203    1
   196   147   148    1
   197   147   150    1
   198   148   149    1
   199   148   204    1
   200   148   205    1
   201   149   206    1
   202   149   207    1
   203   149   208    1
   204   150   151    1
   205   151   152    1
   206   151   209    1
   207   151   210    1
   208   152   153    1
   209   152   211    1
   210   152   212    1
   211   153   154    1
   212   153   213    1
   213   154   155    2
   214   154   156    1
   215   156   157    1
   216   156   214    1
   217   156   215    1
   218   157   158    1
   219   158   159    1
   220   158   216    1
   221   158   217    1
   222   159   160    2
   223   159   161    1
   224   161   162    1
   225   161   163    1
   226   162   218    1
   227   162   219    1
   228   162   220    1
   229   163   221    1
   230   163   222    1
   231   163   223    1
   232   224   225    1
   233   224   275    1
   234   224   276    1
   235   224   277    1
   236   225   226    1
   237   225   278    1
   238   225   279    1
   239   226   227    1
   240   226   261    2
   241   227   228    1
   242   227   241    2
   243   228   229    1
   244   228   280    1
   245   228   281    1
   246   229   230    1
   247   229   282    1
   248   229   283    1
   249   230   231    1
   250   230   284    1
   251   231   232    2
   252   231   233    1
   253   233   234    1
   254   233   285    1
   255   233   286    1
   256   234   235    1
   257   235   236    1
   258   235   287    1
   259   235   288    1
   260   236   237    2
   261   236   238    1
   262   238   239    1
   263   238   240    1
   264   239   289    1
   265   239   290    1
   266   239   291    1
   267   240   292    1
   268   240   293    1
   269   240   294    1
   270   241   242    1
   271   241   244    1
   272   242   243    1
   273   242   295    1
   274   242   296    1
   275   243   297    1
   276   243   298    1
   277   243   299    1
   278   244   245    1
   279   244   258    2
   280   245   246    1
   281   245   300    1
   282   245   301    1
   283   246   247    1
   284   246   302    1
   285   246   303    1
   286   247   248    1
   287   247   304    1
   288   248   249    2
   289   248   250    1
   290   250   251    1
   291   250   305    1
   292   250   306    1
   293   251   252    1
   294   252   253    1
   295   252   307    1
   296   252   308    1
   297   253   254    2
   298   253   255    1
   299   255   256    1
   300   255   257    1
   301   256   309    1
   302   256   310    1
   303   256   311    1
   304   257   312    1
   305   257   313    1
   306   257   314    1
   307   258   259    1
   308   258   261    1
   309   259   260    1
   310   259   315    1
   311   259   316    1
   312   260   317    1
   313   260   318    1
   314   260   319    1
   315   261   262    1
   316   262   263    1
   317   262   320    1
   318   262   321    1
   319   263   264    1
   320   263   322    1
   321   263   323    1
   322   264   265    1
   323   264   324    1
   324   265   266    2
   325   265   267    1
   326   267   268    1
   327   267   325    1
   328   267   326    1
   329   268   269    1
   330   269   270    1
   331   269   327    1
   332   269   328    1
   333   270   271    2
   334   270   272    1
   335   272   273    1
   336   272   274    1
   337   273   329    1
   338   273   330    1
   339   273   331    1
   340   274   332    1
   341   274   333    1
   342   274   334    1
@<TRIPOS>SUBSTRUCTURE
     1 RES1      334 GROUP             0 ****  ****    0  
