@<TRIPOS>MOLECULE
am_c3_9H2O_c0_0_nunpairedes_0_charge_3 Charge: 3 Unpaired_Electrons: 1 XTB_Unpaired_Electrons: 0 XTB_Charge: 3
   184   198     1     0     0
SMALL
NoCharges
****
Generated from Architector

@<TRIPOS>ATOM
     1 Yb1      -0.0293   -0.0047    0.0293   Yb        1 RES1   0.0000
     2 C1        0.4624   -1.0710   -6.3179   C.3       1 RES1   0.0000
     3 C2        1.2599   -1.9323   -5.3491   C.3       1 RES1   0.0000
     4 C3        0.4141   -3.0102   -4.6583   C.3       1 RES1   0.0000
     5 C4       -0.5950   -2.4759   -3.6925   C.ar      1 RES1   0.0000
     6 N1       -0.1301   -1.7020   -2.7287   N.ar      1 RES1   0.0000
     7 N2       -0.9234   -1.2031   -1.8092   N.ar      1 RES1   0.0000
     8 C5       -2.2297   -1.4616   -1.8665   C.ar      1 RES1   0.0000
     9 C6       -3.0688   -0.8379   -0.8163   C.ar      1 RES1   0.0000
    10 C7       -4.4463   -1.0381   -0.7464   C.ar      1 RES1   0.0000
    11 C8       -5.1505   -0.4121    0.2753   C.ar      1 RES1   0.0000
    12 C9       -4.4837    0.4064    1.1779   C.ar      1 RES1   0.0000
    13 C10      -3.1052    0.5546    1.0328   C.ar      1 RES1   0.0000
    14 C11      -2.3034    1.3776    1.9611   C.ar      1 RES1   0.0000
    15 N3       -0.9763    1.2456    1.8767   N.ar      1 RES1   0.0000
    16 N4       -0.2271    2.0983    2.5355   N.ar      1 RES1   0.0000
    17 C12      -0.7364    3.0312    3.3146   C.ar      1 RES1   0.0000
    18 C13       0.2310    4.0534    3.8107   C.3       1 RES1   0.0000
    19 C14       0.5063    5.1261    2.7385   C.3       1 RES1   0.0000
    20 C15       1.4986    6.1633    3.2470   C.3       1 RES1   0.0000
    21 C16      -2.1303    2.9444    3.6180   C.ar      1 RES1   0.0000
    22 C17      -2.8123    3.6873    4.7058   C.3       1 RES1   0.0000
    23 C18      -3.9536    4.5190    4.0939   C.3       1 RES1   0.0000
    24 C19      -3.4145    5.5455    3.1074   C.3       1 RES1   0.0000
    25 N5       -2.8811    2.1511    2.8692   N.ar      1 RES1   0.0000
    26 N6       -2.4246   -0.0665    0.0659   N.ar      1 RES1   0.0000
    27 N7       -2.7757   -2.2555   -2.7806   N.ar      1 RES1   0.0000
    28 C20      -1.9857   -2.7996   -3.6985   C.ar      1 RES1   0.0000
    29 C21      -2.6108   -3.7452   -4.6541   C.3       1 RES1   0.0000
    30 C22      -3.7863   -3.1178   -5.4205   C.3       1 RES1   0.0000
    31 C23      -3.3136   -2.0444   -6.3900   C.3       1 RES1   0.0000
    32 H1        1.1252   -0.3632   -6.8094   H         1 RES1   0.0000
    33 H2       -0.3163   -0.5152   -5.8023   H         1 RES1   0.0000
    34 H3        0.0016   -1.6763   -7.0918   H         1 RES1   0.0000
    35 H4        1.7204   -1.3061   -4.5860   H         1 RES1   0.0000
    36 H5        2.0586   -2.4357   -5.8956   H         1 RES1   0.0000
    37 H6        1.0923   -3.6488   -4.0858   H         1 RES1   0.0000
    38 H7       -0.0670   -3.6150   -5.4243   H         1 RES1   0.0000
    39 H8       -4.9579   -1.6594   -1.4670   H         1 RES1   0.0000
    40 H9       -6.2135   -0.5749    0.3650   H         1 RES1   0.0000
    41 H10      -5.0029    0.8995    1.9874   H         1 RES1   0.0000
    42 H11       1.1767    3.5532    4.0273   H         1 RES1   0.0000
    43 H12      -0.1349    4.5432    4.7119   H         1 RES1   0.0000
    44 H13      -0.4251    5.6192    2.4605   H         1 RES1   0.0000
    45 H14       0.9041    4.6419    1.8452   H         1 RES1   0.0000
    46 H15       1.0961    6.6917    4.1052   H         1 RES1   0.0000
    47 H16       1.7094    6.8976    2.4741   H         1 RES1   0.0000
    48 H17       2.4298    5.6892    3.5442   H         1 RES1   0.0000
    49 H18      -2.1329    4.3348    5.2570   H         1 RES1   0.0000
    50 H19      -3.2399    2.9620    5.4032   H         1 RES1   0.0000
    51 H20      -4.4974    5.0196    4.8943   H         1 RES1   0.0000
    52 H21      -4.6347    3.8401    3.5814   H         1 RES1   0.0000
    53 H22      -2.7247    6.2265    3.5961   H         1 RES1   0.0000
    54 H23      -4.2303    6.1334    2.7009   H         1 RES1   0.0000
    55 H24      -2.8957    5.0601    2.2800   H         1 RES1   0.0000
    56 H25      -2.9872   -4.5899   -4.0709   H         1 RES1   0.0000
    57 H26      -1.8866   -4.1202   -5.3738   H         1 RES1   0.0000
    58 H27      -4.5002   -2.6988   -4.7126   H         1 RES1   0.0000
    59 H28      -4.2765   -3.9175   -5.9755   H         1 RES1   0.0000
    60 H29      -2.8287   -1.2188   -5.8706   H         1 RES1   0.0000
    61 H30      -4.1610   -1.6529   -6.9431   H         1 RES1   0.0000
    62 H31      -2.6130   -2.4614   -7.1073   H         1 RES1   0.0000
    63 C24      -0.6454   -1.4135    5.3649   C.3       1 RES1   0.0000
    64 C25       0.5593   -2.3231    5.1614   C.3       1 RES1   0.0000
    65 C26       1.8831   -1.5651    5.1355   C.3       1 RES1   0.0000
    66 C27       2.1103   -0.6823    3.9552   C.ar      1 RES1   0.0000
    67 N8        1.4995   -0.8956    2.8095   N.ar      1 RES1   0.0000
    68 N9        1.6407   -0.0675    1.7923   N.ar      1 RES1   0.0000
    69 C28       2.3262    1.0607    1.9957   C.ar      1 RES1   0.0000
    70 C29       2.2276    2.1394    0.9988   C.ar      1 RES1   0.0000
    71 C30       3.1523    3.1805    0.9454   C.ar      1 RES1   0.0000
    72 C31       2.9177    4.2204    0.0574   C.ar      1 RES1   0.0000
    73 C32       1.7721    4.2102   -0.7272   C.ar      1 RES1   0.0000
    74 C33       0.9167    3.1139   -0.6255   C.ar      1 RES1   0.0000
    75 C34      -0.3331    2.9932   -1.3976   C.ar      1 RES1   0.0000
    76 N10      -0.9522    1.8183   -1.2987   N.ar      1 RES1   0.0000
    77 N11      -2.0627    1.6332   -1.9683   N.ar      1 RES1   0.0000
    78 C35      -2.5844    2.5909   -2.7152   C.ar      1 RES1   0.0000
    79 C36      -3.8410    2.2098   -3.4227   C.3       1 RES1   0.0000
    80 C37      -4.9998    1.9556   -2.4451   C.3       1 RES1   0.0000
    81 C38      -6.2227    1.4295   -3.1817   C.3       1 RES1   0.0000
    82 C39      -1.9065    3.8388   -2.8104   C.ar      1 RES1   0.0000
    83 C40      -2.3468    4.9856   -3.6385   C.3       1 RES1   0.0000
    84 C41      -3.0606    6.0671   -2.8000   C.3       1 RES1   0.0000
    85 C42      -4.3685    5.6046   -2.1759   C.3       1 RES1   0.0000
    86 N12      -0.7751    4.0038   -2.1366   N.ar      1 RES1   0.0000
    87 N13       1.1581    2.0945    0.2027   N.ar      1 RES1   0.0000
    88 N14       3.0940    1.2646    3.0574   N.ar      1 RES1   0.0000
    89 C43       3.0784    0.3665    4.0199   C.ar      1 RES1   0.0000
    90 C44       4.0491    0.5400    5.1237   C.3       1 RES1   0.0000
    91 C45       3.7255    1.8361    5.8919   C.3       1 RES1   0.0000
    92 C46       2.3308    1.8117    6.5036   C.3       1 RES1   0.0000
    93 H32      -1.5299   -2.0229    5.5207   H         1 RES1   0.0000
    94 H33      -0.8161   -0.7636    4.5075   H         1 RES1   0.0000
    95 H34      -0.5087   -0.7951    6.2470   H         1 RES1   0.0000
    96 H35       0.4526   -2.8887    4.2380   H         1 RES1   0.0000
    97 H36       0.5962   -3.0342    5.9876   H         1 RES1   0.0000
    98 H37       2.7084   -2.2854    5.1577   H         1 RES1   0.0000
    99 H38       1.9587   -0.9535    6.0373   H         1 RES1   0.0000
   100 H39       4.0146    3.1766    1.5950   H         1 RES1   0.0000
   101 H40       3.6178    5.0410    0.0010   H         1 RES1   0.0000
   102 H41       1.5179    5.0262   -1.3888   H         1 RES1   0.0000
   103 H42      -3.6446    1.2723   -3.9495   H         1 RES1   0.0000
   104 H43      -4.1390    2.9679   -4.1432   H         1 RES1   0.0000
   105 H44      -5.2542    2.8776   -1.9235   H         1 RES1   0.0000
   106 H45      -4.6750    1.2322   -1.6990   H         1 RES1   0.0000
   107 H46      -6.5694    2.1553   -3.9106   H         1 RES1   0.0000
   108 H47      -7.0337    1.2436   -2.4827   H         1 RES1   0.0000
   109 H48      -5.9842    0.5057   -3.7030   H         1 RES1   0.0000
   110 H49      -3.0069    4.6711   -4.4455   H         1 RES1   0.0000
   111 H50      -1.4438    5.4333   -4.0590   H         1 RES1   0.0000
   112 H51      -3.2651    6.9048   -3.4657   H         1 RES1   0.0000
   113 H52      -2.3795    6.4084   -2.0202   H         1 RES1   0.0000
   114 H53      -5.0589    5.2402   -2.9311   H         1 RES1   0.0000
   115 H54      -4.8414    6.4449   -1.6764   H         1 RES1   0.0000
   116 H55      -4.2116    4.8215   -1.4358   H         1 RES1   0.0000
   117 H56       5.0370    0.6425    4.6708   H         1 RES1   0.0000
   118 H57       4.0583   -0.3110    5.8022   H         1 RES1   0.0000
   119 H58       3.8079    2.6751    5.2002   H         1 RES1   0.0000
   120 H59       4.4701    1.9652    6.6765   H         1 RES1   0.0000
   121 H60       1.5678    1.6355    5.7447   H         1 RES1   0.0000
   122 H61       2.1257    2.7639    6.9823   H         1 RES1   0.0000
   123 H62       2.2516    1.0396    7.2635   H         1 RES1   0.0000
   124 C47      -0.1017    2.2732   -5.1285   C.3       1 RES1   0.0000
   125 C48       1.1408    3.0624   -4.7427   C.3       1 RES1   0.0000
   126 C49       2.4170    2.2253   -4.7326   C.3       1 RES1   0.0000
   127 C50       2.5362    1.2244   -3.6355   C.ar      1 RES1   0.0000
   128 N15       1.7023    1.2192   -2.6219   N.ar      1 RES1   0.0000
   129 N16       1.7295    0.2734   -1.7056   N.ar      1 RES1   0.0000
   130 C51       2.5468   -0.7625   -1.9113   C.ar      1 RES1   0.0000
   131 C52       2.3938   -1.9502   -1.0546   C.ar      1 RES1   0.0000
   132 C53       3.3567   -2.9592   -1.0467   C.ar      1 RES1   0.0000
   133 C54       3.1519   -4.0593   -0.2270   C.ar      1 RES1   0.0000
   134 C55       2.0067   -4.1260    0.5515   C.ar      1 RES1   0.0000
   135 C56       1.1074   -3.0619    0.4977   C.ar      1 RES1   0.0000
   136 C57      -0.1073   -3.0556    1.3328   C.ar      1 RES1   0.0000
   137 N17      -0.8491   -1.9495    1.3044   N.ar      1 RES1   0.0000
   138 N18      -1.9201   -1.8948    2.0605   N.ar      1 RES1   0.0000
   139 C58      -2.2720   -2.9086    2.8331   C.ar      1 RES1   0.0000
   140 C59      -3.5069   -2.6905    3.6368   C.3       1 RES1   0.0000
   141 C60      -4.7863   -2.7651    2.7887   C.3       1 RES1   0.0000
   142 C61      -6.0058   -2.5038    3.6598   C.3       1 RES1   0.0000
   143 C62      -1.4496   -4.0713    2.8730   C.ar      1 RES1   0.0000
   144 C63      -1.6527   -5.2422    3.7599   C.3       1 RES1   0.0000
   145 C64      -2.2355   -6.4650    3.0184   C.3       1 RES1   0.0000
   146 C65      -3.6472   -6.2500    2.4969   C.3       1 RES1   0.0000
   147 N19      -0.3743   -4.1084    2.0964   N.ar      1 RES1   0.0000
   148 N20       1.3053   -1.9920   -0.2770   N.ar      1 RES1   0.0000
   149 N21       3.5394   -0.7288   -2.7921   N.ar      1 RES1   0.0000
   150 C66       3.6308    0.2998   -3.6091   C.ar      1 RES1   0.0000
   151 C67       4.8758    0.4790   -4.3957   C.3       1 RES1   0.0000
   152 C68       5.2726   -0.7578   -5.2228   C.3       1 RES1   0.0000
   153 C69       4.5745   -0.7633   -6.5745   C.3       1 RES1   0.0000
   154 H63      -0.9596    2.9380   -5.1704   H         1 RES1   0.0000
   155 H64      -0.3113    1.4791   -4.4137   H         1 RES1   0.0000
   156 H65       0.0240    1.8367   -6.1134   H         1 RES1   0.0000
   157 H66       1.0069    3.5117   -3.7594   H         1 RES1   0.0000
   158 H67       1.2705    3.8676   -5.4670   H         1 RES1   0.0000
   159 H68       3.2732    2.9015   -4.6431   H         1 RES1   0.0000
   160 H69       2.5214    1.6885   -5.6803   H         1 RES1   0.0000
   161 H70       4.2449   -2.8714   -1.6561   H         1 RES1   0.0000
   162 H71       3.8853   -4.8515   -0.1945   H         1 RES1   0.0000
   163 H72       1.7922   -4.9590    1.2048   H         1 RES1   0.0000
   164 H73      -3.4582   -1.6829    4.0551   H         1 RES1   0.0000
   165 H74      -3.5745   -3.4186    4.4437   H         1 RES1   0.0000
   166 H75      -4.8706   -3.7434    2.3203   H         1 RES1   0.0000
   167 H76      -4.7259   -2.0249    1.9921   H         1 RES1   0.0000
   168 H77      -6.0999   -3.2766    4.4162   H         1 RES1   0.0000
   169 H78      -6.9112   -2.5103    3.0596   H         1 RES1   0.0000
   170 H79      -5.9175   -1.5434    4.1625   H         1 RES1   0.0000
   171 H80      -2.3020   -5.0021    4.5997   H         1 RES1   0.0000
   172 H81      -0.6677   -5.5295    4.1375   H         1 RES1   0.0000
   173 H82      -2.2437   -7.2935    3.7265   H         1 RES1   0.0000
   174 H83      -1.5726   -6.7276    2.1941   H         1 RES1   0.0000
   175 H84      -4.3232   -5.9691    3.2989   H         1 RES1   0.0000
   176 H85      -4.0164   -7.1755    2.0661   H         1 RES1   0.0000
   177 H86      -3.6798   -5.4863    1.7224   H         1 RES1   0.0000
   178 H87       5.6608    0.6702   -3.6592   H         1 RES1   0.0000
   179 H88       4.8103    1.3376   -5.0612   H         1 RES1   0.0000
   180 H89       5.0382   -1.6610   -4.6600   H         1 RES1   0.0000
   181 H90       6.3493   -0.7315   -5.3823   H         1 RES1   0.0000
   182 H91       3.4962   -0.7049   -6.4611   H         1 RES1   0.0000
   183 H92       4.8147   -1.6724   -7.1174   H         1 RES1   0.0000
   184 H93       4.9055    0.0800   -7.1737   H         1 RES1   0.0000
@<TRIPOS>BOND
     1     1     7    1
     2     1    15    1
     3     1    26    1
     4     1    68    1
     5     1    76    1
     6     1    87    1
     7     1   129    1
     8     1   137    1
     9     1   148    1
    10     2     3    1
    11     2    32    1
    12     2    33    1
    13     2    34    1
    14     3     4    1
    15     3    35    1
    16     3    36    1
    17     4     5    1
    18     4    37    1
    19     4    38    1
    20     5     6    1
    21     5    28    2
    22     6     7    2
    23     7     8    1
    24     8     9    1
    25     8    27    2
    26     9    10    1
    27     9    26    2
    28    10    11    2
    29    10    39    1
    30    11    12    1
    31    11    40    1
    32    12    13    2
    33    12    41    1
    34    13    14    1
    35    13    26    1
    36    14    15    1
    37    14    25    2
    38    15    16    2
    39    16    17    1
    40    17    18    1
    41    17    21    2
    42    18    19    1
    43    18    42    1
    44    18    43    1
    45    19    20    1
    46    19    44    1
    47    19    45    1
    48    20    46    1
    49    20    47    1
    50    20    48    1
    51    21    22    1
    52    21    25    1
    53    22    23    1
    54    22    49    1
    55    22    50    1
    56    23    24    1
    57    23    51    1
    58    23    52    1
    59    24    53    1
    60    24    54    1
    61    24    55    1
    62    27    28    1
    63    28    29    1
    64    29    30    1
    65    29    56    1
    66    29    57    1
    67    30    31    1
    68    30    58    1
    69    30    59    1
    70    31    60    1
    71    31    61    1
    72    31    62    1
    73    63    64    1
    74    63    93    1
    75    63    94    1
    76    63    95    1
    77    64    65    1
    78    64    96    1
    79    64    97    1
    80    65    66    1
    81    65    98    1
    82    65    99    1
    83    66    67    1
    84    66    89    2
    85    67    68    2
    86    68    69    1
    87    69    70    1
    88    69    88    2
    89    70    71    1
    90    70    87    2
    91    71    72    2
    92    71   100    1
    93    72    73    1
    94    72   101    1
    95    73    74    2
    96    73   102    1
    97    74    75    1
    98    74    87    1
    99    75    76    1
   100    75    86    2
   101    76    77    2
   102    77    78    1
   103    78    79    1
   104    78    82    2
   105    79    80    1
   106    79   103    1
   107    79   104    1
   108    80    81    1
   109    80   105    1
   110    80   106    1
   111    81   107    1
   112    81   108    1
   113    81   109    1
   114    82    83    1
   115    82    86    1
   116    83    84    1
   117    83   110    1
   118    83   111    1
   119    84    85    1
   120    84   112    1
   121    84   113    1
   122    85   114    1
   123    85   115    1
   124    85   116    1
   125    88    89    1
   126    89    90    1
   127    90    91    1
   128    90   117    1
   129    90   118    1
   130    91    92    1
   131    91   119    1
   132    91   120    1
   133    92   121    1
   134    92   122    1
   135    92   123    1
   136   124   125    1
   137   124   154    1
   138   124   155    1
   139   124   156    1
   140   125   126    1
   141   125   157    1
   142   125   158    1
   143   126   127    1
   144   126   159    1
   145   126   160    1
   146   127   128    1
   147   127   150    2
   148   128   129    2
   149   129   130    1
   150   130   131    1
   151   130   149    2
   152   131   132    1
   153   131   148    2
   154   132   133    2
   155   132   161    1
   156   133   134    1
   157   133   162    1
   158   134   135    2
   159   134   163    1
   160   135   136    1
   161   135   148    1
   162   136   137    1
   163   136   147    2
   164   137   138    2
   165   138   139    1
   166   139   140    1
   167   139   143    2
   168   140   141    1
   169   140   164    1
   170   140   165    1
   171   141   142    1
   172   141   166    1
   173   141   167    1
   174   142   168    1
   175   142   169    1
   176   142   170    1
   177   143   144    1
   178   143   147    1
   179   144   145    1
   180   144   171    1
   181   144   172    1
   182   145   146    1
   183   145   173    1
   184   145   174    1
   185   146   175    1
   186   146   176    1
   187   146   177    1
   188   149   150    1
   189   150   151    1
   190   151   152    1
   191   151   178    1
   192   151   179    1
   193   152   153    1
   194   152   180    1
   195   152   181    1
   196   153   182    1
   197   153   183    1
   198   153   184    1
@<TRIPOS>SUBSTRUCTURE
     1 RES1      184 GROUP             0 ****  ****    0  
