@<TRIPOS>MOLECULE
capped_square_antiprismatic_0_nunpairedes_0_charge_1 Charge: 1 Unpaired_Electrons: 6 XTB_Unpaired_Electrons: 0 XTB_Charge: 1
   122   135     1     0     0
SMALL
NoCharges
****
Generated from Architector

@<TRIPOS>ATOM
     1 Eu1      -0.0978    0.0780    0.3613   Eu        1 RES1   0.0000
     2 C1        2.4992    5.3518    1.6752   C.3       1 RES1   0.0000
     3 C2        1.3358    6.3252    1.8193   C.3       1 RES1   0.0000
     4 C3        0.2679    6.1760    0.7333   C.3       1 RES1   0.0000
     5 C4       -0.4754    4.8460    0.8112   C.3       1 RES1   0.0000
     6 C5       -1.5691    4.6790   -0.2473   C.3       1 RES1   0.0000
     7 C6       -1.0059    4.6107   -1.6813   C.3       1 RES1   0.0000
     8 N1       -1.5547    3.4803   -2.4203   N.ar      1 RES1   0.0000
     9 C7       -2.4091    3.5950   -3.4980   C.ar      1 RES1   0.0000
    10 C8       -2.7918    4.9792   -3.9066   C.ar      1 RES1   0.0000
    11 C9       -3.9719    5.5279   -3.4088   C.ar      1 RES1   0.0000
    12 C10      -4.3440    6.8206   -3.7388   C.ar      1 RES1   0.0000
    13 C11      -3.5465    7.5831   -4.5756   C.ar      1 RES1   0.0000
    14 C12      -2.3723    7.0470   -5.0798   C.ar      1 RES1   0.0000
    15 C13      -1.9940    5.7571   -4.7460   C.ar      1 RES1   0.0000
    16 C14      -2.9061    2.4903   -4.1487   C.ar      1 RES1   0.0000
    17 C15      -3.8021    2.6868   -5.3177   C.ar      1 RES1   0.0000
    18 C16      -3.2996    3.0953   -6.5488   C.ar      1 RES1   0.0000
    19 C17      -4.1538    3.2654   -7.6252   C.ar      1 RES1   0.0000
    20 C18      -5.5132    3.0471   -7.4770   C.ar      1 RES1   0.0000
    21 C19      -6.0217    2.6583   -6.2487   C.ar      1 RES1   0.0000
    22 C20      -5.1694    2.4751   -5.1758   C.ar      1 RES1   0.0000
    23 C21      -2.5834    1.1659   -3.6776   C.ar      1 RES1   0.0000
    24 C22      -2.9909   -0.0741   -4.2119   C.ar      1 RES1   0.0000
    25 C23      -2.5306   -1.2684   -3.6405   C.ar      1 RES1   0.0000
    26 C24      -2.8158   -2.5964   -4.1063   C.ar      1 RES1   0.0000
    27 C25      -2.2868   -3.7061   -3.5292   C.ar      1 RES1   0.0000
    28 C26      -1.3893   -3.6504   -2.4087   C.ar      1 RES1   0.0000
    29 C27      -0.7670   -4.7399   -1.7908   C.ar      1 RES1   0.0000
    30 C28       0.1305   -4.5271   -0.7260   C.ar      1 RES1   0.0000
    31 C29       0.8389   -5.5200    0.0312   C.ar      1 RES1   0.0000
    32 C30       0.5853   -6.9582   -0.2369   C.ar      1 RES1   0.0000
    33 C31       1.2450   -7.6387   -1.2532   C.ar      1 RES1   0.0000
    34 C32       0.9423   -8.9668   -1.5047   C.ar      1 RES1   0.0000
    35 C33      -0.0174   -9.6182   -0.7479   C.ar      1 RES1   0.0000
    36 C34      -0.6689   -8.9464    0.2738   C.ar      1 RES1   0.0000
    37 C35      -0.3649   -7.6232    0.5300   C.ar      1 RES1   0.0000
    38 C36       1.6750   -5.1457    1.0521   C.ar      1 RES1   0.0000
    39 C37       2.3269   -6.1816    1.8972   C.ar      1 RES1   0.0000
    40 C38       1.7902   -6.4926    3.1452   C.ar      1 RES1   0.0000
    41 C39       2.3595   -7.4857    3.9240   C.ar      1 RES1   0.0000
    42 C40       3.4742   -8.1711    3.4714   C.ar      1 RES1   0.0000
    43 C41       4.0183   -7.8621    2.2355   C.ar      1 RES1   0.0000
    44 C42       3.4465   -6.8766    1.4500   C.ar      1 RES1   0.0000
    45 N2        1.9334   -3.8228    1.3478   N.ar      1 RES1   0.0000
    46 C43       2.8149   -3.4045    2.4355   C.3       1 RES1   0.0000
    47 C44       4.3202   -3.4346    2.1512   C.3       1 RES1   0.0000
    48 C45       4.8537   -2.3839    1.1757   C.3       1 RES1   0.0000
    49 C46       4.5807   -2.6790   -0.2951   C.3       1 RES1   0.0000
    50 C47       5.2138   -1.6282   -1.2022   C.3       1 RES1   0.0000
    51 C48       4.9538   -1.9145   -2.6754   C.3       1 RES1   0.0000
    52 C49       1.3171   -2.8124    0.6785   C.ar      1 RES1   0.0000
    53 O1        1.5659   -1.6117    0.8947   O.2       1 RES1   0.0000
    54 C50       0.3484   -3.1838   -0.3433   C.ar      1 RES1   0.0000
    55 N3       -0.2712   -2.1452   -0.8939   N.ar      1 RES1   0.0000
    56 C51      -1.1128   -2.3571   -1.8956   C.ar      1 RES1   0.0000
    57 C52      -1.6922   -1.1820   -2.4975   C.ar      1 RES1   0.0000
    58 N4       -1.3276   -0.0259   -1.9677   N.ar      1 RES1   0.0000
    59 C53      -1.7284    1.0968   -2.5526   C.ar      1 RES1   0.0000
    60 C54      -1.1404    2.2770   -1.9519   C.ar      1 RES1   0.0000
    61 O2       -0.2592    2.1642   -1.0778   O.2       1 RES1   0.0000
    62 H1        3.2483    5.5557    2.4361   H         1 RES1   0.0000
    63 H2        2.9705    5.4497    0.6990   H         1 RES1   0.0000
    64 H3        2.1690    4.3260    1.8070   H         1 RES1   0.0000
    65 H4        1.7253    7.3445    1.7826   H         1 RES1   0.0000
    66 H5        0.8787    6.1839    2.7989   H         1 RES1   0.0000
    67 H6        0.7385    6.2819   -0.2460   H         1 RES1   0.0000
    68 H7       -0.4497    6.9907    0.8400   H         1 RES1   0.0000
    69 H8       -0.9375    4.7536    1.7947   H         1 RES1   0.0000
    70 H9        0.2370    4.0284    0.7036   H         1 RES1   0.0000
    71 H10      -2.2866    5.4963   -0.1705   H         1 RES1   0.0000
    72 H11      -2.0985    3.7460   -0.0354   H         1 RES1   0.0000
    73 H12       0.0686    4.4206   -1.6168   H         1 RES1   0.0000
    74 H13      -1.1944    5.5212   -2.2441   H         1 RES1   0.0000
    75 H14      -4.5939    4.9406   -2.7520   H         1 RES1   0.0000
    76 H15      -5.2606    7.2378   -3.3467   H         1 RES1   0.0000
    77 H16      -3.8440    8.5880   -4.8337   H         1 RES1   0.0000
    78 H17      -1.7434    7.6300   -5.7382   H         1 RES1   0.0000
    79 H18      -1.0675    5.3675   -5.1409   H         1 RES1   0.0000
    80 H19      -2.2399    3.2663   -6.6632   H         1 RES1   0.0000
    81 H20      -3.7626    3.5624   -8.5868   H         1 RES1   0.0000
    82 H21      -6.1715    3.1802   -8.3207   H         1 RES1   0.0000
    83 H22      -7.0796    2.4900   -6.1168   H         1 RES1   0.0000
    84 H23      -5.5634    2.1750   -4.2169   H         1 RES1   0.0000
    85 H24      -3.6409   -0.0892   -5.0774   H         1 RES1   0.0000
    86 H25      -3.4714   -2.7070   -4.9534   H         1 RES1   0.0000
    87 H26      -2.5308   -4.6771   -3.9270   H         1 RES1   0.0000
    88 H27      -0.9593   -5.7496   -2.1311   H         1 RES1   0.0000
    89 H28       1.9902   -7.1302   -1.8475   H         1 RES1   0.0000
    90 H29       1.4454   -9.4961   -2.3009   H         1 RES1   0.0000
    91 H30      -0.2564  -10.6484   -0.9596   H         1 RES1   0.0000
    92 H31      -1.4243   -9.4383    0.8682   H         1 RES1   0.0000
    93 H32      -0.8759   -7.0957    1.3206   H         1 RES1   0.0000
    94 H33       0.9187   -5.9631    3.5012   H         1 RES1   0.0000
    95 H34       1.9274   -7.7367    4.8818   H         1 RES1   0.0000
    96 H35       3.9088   -8.9481    4.0803   H         1 RES1   0.0000
    97 H36       4.8839   -8.3937    1.8690   H         1 RES1   0.0000
    98 H37       3.8768   -6.6501    0.4862   H         1 RES1   0.0000
    99 H38       2.6233   -4.0371    3.3029   H         1 RES1   0.0000
   100 H39       2.5115   -2.3772    2.6582   H         1 RES1   0.0000
   101 H40       4.6211   -4.4337    1.8328   H         1 RES1   0.0000
   102 H41       4.7883   -3.2476    3.1196   H         1 RES1   0.0000
   103 H42       5.9354   -2.3277    1.3152   H         1 RES1   0.0000
   104 H43       4.4410   -1.4080    1.4343   H         1 RES1   0.0000
   105 H44       3.5077   -2.6985   -0.4812   H         1 RES1   0.0000
   106 H45       4.9850   -3.6601   -0.5496   H         1 RES1   0.0000
   107 H46       6.2893   -1.5987   -1.0257   H         1 RES1   0.0000
   108 H47       4.8150   -0.6454   -0.9431   H         1 RES1   0.0000
   109 H48       5.3743   -2.8777   -2.9539   H         1 RES1   0.0000
   110 H49       5.4113   -1.1542   -3.3037   H         1 RES1   0.0000
   111 H50       3.8854   -1.9358   -2.8818   H         1 RES1   0.0000
   112 N5        0.3992    1.8681    1.9480   N.3       1 RES1   0.0000
   113 O3        0.6653    2.4972    2.9214   O.2       1 RES1   0.0000
   114 O4       -0.7704    1.7244    1.5594   O.co2     1 RES1   0.0000
   115 O5        1.2981    1.3515    1.2556   O.co2     1 RES1   0.0000
   116 N6       -1.5368   -1.0559    2.0993   N.3       1 RES1   0.0000
   117 O6       -2.2155   -1.6609    2.8671   O.2       1 RES1   0.0000
   118 O7       -1.9420   -0.8059    0.9447   O.co2     1 RES1   0.0000
   119 O8       -0.3890   -0.6930    2.3877   O.co2     1 RES1   0.0000
   120 O9        1.7756    0.0935   -1.3512   O.3       1 RES1   0.0000
   121 H51       2.5803    0.1801   -0.8164   H         1 RES1   0.0000
   122 H52       1.7754    0.8494   -1.9537   H         1 RES1   0.0000
@<TRIPOS>BOND
     1     1    53    1
     2     1    55    1
     3     1    58    1
     4     1    61    1
     5     1   114    1
     6     1   115    1
     7     1   118    1
     8     1   119    1
     9     1   120    1
    10     2     3    1
    11     2    62    1
    12     2    63    1
    13     2    64    1
    14     3     4    1
    15     3    65    1
    16     3    66    1
    17     4     5    1
    18     4    67    1
    19     4    68    1
    20     5     6    1
    21     5    69    1
    22     5    70    1
    23     6     7    1
    24     6    71    1
    25     6    72    1
    26     7     8    1
    27     7    73    1
    28     7    74    1
    29     8     9    1
    30     8    60    1
    31     9    10    1
    32     9    16    2
    33    10    11    1
    34    10    15    2
    35    11    12    2
    36    11    75    1
    37    12    13    1
    38    12    76    1
    39    13    14    2
    40    13    77    1
    41    14    15    1
    42    14    78    1
    43    15    79    1
    44    16    17    1
    45    16    23    1
    46    17    18    1
    47    17    22    2
    48    18    19    2
    49    18    80    1
    50    19    20    1
    51    19    81    1
    52    20    21    2
    53    20    82    1
    54    21    22    1
    55    21    83    1
    56    22    84    1
    57    23    24    1
    58    23    59    2
    59    24    25    2
    60    24    85    1
    61    25    26    1
    62    25    57    1
    63    26    27    2
    64    26    86    1
    65    27    28    1
    66    27    87    1
    67    28    29    1
    68    28    56    2
    69    29    30    2
    70    29    88    1
    71    30    31    1
    72    30    54    1
    73    31    32    1
    74    31    38    2
    75    32    33    1
    76    32    37    2
    77    33    34    2
    78    33    89    1
    79    34    35    1
    80    34    90    1
    81    35    36    2
    82    35    91    1
    83    36    37    1
    84    36    92    1
    85    37    93    1
    86    38    39    1
    87    38    45    1
    88    39    40    1
    89    39    44    2
    90    40    41    2
    91    40    94    1
    92    41    42    1
    93    41    95    1
    94    42    43    2
    95    42    96    1
    96    43    44    1
    97    43    97    1
    98    44    98    1
    99    45    46    1
   100    45    52    1
   101    46    47    1
   102    46    99    1
   103    46   100    1
   104    47    48    1
   105    47   101    1
   106    47   102    1
   107    48    49    1
   108    48   103    1
   109    48   104    1
   110    49    50    1
   111    49   105    1
   112    49   106    1
   113    50    51    1
   114    50   107    1
   115    50   108    1
   116    51   109    1
   117    51   110    1
   118    51   111    1
   119    52    53    2
   120    52    54    1
   121    54    55    2
   122    55    56    1
   123    56    57    1
   124    57    58    2
   125    58    59    1
   126    59    60    1
   127    60    61    2
   128   112   113    2
   129   112   114    1
   130   112   115    1
   131   116   117    2
   132   116   118    1
   133   116   119    1
   134   120   121    1
   135   120   122    1
@<TRIPOS>SUBSTRUCTURE
     1 RES1      122 GROUP             0 ****  ****    0  
