@<TRIPOS>MOLECULE
am_c3_9H2O_c0_0_nunpairedes_0_charge_3 Charge: 3 Unpaired_Electrons: 5 XTB_Unpaired_Electrons: 0 XTB_Charge: 3
   196   222     1     0     0
SMALL
NoCharges
****
Generated from Architector

@<TRIPOS>ATOM
     1 Sm1      -0.1677    0.0650   -0.0429   Sm        1 RES1   0.0000
     2 C1       -4.4609   -2.8198   -5.6873   C.3       1 RES1   0.0000
     3 C2       -2.9987   -2.7083   -5.3370   C.3       1 RES1   0.0000
     4 C3       -2.2269   -4.0540   -5.4283   C.3       1 RES1   0.0000
     5 C4       -0.7472   -3.6432   -5.5226   C.3       1 RES1   0.0000
     6 C5       -0.7971   -2.1041   -5.4300   C.3       1 RES1   0.0000
     7 C6       -1.2385   -1.8385   -4.0355   C.ar      1 RES1   0.0000
     8 N1       -0.6146   -1.4118   -2.9700   N.ar      1 RES1   0.0000
     9 N2       -1.3453   -1.2027   -1.8684   N.ar      1 RES1   0.0000
    10 C7       -2.6541   -1.4152   -1.8947   C.ar      1 RES1   0.0000
    11 C8       -3.4442   -0.9204   -0.7530   C.ar      1 RES1   0.0000
    12 C9       -4.7775   -1.2944   -0.5879   C.ar      1 RES1   0.0000
    13 C10      -5.5114   -0.6758    0.4139   C.ar      1 RES1   0.0000
    14 C11      -4.8994    0.2885    1.2077   C.ar      1 RES1   0.0000
    15 C12      -3.5529    0.5747    0.9877   C.ar      1 RES1   0.0000
    16 C13      -2.8180    1.6163    1.7337   C.ar      1 RES1   0.0000
    17 N3       -1.4983    1.5999    1.5689   N.ar      1 RES1   0.0000
    18 N4       -0.7817    2.6571    1.9490   N.ar      1 RES1   0.0000
    19 C14      -1.4051    3.6340    2.5444   C.ar      1 RES1   0.0000
    20 C15      -2.7772    3.5196    2.9254   C.ar      1 RES1   0.0000
    21 N5       -3.4938    2.5235    2.4638   N.ar      1 RES1   0.0000
    22 C16      -3.1243    4.7929    3.6381   C.3       1 RES1   0.0000
    23 C17      -4.3136    4.8193    4.5700   C.3       1 RES1   0.0000
    24 C18      -3.2451    5.7293    2.3986   C.3       1 RES1   0.0000
    25 C19      -1.8020    5.8524    1.8758   C.3       1 RES1   0.0000
    26 C20      -0.9749    5.0111    2.8812   C.3       1 RES1   0.0000
    27 C21      -1.7357    5.2362    4.2104   C.3       1 RES1   0.0000
    28 C22      -1.6836    6.6735    4.7088   C.3       1 RES1   0.0000
    29 C23      -1.2324    4.3321    5.3306   C.3       1 RES1   0.0000
    30 N6       -2.8406   -0.0331    0.0360   N.ar      1 RES1   0.0000
    31 N7       -3.3369   -1.9652   -2.9191   N.ar      1 RES1   0.0000
    32 C24      -2.6295   -2.1855   -3.9928   C.ar      1 RES1   0.0000
    33 C25      -2.1000   -1.7610   -6.2009   C.3       1 RES1   0.0000
    34 C26      -2.4899   -0.2892   -6.0575   C.3       1 RES1   0.0000
    35 C27      -2.0560   -2.0785   -7.6876   C.3       1 RES1   0.0000
    36 H1       -4.9433   -3.5543   -5.0510   H         1 RES1   0.0000
    37 H2       -4.5648   -3.1328   -6.7215   H         1 RES1   0.0000
    38 H3       -4.9604   -1.8661   -5.5512   H         1 RES1   0.0000
    39 H4       -2.5631   -4.5834   -6.3177   H         1 RES1   0.0000
    40 H5       -2.4370   -4.6875   -4.5674   H         1 RES1   0.0000
    41 H6       -0.3096   -3.9375   -6.4739   H         1 RES1   0.0000
    42 H7       -0.1302   -4.0572   -4.7252   H         1 RES1   0.0000
    43 H8        0.1116   -1.6174   -5.7623   H         1 RES1   0.0000
    44 H9       -5.2070   -2.0256   -1.2525   H         1 RES1   0.0000
    45 H10      -6.5543   -0.9178    0.5586   H         1 RES1   0.0000
    46 H11      -5.4395    0.8219    1.9701   H         1 RES1   0.0000
    47 H12      -5.2125    4.4878    4.0548   H         1 RES1   0.0000
    48 H13      -4.4671    5.8299    4.9348   H         1 RES1   0.0000
    49 H14      -4.1429    4.1663    5.4207   H         1 RES1   0.0000
    50 H15      -3.6434    6.6834    2.7298   H         1 RES1   0.0000
    51 H16      -3.9413    5.3280    1.6617   H         1 RES1   0.0000
    52 H17      -1.4495    6.8799    1.8765   H         1 RES1   0.0000
    53 H18      -1.6880    5.4590    0.8640   H         1 RES1   0.0000
    54 H19       0.0930    5.1961    2.8620   H         1 RES1   0.0000
    55 H20      -2.1265    7.3851    4.0229   H         1 RES1   0.0000
    56 H21      -0.6481    6.9604    4.8652   H         1 RES1   0.0000
    57 H22      -2.2015    6.7653    5.6608   H         1 RES1   0.0000
    58 H23      -1.2296    3.2910    5.0255   H         1 RES1   0.0000
    59 H24      -1.8578    4.4277    6.2149   H         1 RES1   0.0000
    60 H25      -0.2192    4.6164    5.6059   H         1 RES1   0.0000
    61 H26      -2.4893    0.0425   -5.0206   H         1 RES1   0.0000
    62 H27      -3.4862   -0.1287   -6.4606   H         1 RES1   0.0000
    63 H28      -1.7918    0.3311   -6.6143   H         1 RES1   0.0000
    64 H29      -1.8276   -3.1155   -7.8988   H         1 RES1   0.0000
    65 H30      -1.2973   -1.4562   -8.1559   H         1 RES1   0.0000
    66 H31      -3.0135   -1.8452   -8.1475   H         1 RES1   0.0000
    67 C28       2.5427    2.1380    6.4828   C.3       1 RES1   0.0000
    68 C29       2.2028    0.8394    5.7891   C.3       1 RES1   0.0000
    69 C30       3.2517   -0.2985    5.9639   C.3       1 RES1   0.0000
    70 C31       2.4907   -1.5863    5.6121   C.3       1 RES1   0.0000
    71 C32       1.1003   -1.0717    5.1870   C.3       1 RES1   0.0000
    72 C33       1.3675   -0.3175    3.9358   C.ar      1 RES1   0.0000
    73 N8        1.1090   -0.5880    2.6851   N.ar      1 RES1   0.0000
    74 N9        1.4186    0.3501    1.7867   N.ar      1 RES1   0.0000
    75 C34       1.9974    1.4820    2.1686   C.ar      1 RES1   0.0000
    76 C35       2.0550    2.5333    1.1320   C.ar      1 RES1   0.0000
    77 C36       2.8439    3.6804    1.2109   C.ar      1 RES1   0.0000
    78 C37       2.6161    4.6908    0.2873   C.ar      1 RES1   0.0000
    79 C38       1.5927    4.5588   -0.6405   C.ar      1 RES1   0.0000
    80 C39       0.8716    3.3661   -0.6534   C.ar      1 RES1   0.0000
    81 C40      -0.3640    3.1514   -1.4298   C.ar      1 RES1   0.0000
    82 N10      -0.8083    1.9017   -1.4121   N.ar      1 RES1   0.0000
    83 N11      -2.0375    1.6090   -1.8289   N.ar      1 RES1   0.0000
    84 C41      -2.7538    2.6012   -2.2752   C.ar      1 RES1   0.0000
    85 C42      -2.2003    3.9081   -2.4269   C.ar      1 RES1   0.0000
    86 N12      -1.0069    4.1951   -1.9792   N.ar      1 RES1   0.0000
    87 C43      -3.2845    4.7631   -2.9818   C.3       1 RES1   0.0000
    88 C44      -2.8685    6.0478   -3.6572   C.3       1 RES1   0.0000
    89 C45      -4.1581    4.9309   -1.7010   C.3       1 RES1   0.0000
    90 C46      -4.7537    3.5323   -1.4614   C.3       1 RES1   0.0000
    91 C47      -4.1858    2.6913   -2.6338   C.3       1 RES1   0.0000
    92 C48      -4.1024    3.7109   -3.7968   C.3       1 RES1   0.0000
    93 C49      -5.4576    4.1956   -4.2802   C.3       1 RES1   0.0000
    94 C50      -3.3377    3.1418   -4.9939   C.3       1 RES1   0.0000
    95 N13       1.1332    2.3679    0.1848   N.ar      1 RES1   0.0000
    96 N14       2.3813    1.7817    3.4205   N.ar      1 RES1   0.0000
    97 C51       2.0412    0.8868    4.3124   C.ar      1 RES1   0.0000
    98 C52       0.8675    0.1088    6.1669   C.3       1 RES1   0.0000
    99 C53      -0.3875    0.9002    5.7999   C.3       1 RES1   0.0000
   100 C54       0.7522   -0.2712    7.6353   C.3       1 RES1   0.0000
   101 H32       3.5283    2.4750    6.1756   H         1 RES1   0.0000
   102 H33       2.5433    2.0061    7.5610   H         1 RES1   0.0000
   103 H34       1.8179    2.9046    6.2196   H         1 RES1   0.0000
   104 H35       3.6075   -0.3007    6.9912   H         1 RES1   0.0000
   105 H36       4.1128   -0.1378    5.3178   H         1 RES1   0.0000
   106 H37       2.3889   -2.2433    6.4720   H         1 RES1   0.0000
   107 H38       2.9620   -2.1540    4.8109   H         1 RES1   0.0000
   108 H39       0.3311   -1.8365    5.1310   H         1 RES1   0.0000
   109 H40       3.5852    3.7741    1.9889   H         1 RES1   0.0000
   110 H41       3.1929    5.6022    0.3235   H         1 RES1   0.0000
   111 H42       1.3298    5.3565   -1.3176   H         1 RES1   0.0000
   112 H43      -2.2847    6.6590   -2.9743   H         1 RES1   0.0000
   113 H44      -3.7454    6.6051   -3.9721   H         1 RES1   0.0000
   114 H45      -2.2602    5.8261   -4.5293   H         1 RES1   0.0000
   115 H46      -4.9244    5.6790   -1.8853   H         1 RES1   0.0000
   116 H47      -3.5508    5.2856   -0.8668   H         1 RES1   0.0000
   117 H48      -5.8405    3.5360   -1.4858   H         1 RES1   0.0000
   118 H49      -4.4475    3.1050   -0.5027   H         1 RES1   0.0000
   119 H50      -4.7009    1.7514   -2.8093   H         1 RES1   0.0000
   120 H51      -6.0309    4.6831   -3.5021   H         1 RES1   0.0000
   121 H52      -6.0288    3.3478   -4.6472   H         1 RES1   0.0000
   122 H53      -5.3367    4.8989   -5.0982   H         1 RES1   0.0000
   123 H54      -2.3278    2.8250   -4.7391   H         1 RES1   0.0000
   124 H55      -3.2663    3.8808   -5.7879   H         1 RES1   0.0000
   125 H56      -3.8756    2.2837   -5.3907   H         1 RES1   0.0000
   126 H57      -0.3966    1.2041    4.7531   H         1 RES1   0.0000
   127 H58      -0.4594    1.7862    6.4240   H         1 RES1   0.0000
   128 H59      -1.2706    0.2902    5.9790   H         1 RES1   0.0000
   129 H60       1.6151   -0.8040    8.0074   H         1 RES1   0.0000
   130 H61      -0.1271   -0.8904    7.7856   H         1 RES1   0.0000
   131 H62       0.6331    0.6280    8.2317   H         1 RES1   0.0000
   132 C55       5.0046   -0.5756   -5.5760   C.3       1 RES1   0.0000
   133 C56       3.7318    0.1443   -5.2026   C.3       1 RES1   0.0000
   134 C57       2.4707   -0.2701   -6.0190   C.3       1 RES1   0.0000
   135 C58       1.4492    0.8469   -5.7337   C.3       1 RES1   0.0000
   136 C59       2.2136    1.8014   -4.7812   C.3       1 RES1   0.0000
   137 C60       2.2914    0.9815   -3.5498   C.ar      1 RES1   0.0000
   138 N15       1.6477    1.0468   -2.4207   N.ar      1 RES1   0.0000
   139 N16       1.7883    0.0197   -1.5835   N.ar      1 RES1   0.0000
   140 C61       2.5088   -1.0346   -1.9460   C.ar      1 RES1   0.0000
   141 C62       2.3379   -2.2279   -1.1042   C.ar      1 RES1   0.0000
   142 C63       3.1293   -3.3685   -1.2344   C.ar      1 RES1   0.0000
   143 C64       2.8110   -4.4818   -0.4680   C.ar      1 RES1   0.0000
   144 C65       1.7273   -4.4178    0.3960   C.ar      1 RES1   0.0000
   145 C66       0.9897   -3.2350    0.4474   C.ar      1 RES1   0.0000
   146 C67      -0.2318   -3.1051    1.2563   C.ar      1 RES1   0.0000
   147 N17      -0.8065   -1.9121    1.2284   N.ar      1 RES1   0.0000
   148 N18      -1.9623   -1.7022    1.8607   N.ar      1 RES1   0.0000
   149 C68      -2.5237   -2.7409    2.4133   C.ar      1 RES1   0.0000
   150 C69      -1.8741   -4.0118    2.4448   C.ar      1 RES1   0.0000
   151 N19      -0.7016   -4.1889    1.8945   N.ar      1 RES1   0.0000
   152 C70      -2.7828   -4.9414    3.1647   C.3       1 RES1   0.0000
   153 C71      -2.5018   -6.4192    3.0168   C.3       1 RES1   0.0000
   154 C72      -2.7055   -4.4043    4.6231   C.3       1 RES1   0.0000
   155 C73      -3.4514   -3.0616    4.5786   C.3       1 RES1   0.0000
   156 C74      -3.8306   -2.9113    3.0924   C.3       1 RES1   0.0000
   157 C75      -4.1564   -4.3702    2.6671   C.3       1 RES1   0.0000
   158 C76      -5.3768   -4.9781    3.3403   C.3       1 RES1   0.0000
   159 C77      -4.3527   -4.4966    1.1533   C.3       1 RES1   0.0000
   160 N20       1.2901   -2.1630   -0.2849   N.ar      1 RES1   0.0000
   161 N21       3.2852   -1.1191   -3.0375   N.ar      1 RES1   0.0000
   162 C78       3.1968   -0.0872   -3.8343   C.ar      1 RES1   0.0000
   163 C79       3.6755    1.6993   -5.2885   C.3       1 RES1   0.0000
   164 C80       4.6469    2.3954   -4.3378   C.3       1 RES1   0.0000
   165 C81       3.8768    2.2616   -6.6861   C.3       1 RES1   0.0000
   166 H63       4.8988   -1.6397   -5.3782   H         1 RES1   0.0000
   167 H64       5.8341   -0.1985   -4.9850   H         1 RES1   0.0000
   168 H65       5.2322   -0.4274   -6.6276   H         1 RES1   0.0000
   169 H66       2.1327   -1.2617   -5.7126   H         1 RES1   0.0000
   170 H67       2.7262   -0.3201   -7.0738   H         1 RES1   0.0000
   171 H68       0.5396    0.4827   -5.2502   H         1 RES1   0.0000
   172 H69       1.1641    1.3738   -6.6417   H         1 RES1   0.0000
   173 H70       1.7807    2.7921   -4.6836   H         1 RES1   0.0000
   174 H71       3.9489   -3.3609   -1.9331   H         1 RES1   0.0000
   175 H72       3.3825   -5.3946   -0.5564   H         1 RES1   0.0000
   176 H73       1.4313   -5.2525    1.0129   H         1 RES1   0.0000
   177 H74      -1.5541   -6.6631    3.4893   H         1 RES1   0.0000
   178 H75      -2.4447   -6.6829    1.9647   H         1 RES1   0.0000
   179 H76      -3.2865   -7.0023    3.4897   H         1 RES1   0.0000
   180 H77      -1.6673   -4.2958    4.9357   H         1 RES1   0.0000
   181 H78      -3.1779   -5.1177    5.2942   H         1 RES1   0.0000
   182 H79      -2.8390   -2.2196    4.9010   H         1 RES1   0.0000
   183 H80      -4.3462   -3.0786    5.1938   H         1 RES1   0.0000
   184 H81      -4.5749   -2.1464    2.8894   H         1 RES1   0.0000
   185 H82      -5.3031   -4.9907    4.4184   H         1 RES1   0.0000
   186 H83      -5.5144   -6.0001    2.9982   H         1 RES1   0.0000
   187 H84      -6.2589   -4.4089    3.0616   H         1 RES1   0.0000
   188 H85      -3.5426   -4.0491    0.5799   H         1 RES1   0.0000
   189 H86      -5.2767   -3.9986    0.8695   H         1 RES1   0.0000
   190 H87      -4.4298   -5.5431    0.8669   H         1 RES1   0.0000
   191 H88       4.5749    2.0155   -3.3214   H         1 RES1   0.0000
   192 H89       4.4397    3.4624   -4.3236   H         1 RES1   0.0000
   193 H90       5.6709    2.2651   -4.6752   H         1 RES1   0.0000
   194 H91       3.2780    1.7611   -7.4386   H         1 RES1   0.0000
   195 H92       4.9180    2.1716   -6.9787   H         1 RES1   0.0000
   196 H93       3.6180    3.3170   -6.6890   H         1 RES1   0.0000
@<TRIPOS>BOND
     1     1     9    1
     2     1    17    1
     3     1    30    1
     4     1    74    1
     5     1    82    1
     6     1    95    1
     7     1   139    1
     8     1   147    1
     9     1   160    1
    10     2     3    1
    11     2    36    1
    12     2    37    1
    13     2    38    1
    14     3     4    1
    15     3    32    1
    16     3    33    1
    17     4     5    1
    18     4    39    1
    19     4    40    1
    20     5     6    1
    21     5    41    1
    22     5    42    1
    23     6     7    1
    24     6    33    1
    25     6    43    1
    26     7     8    1
    27     7    32    2
    28     8     9    2
    29     9    10    1
    30    10    11    1
    31    10    31    2
    32    11    12    1
    33    11    30    2
    34    12    13    2
    35    12    44    1
    36    13    14    1
    37    13    45    1
    38    14    15    2
    39    14    46    1
    40    15    16    1
    41    15    30    1
    42    16    17    1
    43    16    21    2
    44    17    18    2
    45    18    19    1
    46    19    20    2
    47    19    26    1
    48    20    21    1
    49    20    22    1
    50    22    23    1
    51    22    24    1
    52    22    27    1
    53    23    47    1
    54    23    48    1
    55    23    49    1
    56    24    25    1
    57    24    50    1
    58    24    51    1
    59    25    26    1
    60    25    52    1
    61    25    53    1
    62    26    27    1
    63    26    54    1
    64    27    28    1
    65    27    29    1
    66    28    55    1
    67    28    56    1
    68    28    57    1
    69    29    58    1
    70    29    59    1
    71    29    60    1
    72    31    32    1
    73    33    34    1
    74    33    35    1
    75    34    61    1
    76    34    62    1
    77    34    63    1
    78    35    64    1
    79    35    65    1
    80    35    66    1
    81    67    68    1
    82    67   101    1
    83    67   102    1
    84    67   103    1
    85    68    69    1
    86    68    97    1
    87    68    98    1
    88    69    70    1
    89    69   104    1
    90    69   105    1
    91    70    71    1
    92    70   106    1
    93    70   107    1
    94    71    72    1
    95    71    98    1
    96    71   108    1
    97    72    73    1
    98    72    97    2
    99    73    74    2
   100    74    75    1
   101    75    76    1
   102    75    96    2
   103    76    77    1
   104    76    95    2
   105    77    78    2
   106    77   109    1
   107    78    79    1
   108    78   110    1
   109    79    80    2
   110    79   111    1
   111    80    81    1
   112    80    95    1
   113    81    82    1
   114    81    86    2
   115    82    83    2
   116    83    84    1
   117    84    85    2
   118    84    91    1
   119    85    86    1
   120    85    87    1
   121    87    88    1
   122    87    89    1
   123    87    92    1
   124    88   112    1
   125    88   113    1
   126    88   114    1
   127    89    90    1
   128    89   115    1
   129    89   116    1
   130    90    91    1
   131    90   117    1
   132    90   118    1
   133    91    92    1
   134    91   119    1
   135    92    93    1
   136    92    94    1
   137    93   120    1
   138    93   121    1
   139    93   122    1
   140    94   123    1
   141    94   124    1
   142    94   125    1
   143    96    97    1
   144    98    99    1
   145    98   100    1
   146    99   126    1
   147    99   127    1
   148    99   128    1
   149   100   129    1
   150   100   130    1
   151   100   131    1
   152   132   133    1
   153   132   166    1
   154   132   167    1
   155   132   168    1
   156   133   134    1
   157   133   162    1
   158   133   163    1
   159   134   135    1
   160   134   169    1
   161   134   170    1
   162   135   136    1
   163   135   171    1
   164   135   172    1
   165   136   137    1
   166   136   163    1
   167   136   173    1
   168   137   138    1
   169   137   162    2
   170   138   139    2
   171   139   140    1
   172   140   141    1
   173   140   161    2
   174   141   142    1
   175   141   160    2
   176   142   143    2
   177   142   174    1
   178   143   144    1
   179   143   175    1
   180   144   145    2
   181   144   176    1
   182   145   146    1
   183   145   160    1
   184   146   147    1
   185   146   151    2
   186   147   148    2
   187   148   149    1
   188   149   150    2
   189   149   156    1
   190   150   151    1
   191   150   152    1
   192   152   153    1
   193   152   154    1
   194   152   157    1
   195   153   177    1
   196   153   178    1
   197   153   179    1
   198   154   155    1
   199   154   180    1
   200   154   181    1
   201   155   156    1
   202   155   182    1
   203   155   183    1
   204   156   157    1
   205   156   184    1
   206   157   158    1
   207   157   159    1
   208   158   185    1
   209   158   186    1
   210   158   187    1
   211   159   188    1
   212   159   189    1
   213   159   190    1
   214   161   162    1
   215   163   164    1
   216   163   165    1
   217   164   191    1
   218   164   192    1
   219   164   193    1
   220   165   194    1
   221   165   195    1
   222   165   196    1
@<TRIPOS>SUBSTRUCTURE
     1 RES1      196 GROUP             0 ****  ****    0  
