@<TRIPOS>MOLECULE
am_c3_9H2O_c0_0_nunpairedes_0_charge_3 Charge: 3 Unpaired_Electrons: 6 XTB_Unpaired_Electrons: 0 XTB_Charge: 3
   286   291     1     0     0
SMALL
NoCharges
****
Generated from Architector

@<TRIPOS>ATOM
     1 Eu1      -0.0218   -0.1706   -0.3615   Eu        1 RES1   0.0000
     2 C1        6.8759    4.1999    0.3972   C.3       1 RES1   0.0000
     3 C2        5.8421    3.9194    1.4835   C.3       1 RES1   0.0000
     4 C3        5.7367    2.4096    1.6994   C.3       1 RES1   0.0000
     5 C4        4.4880    4.5576    1.1167   C.3       1 RES1   0.0000
     6 C5        4.1592    5.7876    1.9704   C.3       1 RES1   0.0000
     7 C6        3.3087    6.8325    1.2490   C.3       1 RES1   0.0000
     8 C7        1.9099    6.4008    0.7786   C.3       1 RES1   0.0000
     9 C8        1.4420    7.4124   -0.2665   C.3       1 RES1   0.0000
    10 C9        0.9196    6.2916    1.9554   C.3       1 RES1   0.0000
    11 C10      -0.5196    5.9529    1.5378   C.3       1 RES1   0.0000
    12 C11      -1.4430    5.4151    2.6409   C.3       1 RES1   0.0000
    13 C12      -1.2738    3.9243    3.0076   C.3       1 RES1   0.0000
    14 N1       -2.2937    2.9832    2.5095   N.am      1 RES1   0.0000
    15 C13      -3.5835    3.1738    3.1510   C.3       1 RES1   0.0000
    16 C14      -1.9447    1.8934    1.8204   C.2       1 RES1   0.0000
    17 O1       -0.8179    1.7221    1.3294   O.2       1 RES1   0.0000
    18 C15      -2.9598    0.7537    1.6036   C.3       1 RES1   0.0000
    19 O2       -2.4413   -0.0756    0.5706   O.3       1 RES1   0.0000
    20 C16      -3.3898   -0.5461   -0.3776   C.3       1 RES1   0.0000
    21 C17      -2.5927   -0.9769   -1.6034   C.2       1 RES1   0.0000
    22 O3       -1.4770   -1.5048   -1.3884   O.2       1 RES1   0.0000
    23 N2       -3.0406   -0.7847   -2.8320   N.am      1 RES1   0.0000
    24 C18      -4.2889   -0.2217   -3.2873   C.3       1 RES1   0.0000
    25 C19      -2.1872   -1.1391   -3.9596   C.3       1 RES1   0.0000
    26 C20      -1.4112    0.0976   -4.4326   C.3       1 RES1   0.0000
    27 C21      -0.0039    0.1966   -3.8309   C.3       1 RES1   0.0000
    28 C22       1.0963   -0.3391   -4.7539   C.3       1 RES1   0.0000
    29 C23       1.0812   -1.8216   -5.1687   C.3       1 RES1   0.0000
    30 C24       0.0095   -2.1304   -6.2173   C.3       1 RES1   0.0000
    31 C25       1.0781   -2.7881   -3.9732   C.3       1 RES1   0.0000
    32 C26       1.0111   -4.2448   -4.4397   C.3       1 RES1   0.0000
    33 C27       1.4559   -5.2926   -3.4163   C.3       1 RES1   0.0000
    34 C28       0.4620   -5.6388   -2.3026   C.3       1 RES1   0.0000
    35 C29      -0.8160   -6.2701   -2.8497   C.3       1 RES1   0.0000
    36 C30       1.1365   -6.6151   -1.3370   C.3       1 RES1   0.0000
    37 H1        7.8524    3.8390    0.7046   H         1 RES1   0.0000
    38 H2        6.9520    5.2641    0.1941   H         1 RES1   0.0000
    39 H3        6.5950    3.6881   -0.5213   H         1 RES1   0.0000
    40 H4        6.1925    4.3626    2.4197   H         1 RES1   0.0000
    41 H5        5.3348    1.9145    0.8159   H         1 RES1   0.0000
    42 H6        5.1044    2.1723    2.5524   H         1 RES1   0.0000
    43 H7        6.7269    2.0106    1.8994   H         1 RES1   0.0000
    44 H8        3.7052    3.8114    1.2282   H         1 RES1   0.0000
    45 H9        4.5052    4.8404    0.0637   H         1 RES1   0.0000
    46 H10       5.0932    6.2839    2.2354   H         1 RES1   0.0000
    47 H11       3.6888    5.4775    2.9061   H         1 RES1   0.0000
    48 H12       3.8736    7.1559    0.3727   H         1 RES1   0.0000
    49 H13       3.2063    7.7046    1.8970   H         1 RES1   0.0000
    50 H14       1.9959    5.4267    0.2764   H         1 RES1   0.0000
    51 H15       1.4249    8.4105    0.1587   H         1 RES1   0.0000
    52 H16       0.4511    7.1746   -0.6429   H         1 RES1   0.0000
    53 H17       2.1336    7.4212   -1.1046   H         1 RES1   0.0000
    54 H18       0.9217    7.2545    2.4667   H         1 RES1   0.0000
    55 H19       1.2840    5.5497    2.6658   H         1 RES1   0.0000
    56 H20      -0.5142    5.2292    0.7225   H         1 RES1   0.0000
    57 H21      -0.9740    6.8640    1.1534   H         1 RES1   0.0000
    58 H22      -2.4719    5.6035    2.3356   H         1 RES1   0.0000
    59 H23      -1.2714    5.9998    3.5426   H         1 RES1   0.0000
    60 H24      -1.3259    3.8427    4.0993   H         1 RES1   0.0000
    61 H25      -0.3074    3.5587    2.6620   H         1 RES1   0.0000
    62 H26      -3.8636    4.2236    3.0739   H         1 RES1   0.0000
    63 H27      -3.5044    2.9394    4.2133   H         1 RES1   0.0000
    64 H28      -4.3798    2.5835    2.7100   H         1 RES1   0.0000
    65 H29      -3.9522    1.1290    1.3451   H         1 RES1   0.0000
    66 H30      -3.0253    0.1702    2.5367   H         1 RES1   0.0000
    67 H31      -4.0981    0.2447   -0.6299   H         1 RES1   0.0000
    68 H32      -3.9160   -1.4185    0.0410   H         1 RES1   0.0000
    69 H33      -4.9059    0.1585   -2.4856   H         1 RES1   0.0000
    70 H34      -4.8464   -0.9954   -3.8163   H         1 RES1   0.0000
    71 H35      -4.0927    0.5778   -4.0037   H         1 RES1   0.0000
    72 H36      -2.8390   -1.5369   -4.7393   H         1 RES1   0.0000
    73 H37      -1.5085   -1.9224   -3.6303   H         1 RES1   0.0000
    74 H38      -1.9834    0.9875   -4.1591   H         1 RES1   0.0000
    75 H39      -1.3276    0.1042   -5.5168   H         1 RES1   0.0000
    76 H40       0.0223   -0.3080   -2.8431   H         1 RES1   0.0000
    77 H41       0.2357    1.2533   -3.6689   H         1 RES1   0.0000
    78 H42       2.0543   -0.1307   -4.2730   H         1 RES1   0.0000
    79 H43       1.0507    0.2487   -5.6730   H         1 RES1   0.0000
    80 H44       2.0462   -1.9673   -5.6705   H         1 RES1   0.0000
    81 H45      -0.9637   -2.3289   -5.7868   H         1 RES1   0.0000
    82 H46       0.2854   -3.0013   -6.8036   H         1 RES1   0.0000
    83 H47      -0.0769   -1.2936   -6.9038   H         1 RES1   0.0000
    84 H48       0.2702   -2.5742   -3.2664   H         1 RES1   0.0000
    85 H49       2.0133   -2.6425   -3.4308   H         1 RES1   0.0000
    86 H50       1.6783   -4.3446   -5.2959   H         1 RES1   0.0000
    87 H51      -0.0012   -4.4718   -4.7757   H         1 RES1   0.0000
    88 H52       2.3930   -4.9643   -2.9547   H         1 RES1   0.0000
    89 H53       1.6735   -6.2133   -3.9600   H         1 RES1   0.0000
    90 H54       0.1922   -4.7157   -1.7706   H         1 RES1   0.0000
    91 H55      -0.5902   -7.2290   -3.3096   H         1 RES1   0.0000
    92 H56      -1.2878   -5.6339   -3.5933   H         1 RES1   0.0000
    93 H57      -1.5359   -6.4380   -2.0515   H         1 RES1   0.0000
    94 H58       1.3991   -7.5270   -1.8667   H         1 RES1   0.0000
    95 H59       0.4735   -6.8892   -0.5214   H         1 RES1   0.0000
    96 H60       2.0546   -6.2030   -0.9190   H         1 RES1   0.0000
    97 C31      -6.3983   -3.3442    0.5283   C.3       1 RES1   0.0000
    98 C32      -6.4202   -3.3380   -0.9969   C.3       1 RES1   0.0000
    99 C33      -5.1847   -4.0832   -1.5139   C.3       1 RES1   0.0000
   100 C34      -6.4209   -1.9377   -1.6199   C.3       1 RES1   0.0000
   101 C35      -7.6986   -1.0899   -1.5890   C.3       1 RES1   0.0000
   102 C36      -7.9604   -0.2346   -0.3451   C.3       1 RES1   0.0000
   103 C37      -6.9107    0.8087    0.0817   C.3       1 RES1   0.0000
   104 C38      -7.3992    1.4219    1.3950   C.3       1 RES1   0.0000
   105 C39      -6.6448    1.9043   -0.9697   C.3       1 RES1   0.0000
   106 C40      -5.5389    2.8872   -0.5502   C.3       1 RES1   0.0000
   107 C41      -4.9194    3.7387   -1.6717   C.3       1 RES1   0.0000
   108 C42      -3.7068    3.1028   -2.3885   C.3       1 RES1   0.0000
   109 N3       -2.3736    3.5834   -1.9811   N.am      1 RES1   0.0000
   110 C43      -2.1155    4.9545   -2.3827   C.3       1 RES1   0.0000
   111 C44      -1.4275    2.7328   -1.5725   C.2       1 RES1   0.0000
   112 O4       -1.6404    1.5178   -1.4042   O.2       1 RES1   0.0000
   113 C45      -0.0075    3.2467   -1.2643   C.3       1 RES1   0.0000
   114 O5        0.7563    2.1613   -0.7393   O.3       1 RES1   0.0000
   115 C46       1.7456    2.5064    0.2420   C.3       1 RES1   0.0000
   116 C47       1.7553    1.4076    1.3258   C.2       1 RES1   0.0000
   117 O6        1.6589    0.2411    0.8992   O.2       1 RES1   0.0000
   118 N4        1.8289    1.6378    2.6323   N.am      1 RES1   0.0000
   119 C48       2.2335    2.8596    3.2909   C.3       1 RES1   0.0000
   120 C49       1.6264    0.4997    3.5416   C.3       1 RES1   0.0000
   121 C50       0.4416    0.7326    4.4959   C.3       1 RES1   0.0000
   122 C51      -0.6022   -0.4013    4.5232   C.3       1 RES1   0.0000
   123 C52      -0.7825   -1.1092    5.8728   C.3       1 RES1   0.0000
   124 C53       0.3863   -1.9291    6.4521   C.3       1 RES1   0.0000
   125 C54       1.3417   -1.0763    7.2871   C.3       1 RES1   0.0000
   126 C55       1.1314   -2.7061    5.3656   C.3       1 RES1   0.0000
   127 C56       2.1376   -3.7072    5.9345   C.3       1 RES1   0.0000
   128 C57       2.8658   -4.5096    4.8522   C.3       1 RES1   0.0000
   129 C58       3.6314   -3.6466    3.8402   C.3       1 RES1   0.0000
   130 C59       4.6961   -2.7932    4.5263   C.3       1 RES1   0.0000
   131 C60       4.2774   -4.5262    2.7701   C.3       1 RES1   0.0000
   132 H61      -6.3925   -4.3729    0.8827   H         1 RES1   0.0000
   133 H62      -7.2762   -2.8592    0.9397   H         1 RES1   0.0000
   134 H63      -5.5021   -2.8460    0.9055   H         1 RES1   0.0000
   135 H64      -7.3138   -3.8695   -1.3310   H         1 RES1   0.0000
   136 H65      -4.2754   -3.5133   -1.3119   H         1 RES1   0.0000
   137 H66      -5.2486   -4.2640   -2.5842   H         1 RES1   0.0000
   138 H67      -5.1036   -5.0451   -1.0183   H         1 RES1   0.0000
   139 H68      -6.1771   -2.0901   -2.6725   H         1 RES1   0.0000
   140 H69      -5.6067   -1.3793   -1.1697   H         1 RES1   0.0000
   141 H70      -8.5577   -1.7510   -1.7128   H         1 RES1   0.0000
   142 H71      -7.6793   -0.4380   -2.4661   H         1 RES1   0.0000
   143 H72      -8.1163   -0.9002    0.5048   H         1 RES1   0.0000
   144 H73      -8.9044    0.2812   -0.5219   H         1 RES1   0.0000
   145 H74      -5.9734    0.2791    0.2916   H         1 RES1   0.0000
   146 H75      -8.3474    1.9297    1.2466   H         1 RES1   0.0000
   147 H76      -6.6892    2.1388    1.7953   H         1 RES1   0.0000
   148 H77      -7.5514    0.6473    2.1427   H         1 RES1   0.0000
   149 H78      -7.5735    2.4528   -1.1206   H         1 RES1   0.0000
   150 H79      -6.3877    1.4419   -1.9231   H         1 RES1   0.0000
   151 H80      -4.7243    2.3440   -0.0681   H         1 RES1   0.0000
   152 H81      -5.9658    3.5693    0.1848   H         1 RES1   0.0000
   153 H82      -4.6273    4.6944   -1.2410   H         1 RES1   0.0000
   154 H83      -5.6846    3.9552   -2.4168   H         1 RES1   0.0000
   155 H84      -3.7954    3.3033   -3.4626   H         1 RES1   0.0000
   156 H85      -3.7124    2.0304   -2.2233   H         1 RES1   0.0000
   157 H86      -2.9904    5.5642   -2.1533   H         1 RES1   0.0000
   158 H87      -1.9580    5.0085   -3.4637   H         1 RES1   0.0000
   159 H88      -1.2530    5.3801   -1.8819   H         1 RES1   0.0000
   160 H89      -0.0739    4.0616   -0.5323   H         1 RES1   0.0000
   161 H90       0.4587    3.6284   -2.1832   H         1 RES1   0.0000
   162 H91       1.5439    3.4934    0.6489   H         1 RES1   0.0000
   163 H92       2.7214    2.4847   -0.2593   H         1 RES1   0.0000
   164 H93       2.0642    3.7352    2.6731   H         1 RES1   0.0000
   165 H94       3.2976    2.8262    3.5448   H         1 RES1   0.0000
   166 H95       1.6781    2.9650    4.2202   H         1 RES1   0.0000
   167 H96       2.5566    0.3307    4.0881   H         1 RES1   0.0000
   168 H97       1.4190   -0.3666    2.9105   H         1 RES1   0.0000
   169 H98      -0.0614    1.6441    4.1742   H         1 RES1   0.0000
   170 H99       0.8015    0.8942    5.5081   H         1 RES1   0.0000
   171 H100     -0.3942   -1.1229    3.7334   H         1 RES1   0.0000
   172 H101     -1.5754    0.0384    4.2920   H         1 RES1   0.0000
   173 H102     -1.6423   -1.7749    5.7601   H         1 RES1   0.0000
   174 H103     -1.0650   -0.3568    6.6108   H         1 RES1   0.0000
   175 H104     -0.0678   -2.6551    7.1340   H         1 RES1   0.0000
   176 H105      2.0086   -0.4840    6.6671   H         1 RES1   0.0000
   177 H106      1.9543   -1.7073    7.9220   H         1 RES1   0.0000
   178 H107      0.7859   -0.4127    7.9426   H         1 RES1   0.0000
   179 H108      1.6532   -1.9930    4.7282   H         1 RES1   0.0000
   180 H109      0.4120   -3.2518    4.7481   H         1 RES1   0.0000
   181 H110      1.6182   -4.4070    6.5939   H         1 RES1   0.0000
   182 H111      2.8784   -3.1849    6.5379   H         1 RES1   0.0000
   183 H112      2.1404   -5.1309    4.3173   H         1 RES1   0.0000
   184 H113      3.5749   -5.1824    5.3390   H         1 RES1   0.0000
   185 H114      2.9137   -2.9771    3.3435   H         1 RES1   0.0000
   186 H115      5.3710   -3.4264    5.0947   H         1 RES1   0.0000
   187 H116      4.2472   -2.0752    5.2066   H         1 RES1   0.0000
   188 H117      5.2825   -2.2447    3.7918   H         1 RES1   0.0000
   189 H118      5.0337   -5.1641    3.2182   H         1 RES1   0.0000
   190 H119      4.7617   -3.9124    2.0124   H         1 RES1   0.0000
   191 H120      3.5406   -5.1652    2.2856   H         1 RES1   0.0000
   192 C61      -6.6007   -7.5867   -2.4190   C.3       1 RES1   0.0000
   193 C62      -6.1145   -7.7113   -0.9776   C.3       1 RES1   0.0000
   194 C63      -7.2483   -7.3329   -0.0269   C.3       1 RES1   0.0000
   195 C64      -5.5963   -9.1283   -0.7143   C.3       1 RES1   0.0000
   196 C65      -4.8322   -9.2851    0.6028   C.3       1 RES1   0.0000
   197 C66      -3.3874   -8.7919    0.5229   C.3       1 RES1   0.0000
   198 C67      -2.6860   -8.7386    1.8876   C.3       1 RES1   0.0000
   199 C68      -2.7816  -10.0703    2.6263   C.3       1 RES1   0.0000
   200 C69      -1.2050   -8.3657    1.6984   C.3       1 RES1   0.0000
   201 C70      -0.5961   -7.5883    2.8690   C.3       1 RES1   0.0000
   202 C71      -1.0394   -6.1206    2.9486   C.3       1 RES1   0.0000
   203 C72      -0.5185   -5.3174    1.7553   C.3       1 RES1   0.0000
   204 N5       -0.8306   -3.8909    1.8054   N.am      1 RES1   0.0000
   205 C73      -2.1420   -3.5232    2.3057   C.3       1 RES1   0.0000
   206 C74      -0.0680   -2.9384    1.2922   C.2       1 RES1   0.0000
   207 O7       -0.3798   -1.7270    1.3356   O.2       1 RES1   0.0000
   208 C75       1.2591   -3.2983    0.6361   C.3       1 RES1   0.0000
   209 O8        1.5125   -2.2902   -0.3283   O.3       1 RES1   0.0000
   210 C76       2.8317   -2.3711   -0.8374   C.3       1 RES1   0.0000
   211 C77       3.0370   -1.1304   -1.6988   C.2       1 RES1   0.0000
   212 O9        2.1343   -0.2694   -1.7190   O.2       1 RES1   0.0000
   213 N6        4.1896   -0.9965   -2.3457   N.am      1 RES1   0.0000
   214 C78       4.5259    0.2958   -2.9235   C.3       1 RES1   0.0000
   215 C79       5.2201   -2.0305   -2.4405   C.3       1 RES1   0.0000
   216 C80       5.0232   -3.0795   -3.5514   C.3       1 RES1   0.0000
   217 C81       5.1713   -2.5678   -4.9908   C.3       1 RES1   0.0000
   218 C82       5.0535   -3.7117   -6.0221   C.3       1 RES1   0.0000
   219 C83       4.3264   -3.3171   -7.3213   C.3       1 RES1   0.0000
   220 C84       5.1851   -2.3871   -8.1788   C.3       1 RES1   0.0000
   221 C85       3.8896   -4.5374   -8.1583   C.3       1 RES1   0.0000
   222 C86       2.6176   -5.2155   -7.6392   C.3       1 RES1   0.0000
   223 C87       2.1326   -6.3498   -8.5439   C.3       1 RES1   0.0000
   224 C88       0.7879   -6.9901   -8.1490   C.3       1 RES1   0.0000
   225 C89      -0.3698   -5.9921   -8.1822   C.3       1 RES1   0.0000
   226 C90       0.8279   -7.7073   -6.7991   C.3       1 RES1   0.0000
   227 H121     -6.9634   -6.5803   -2.6130   H         1 RES1   0.0000
   228 H122     -7.4144   -8.2830   -2.5972   H         1 RES1   0.0000
   229 H123     -5.8024   -7.8048   -3.1233   H         1 RES1   0.0000
   230 H124     -5.2788   -7.0153   -0.8290   H         1 RES1   0.0000
   231 H125     -8.0570   -8.0524   -0.1091   H         1 RES1   0.0000
   232 H126     -7.6452   -6.3518   -0.2754   H         1 RES1   0.0000
   233 H127     -6.9165   -7.3096    1.0070   H         1 RES1   0.0000
   234 H128     -4.9397   -9.4258   -1.5346   H         1 RES1   0.0000
   235 H129     -6.4467   -9.8106   -0.7148   H         1 RES1   0.0000
   236 H130     -4.8261  -10.3423    0.8644   H         1 RES1   0.0000
   237 H131     -5.3572   -8.7537    1.3989   H         1 RES1   0.0000
   238 H132     -3.3718   -7.7876    0.0868   H         1 RES1   0.0000
   239 H133     -2.8210   -9.4494   -0.1400   H         1 RES1   0.0000
   240 H134     -3.1748   -7.9659    2.4935   H         1 RES1   0.0000
   241 H135     -2.4398  -10.8792    1.9853   H         1 RES1   0.0000
   242 H136     -3.8023  -10.2781    2.9302   H         1 RES1   0.0000
   243 H137     -2.1580  -10.0548    3.5172   H         1 RES1   0.0000
   244 H138     -1.0939   -7.7884    0.7795   H         1 RES1   0.0000
   245 H139     -0.6339   -9.2852    1.5640   H         1 RES1   0.0000
   246 H140      0.4939   -7.6367    2.8085   H         1 RES1   0.0000
   247 H141     -0.8850   -8.0723    3.8021   H         1 RES1   0.0000
   248 H142     -0.6395   -5.6868    3.8663   H         1 RES1   0.0000
   249 H143     -2.1266   -6.0890    2.9941   H         1 RES1   0.0000
   250 H144     -0.9529   -5.7218    0.8361   H         1 RES1   0.0000
   251 H145      0.5616   -5.4564    1.7227   H         1 RES1   0.0000
   252 H146     -2.3403   -2.4954    2.0109   H         1 RES1   0.0000
   253 H147     -2.8945   -4.1841    1.8779   H         1 RES1   0.0000
   254 H148     -2.1811   -3.5957    3.3907   H         1 RES1   0.0000
   255 H149      1.2342   -4.2744    0.1425   H         1 RES1   0.0000
   256 H150      2.0437   -3.2826    1.4098   H         1 RES1   0.0000
   257 H151      2.9614   -3.3019   -1.4018   H         1 RES1   0.0000
   258 H152      3.5579   -2.3462   -0.0098   H         1 RES1   0.0000
   259 H153      3.7045    0.9898   -2.7390   H         1 RES1   0.0000
   260 H154      4.7051    0.2073   -3.9952   H         1 RES1   0.0000
   261 H155      5.4362    0.6678   -2.4423   H         1 RES1   0.0000
   262 H156      5.2930   -2.5444   -1.4799   H         1 RES1   0.0000
   263 H157      6.1696   -1.5229   -2.6135   H         1 RES1   0.0000
   264 H158      4.0503   -3.5557   -3.4432   H         1 RES1   0.0000
   265 H159      5.7787   -3.8490   -3.3883   H         1 RES1   0.0000
   266 H160      6.1419   -2.0791   -5.0967   H         1 RES1   0.0000
   267 H161      4.3960   -1.8240   -5.1920   H         1 RES1   0.0000
   268 H162      4.5092   -4.5404   -5.5653   H         1 RES1   0.0000
   269 H163      6.0541   -4.0710   -6.2655   H         1 RES1   0.0000
   270 H164      3.4130   -2.7738   -7.0438   H         1 RES1   0.0000
   271 H165      6.0696   -2.9021   -8.5417   H         1 RES1   0.0000
   272 H166      5.5066   -1.5105   -7.6208   H         1 RES1   0.0000
   273 H167      4.6121   -2.0515   -9.0396   H         1 RES1   0.0000
   274 H168      4.7054   -5.2590   -8.2094   H         1 RES1   0.0000
   275 H169      3.6984   -4.1913   -9.1766   H         1 RES1   0.0000
   276 H170      1.8354   -4.4549   -7.5717   H         1 RES1   0.0000
   277 H171      2.8076   -5.6217   -6.6426   H         1 RES1   0.0000
   278 H172      2.8868   -7.1380   -8.5592   H         1 RES1   0.0000
   279 H173      2.0310   -5.9748   -9.5655   H         1 RES1   0.0000
   280 H174      0.5853   -7.7518   -8.9096   H         1 RES1   0.0000
   281 H175     -0.3009   -5.2893   -7.3549   H         1 RES1   0.0000
   282 H176     -1.3208   -6.5124   -8.0959   H         1 RES1   0.0000
   283 H177     -0.3697   -5.4381   -9.1170   H         1 RES1   0.0000
   284 H178      0.9099   -6.9954   -5.9822   H         1 RES1   0.0000
   285 H179      1.6632   -8.4018   -6.7483   H         1 RES1   0.0000
   286 H180     -0.0892   -8.2753   -6.6592   H         1 RES1   0.0000
@<TRIPOS>BOND
     1     1    17    1
     2     1    19    1
     3     1    22    1
     4     1   112    1
     5     1   114    1
     6     1   117    1
     7     1   207    1
     8     1   209    1
     9     1   212    1
    10     2     3    1
    11     2    37    1
    12     2    38    1
    13     2    39    1
    14     3     4    1
    15     3     5    1
    16     3    40    1
    17     4    41    1
    18     4    42    1
    19     4    43    1
    20     5     6    1
    21     5    44    1
    22     5    45    1
    23     6     7    1
    24     6    46    1
    25     6    47    1
    26     7     8    1
    27     7    48    1
    28     7    49    1
    29     8     9    1
    30     8    10    1
    31     8    50    1
    32     9    51    1
    33     9    52    1
    34     9    53    1
    35    10    11    1
    36    10    54    1
    37    10    55    1
    38    11    12    1
    39    11    56    1
    40    11    57    1
    41    12    13    1
    42    12    58    1
    43    12    59    1
    44    13    14    1
    45    13    60    1
    46    13    61    1
    47    14    15    1
    48    14    16    1
    49    15    62    1
    50    15    63    1
    51    15    64    1
    52    16    17    2
    53    16    18    1
    54    18    19    1
    55    18    65    1
    56    18    66    1
    57    19    20    1
    58    20    21    1
    59    20    67    1
    60    20    68    1
    61    21    22    2
    62    21    23    1
    63    23    24    1
    64    23    25    1
    65    24    69    1
    66    24    70    1
    67    24    71    1
    68    25    26    1
    69    25    72    1
    70    25    73    1
    71    26    27    1
    72    26    74    1
    73    26    75    1
    74    27    28    1
    75    27    76    1
    76    27    77    1
    77    28    29    1
    78    28    78    1
    79    28    79    1
    80    29    30    1
    81    29    31    1
    82    29    80    1
    83    30    81    1
    84    30    82    1
    85    30    83    1
    86    31    32    1
    87    31    84    1
    88    31    85    1
    89    32    33    1
    90    32    86    1
    91    32    87    1
    92    33    34    1
    93    33    88    1
    94    33    89    1
    95    34    35    1
    96    34    36    1
    97    34    90    1
    98    35    91    1
    99    35    92    1
   100    35    93    1
   101    36    94    1
   102    36    95    1
   103    36    96    1
   104    97    98    1
   105    97   132    1
   106    97   133    1
   107    97   134    1
   108    98    99    1
   109    98   100    1
   110    98   135    1
   111    99   136    1
   112    99   137    1
   113    99   138    1
   114   100   101    1
   115   100   139    1
   116   100   140    1
   117   101   102    1
   118   101   141    1
   119   101   142    1
   120   102   103    1
   121   102   143    1
   122   102   144    1
   123   103   104    1
   124   103   105    1
   125   103   145    1
   126   104   146    1
   127   104   147    1
   128   104   148    1
   129   105   106    1
   130   105   149    1
   131   105   150    1
   132   106   107    1
   133   106   151    1
   134   106   152    1
   135   107   108    1
   136   107   153    1
   137   107   154    1
   138   108   109    1
   139   108   155    1
   140   108   156    1
   141   109   110    1
   142   109   111    1
   143   110   157    1
   144   110   158    1
   145   110   159    1
   146   111   112    2
   147   111   113    1
   148   113   114    1
   149   113   160    1
   150   113   161    1
   151   114   115    1
   152   115   116    1
   153   115   162    1
   154   115   163    1
   155   116   117    2
   156   116   118    1
   157   118   119    1
   158   118   120    1
   159   119   164    1
   160   119   165    1
   161   119   166    1
   162   120   121    1
   163   120   167    1
   164   120   168    1
   165   121   122    1
   166   121   169    1
   167   121   170    1
   168   122   123    1
   169   122   171    1
   170   122   172    1
   171   123   124    1
   172   123   173    1
   173   123   174    1
   174   124   125    1
   175   124   126    1
   176   124   175    1
   177   125   176    1
   178   125   177    1
   179   125   178    1
   180   126   127    1
   181   126   179    1
   182   126   180    1
   183   127   128    1
   184   127   181    1
   185   127   182    1
   186   128   129    1
   187   128   183    1
   188   128   184    1
   189   129   130    1
   190   129   131    1
   191   129   185    1
   192   130   186    1
   193   130   187    1
   194   130   188    1
   195   131   189    1
   196   131   190    1
   197   131   191    1
   198   192   193    1
   199   192   227    1
   200   192   228    1
   201   192   229    1
   202   193   194    1
   203   193   195    1
   204   193   230    1
   205   194   231    1
   206   194   232    1
   207   194   233    1
   208   195   196    1
   209   195   234    1
   210   195   235    1
   211   196   197    1
   212   196   236    1
   213   196   237    1
   214   197   198    1
   215   197   238    1
   216   197   239    1
   217   198   199    1
   218   198   200    1
   219   198   240    1
   220   199   241    1
   221   199   242    1
   222   199   243    1
   223   200   201    1
   224   200   244    1
   225   200   245    1
   226   201   202    1
   227   201   246    1
   228   201   247    1
   229   202   203    1
   230   202   248    1
   231   202   249    1
   232   203   204    1
   233   203   250    1
   234   203   251    1
   235   204   205    1
   236   204   206    1
   237   205   252    1
   238   205   253    1
   239   205   254    1
   240   206   207    2
   241   206   208    1
   242   208   209    1
   243   208   255    1
   244   208   256    1
   245   209   210    1
   246   210   211    1
   247   210   257    1
   248   210   258    1
   249   211   212    2
   250   211   213    1
   251   213   214    1
   252   213   215    1
   253   214   259    1
   254   214   260    1
   255   214   261    1
   256   215   216    1
   257   215   262    1
   258   215   263    1
   259   216   217    1
   260   216   264    1
   261   216   265    1
   262   217   218    1
   263   217   266    1
   264   217   267    1
   265   218   219    1
   266   218   268    1
   267   218   269    1
   268   219   220    1
   269   219   221    1
   270   219   270    1
   271   220   271    1
   272   220   272    1
   273   220   273    1
   274   221   222    1
   275   221   274    1
   276   221   275    1
   277   222   223    1
   278   222   276    1
   279   222   277    1
   280   223   224    1
   281   223   278    1
   282   223   279    1
   283   224   225    1
   284   224   226    1
   285   224   280    1
   286   225   281    1
   287   225   282    1
   288   225   283    1
   289   226   284    1
   290   226   285    1
   291   226   286    1
@<TRIPOS>SUBSTRUCTURE
     1 RES1      286 GROUP             0 ****  ****    0  
