@<TRIPOS>MOLECULE
cn9_YICLED_0_nunpairedes_0_charge_3 Charge: 3 Unpaired_Electrons: 6 XTB_Unpaired_Electrons: 0 XTB_Charge: 3
   268   273     1     0     0
SMALL
NoCharges
****
Generated from Architector

@<TRIPOS>ATOM
     1 Eu1       0.0537   -0.1413   -0.2604   Eu        1 RES1   0.0000
     2 C1        6.0536   -1.7667    3.8711   C.3       1 RES1   0.0000
     3 C2        4.7674   -1.1310    4.3858   C.3       1 RES1   0.0000
     4 C3        4.5541   -1.3697    5.8782   C.3       1 RES1   0.0000
     5 C4        3.3502   -0.6073    6.4299   C.3       1 RES1   0.0000
     6 C5        2.0324   -0.9633    5.7369   C.3       1 RES1   0.0000
     7 C6        0.8040   -0.4763    6.5120   C.3       1 RES1   0.0000
     8 C7        0.6606    1.0485    6.6130   C.3       1 RES1   0.0000
     9 C8       -0.0907    1.7301    5.4638   C.3       1 RES1   0.0000
    10 N1        0.5566    1.6691    4.1601   N.am      1 RES1   0.0000
    11 C9        1.8748    2.2902    4.0645   C.3       1 RES1   0.0000
    12 C10       1.9197    3.7846    4.3888   C.3       1 RES1   0.0000
    13 C11       1.1865    4.6912    3.3976   C.3       1 RES1   0.0000
    14 C12      -0.3334    4.6907    3.5517   C.3       1 RES1   0.0000
    15 C13      -1.0061    5.7231    2.6483   C.3       1 RES1   0.0000
    16 C14      -2.4902    5.9079    2.9604   C.3       1 RES1   0.0000
    17 C15      -3.3386    4.6715    2.6710   C.3       1 RES1   0.0000
    18 C16      -4.8106    4.9166    2.9831   C.3       1 RES1   0.0000
    19 C17      -0.0341    1.1961    3.0722   C.2       1 RES1   0.0000
    20 O1        0.4875    1.2202    1.9335   O.2       1 RES1   0.0000
    21 C18      -1.4062    0.5390    3.2111   C.3       1 RES1   0.0000
    22 N2       -1.8046   -0.0154    1.9282   N.4       1 RES1   0.0000
    23 C19      -2.6862   -1.1725    2.0130   C.3       1 RES1   0.0000
    24 P1       -1.5909   -2.6451    1.7142   P.3       1 RES1   0.0000
    25 O2       -0.3501   -2.0945    1.0855   O.2       1 RES1   0.0000
    26 C20      -2.5086   -3.6171    0.4572   C.3       1 RES1   0.0000
    27 C21      -1.8936   -4.9388    0.0103   C.3       1 RES1   0.0000
    28 C22      -2.3244   -6.1390    0.8499   C.3       1 RES1   0.0000
    29 C23      -1.9860   -7.4541    0.1539   C.3       1 RES1   0.0000
    30 C24      -1.2293   -3.3201    3.3898   C.3       1 RES1   0.0000
    31 C25       0.0275   -4.1721    3.5045   C.3       1 RES1   0.0000
    32 C26       0.2757   -4.5201    4.9756   C.3       1 RES1   0.0000
    33 C27       1.6005   -5.2390    5.2057   C.3       1 RES1   0.0000
    34 H1        6.1833   -1.5699    2.8067   H         1 RES1   0.0000
    35 H2        6.0397   -2.8425    4.0262   H         1 RES1   0.0000
    36 H3        6.9154   -1.3638    4.3944   H         1 RES1   0.0000
    37 H4        3.9208   -1.5501    3.8361   H         1 RES1   0.0000
    38 H5        4.7972   -0.0541    4.1915   H         1 RES1   0.0000
    39 H6        5.4464   -1.0528    6.4183   H         1 RES1   0.0000
    40 H7        4.4281   -2.4383    6.0570   H         1 RES1   0.0000
    41 H8        3.5509    0.4619    6.3471   H         1 RES1   0.0000
    42 H9        3.2610   -0.8405    7.4897   H         1 RES1   0.0000
    43 H10       1.9836   -2.0512    5.6618   H         1 RES1   0.0000
    44 H11       2.0100   -0.5623    4.7199   H         1 RES1   0.0000
    45 H12       0.8766   -0.8734    7.5258   H         1 RES1   0.0000
    46 H13      -0.1022   -0.9029    6.0702   H         1 RES1   0.0000
    47 H14       1.6443    1.4940    6.7434   H         1 RES1   0.0000
    48 H15       0.0796    1.2750    7.5096   H         1 RES1   0.0000
    49 H16      -0.2285    2.7838    5.7248   H         1 RES1   0.0000
    50 H17      -1.0773    1.2844    5.3933   H         1 RES1   0.0000
    51 H18       2.2264    2.1356    3.0455   H         1 RES1   0.0000
    52 H19       2.5397    1.7545    4.7452   H         1 RES1   0.0000
    53 H20       2.9739    4.0677    4.4039   H         1 RES1   0.0000
    54 H21       1.5327    3.9572    5.3908   H         1 RES1   0.0000
    55 H22       1.4539    4.4195    2.3731   H         1 RES1   0.0000
    56 H23       1.5361    5.7098    3.5652   H         1 RES1   0.0000
    57 H24      -0.5817    4.9286    4.5865   H         1 RES1   0.0000
    58 H25      -0.7354    3.7010    3.3275   H         1 RES1   0.0000
    59 H26      -0.8809    5.4359    1.6004   H         1 RES1   0.0000
    60 H27      -0.5108    6.6831    2.7834   H         1 RES1   0.0000
    61 H28      -2.8782    6.7344    2.3638   H         1 RES1   0.0000
    62 H29      -2.6044    6.1796    4.0097   H         1 RES1   0.0000
    63 H30      -2.9829    3.8239    3.2663   H         1 RES1   0.0000
    64 H31      -3.2329    4.4112    1.6128   H         1 RES1   0.0000
    65 H32      -4.9329    5.1808    4.0297   H         1 RES1   0.0000
    66 H33      -5.4084    4.0292    2.7806   H         1 RES1   0.0000
    67 H34      -5.1952    5.7366    2.3824   H         1 RES1   0.0000
    68 H35      -2.1472    1.2500    3.5982   H         1 RES1   0.0000
    69 H36      -1.3244   -0.2667    3.9393   H         1 RES1   0.0000
    70 H37      -2.2432    0.7080    1.3711   H         1 RES1   0.0000
    71 H38      -3.4075   -1.1477    1.1984   H         1 RES1   0.0000
    72 H39      -3.2271   -1.2225    2.9581   H         1 RES1   0.0000
    73 H40      -2.4761   -2.9234   -0.3929   H         1 RES1   0.0000
    74 H41      -3.5447   -3.7568    0.7596   H         1 RES1   0.0000
    75 H42      -0.8052   -4.8429    0.0013   H         1 RES1   0.0000
    76 H43      -2.2188   -5.1251   -1.0160   H         1 RES1   0.0000
    77 H44      -3.4050   -6.0957    1.0070   H         1 RES1   0.0000
    78 H45      -1.8450   -6.1084    1.8311   H         1 RES1   0.0000
    79 H46      -2.4918   -7.5183   -0.8063   H         1 RES1   0.0000
    80 H47      -2.3096   -8.2894    0.7669   H         1 RES1   0.0000
    81 H48      -0.9161   -7.5549   -0.0136   H         1 RES1   0.0000
    82 H49      -2.1053   -3.8640    3.7338   H         1 RES1   0.0000
    83 H50      -1.0942   -2.4507    4.0438   H         1 RES1   0.0000
    84 H51       0.8803   -3.6135    3.1089   H         1 RES1   0.0000
    85 H52      -0.0700   -5.0903    2.9260   H         1 RES1   0.0000
    86 H53      -0.5396   -5.1493    5.3338   H         1 RES1   0.0000
    87 H54       0.2598   -3.6058    5.5748   H         1 RES1   0.0000
    88 H55       1.6295   -6.1783    4.6594   H         1 RES1   0.0000
    89 H56       1.7181   -5.4646    6.2632   H         1 RES1   0.0000
    90 H57       2.4409   -4.6213    4.8892   H         1 RES1   0.0000
    91 C28       5.5622   -3.3525   -1.9024   C.3       1 RES1   0.0000
    92 C29       5.2074   -3.1882   -3.3767   C.3       1 RES1   0.0000
    93 C30       4.5718   -1.8387   -3.7181   C.3       1 RES1   0.0000
    94 C31       4.3376   -1.7209   -5.2220   C.3       1 RES1   0.0000
    95 C32       3.7974   -0.3655   -5.6956   C.3       1 RES1   0.0000
    96 C33       2.2662   -0.2350   -5.7130   C.3       1 RES1   0.0000
    97 C34       1.5729    0.3772   -4.4830   C.3       1 RES1   0.0000
    98 C35       1.7733    1.8922   -4.4155   C.3       1 RES1   0.0000
    99 N3        0.8678    2.6677   -3.5501   N.am      1 RES1   0.0000
   100 C36       0.8278    4.0968   -3.8781   C.3       1 RES1   0.0000
   101 C37       1.9766    4.9847   -3.3732   C.3       1 RES1   0.0000
   102 C38       1.5964    6.4631   -3.5220   C.3       1 RES1   0.0000
   103 C39       2.7359    7.4478   -3.2200   C.3       1 RES1   0.0000
   104 C40       2.9632    7.7965   -1.7381   C.3       1 RES1   0.0000
   105 C41       4.1964    7.1767   -1.0743   C.3       1 RES1   0.0000
   106 C42       5.5360    7.6404   -1.6485   C.3       1 RES1   0.0000
   107 C43       6.7205    7.0269   -0.9025   C.3       1 RES1   0.0000
   108 C44       0.1250    2.1511   -2.5778   C.2       1 RES1   0.0000
   109 O3       -0.1106    0.9416   -2.4014   O.2       1 RES1   0.0000
   110 C45      -0.4631    3.1300   -1.5400   C.3       1 RES1   0.0000
   111 N4       -1.0359    2.3802   -0.4097   N.4       1 RES1   0.0000
   112 C46      -2.5012    2.3889   -0.3972   C.3       1 RES1   0.0000
   113 P2       -3.2530    0.8029   -1.0695   P.3       1 RES1   0.0000
   114 O4       -2.2919   -0.3310   -0.8270   O.2       1 RES1   0.0000
   115 C47      -4.7973    0.7336   -0.0547   C.3       1 RES1   0.0000
   116 C48      -5.6660   -0.5208   -0.1409   C.3       1 RES1   0.0000
   117 C49      -6.5621   -0.5938   -1.3755   C.3       1 RES1   0.0000
   118 C50      -7.6470   -1.6541   -1.1947   C.3       1 RES1   0.0000
   119 C51      -3.6209    1.1272   -2.8336   C.3       1 RES1   0.0000
   120 C52      -4.6403    2.2510   -3.0132   C.3       1 RES1   0.0000
   121 C53      -4.9508    2.5240   -4.4855   C.3       1 RES1   0.0000
   122 C54      -5.9778    3.6444   -4.6193   C.3       1 RES1   0.0000
   123 H58       5.9420   -4.3533   -1.7115   H         1 RES1   0.0000
   124 H59       4.6810   -3.2048   -1.2813   H         1 RES1   0.0000
   125 H60       6.3280   -2.6439   -1.5963   H         1 RES1   0.0000
   126 H61       4.5248   -3.9893   -3.6675   H         1 RES1   0.0000
   127 H62       6.1176   -3.3036   -3.9650   H         1 RES1   0.0000
   128 H63       5.2479   -1.0382   -3.4158   H         1 RES1   0.0000
   129 H64       3.6351   -1.7155   -3.1653   H         1 RES1   0.0000
   130 H65       3.6709   -2.5172   -5.5551   H         1 RES1   0.0000
   131 H66       5.3030   -1.8918   -5.7001   H         1 RES1   0.0000
   132 H67       4.1474   -0.2326   -6.7204   H         1 RES1   0.0000
   133 H68       4.2387    0.4300   -5.0968   H         1 RES1   0.0000
   134 H69       1.8527   -1.2303   -5.8745   H         1 RES1   0.0000
   135 H70       1.9853    0.3665   -6.5795   H         1 RES1   0.0000
   136 H71       1.9092   -0.0979   -3.5601   H         1 RES1   0.0000
   137 H72       0.5042    0.1854   -4.5843   H         1 RES1   0.0000
   138 H73       1.6633    2.2835   -5.4310   H         1 RES1   0.0000
   139 H74       2.7891    2.1290   -4.0804   H         1 RES1   0.0000
   140 H75      -0.1106    4.5117   -3.5155   H         1 RES1   0.0000
   141 H76       0.8136    4.1627   -4.9685   H         1 RES1   0.0000
   142 H77       2.8686    4.7893   -3.9664   H         1 RES1   0.0000
   143 H78       2.2057    4.7755   -2.3314   H         1 RES1   0.0000
   144 H79       0.7377    6.6821   -2.8823   H         1 RES1   0.0000
   145 H80       1.2747    6.6175   -4.5536   H         1 RES1   0.0000
   146 H81       2.4962    8.3691   -3.7494   H         1 RES1   0.0000
   147 H82       3.6537    7.0596   -3.6575   H         1 RES1   0.0000
   148 H83       2.0809    7.5130   -1.1596   H         1 RES1   0.0000
   149 H84       3.0639    8.8767   -1.6529   H         1 RES1   0.0000
   150 H85       4.1433    6.0923   -1.1325   H         1 RES1   0.0000
   151 H86       4.1843    7.4373   -0.0132   H         1 RES1   0.0000
   152 H87       5.6013    8.7253   -1.5711   H         1 RES1   0.0000
   153 H88       5.6117    7.3772   -2.7059   H         1 RES1   0.0000
   154 H89       6.6761    7.2533    0.1616   H         1 RES1   0.0000
   155 H90       7.6591    7.4178   -1.2876   H         1 RES1   0.0000
   156 H91       6.7395    5.9458   -1.0218   H         1 RES1   0.0000
   157 H92      -1.2185    3.7902   -1.9862   H         1 RES1   0.0000
   158 H93       0.3619    3.7519   -1.1923   H         1 RES1   0.0000
   159 H94      -0.6846    2.7909    0.4575   H         1 RES1   0.0000
   160 H95      -2.9055    3.2091   -0.9966   H         1 RES1   0.0000
   161 H96      -2.8755    2.5614    0.6161   H         1 RES1   0.0000
   162 H97      -5.3860    1.6076   -0.3315   H         1 RES1   0.0000
   163 H98      -4.4933    0.8706    0.9873   H         1 RES1   0.0000
   164 H99      -6.3156   -0.5380    0.7370   H         1 RES1   0.0000
   165 H100     -5.0457   -1.4195   -0.1089   H         1 RES1   0.0000
   166 H101     -5.9661   -0.8263   -2.2594   H         1 RES1   0.0000
   167 H102     -7.0498    0.3682   -1.5379   H         1 RES1   0.0000
   168 H103     -7.2138   -2.6193   -0.9404   H         1 RES1   0.0000
   169 H104     -8.2269   -1.7684   -2.1078   H         1 RES1   0.0000
   170 H105     -8.3235   -1.3661   -0.3931   H         1 RES1   0.0000
   171 H106     -3.9947    0.2038   -3.2812   H         1 RES1   0.0000
   172 H107     -2.6768    1.3661   -3.3341   H         1 RES1   0.0000
   173 H108     -4.2815    3.1813   -2.5663   H         1 RES1   0.0000
   174 H109     -5.5730    1.9875   -2.5151   H         1 RES1   0.0000
   175 H110     -5.3395    1.6155   -4.9471   H         1 RES1   0.0000
   176 H111     -4.0348    2.7976   -5.0140   H         1 RES1   0.0000
   177 H112     -6.9046    3.3723   -4.1187   H         1 RES1   0.0000
   178 H113     -6.1966    3.8314   -5.6667   H         1 RES1   0.0000
   179 H114     -5.6049    4.5656   -4.1743   H         1 RES1   0.0000
   180 C55      -4.6803   -3.5187   -2.3871   C.3       1 RES1   0.0000
   181 C56      -4.0982   -3.5576   -3.7949   C.3       1 RES1   0.0000
   182 C57      -2.6071   -3.8878   -3.7837   C.3       1 RES1   0.0000
   183 C58      -2.0463   -4.0355   -5.1957   C.3       1 RES1   0.0000
   184 C59      -0.6886   -4.7371   -5.2739   C.3       1 RES1   0.0000
   185 C60       0.5425   -3.8469   -5.0850   C.3       1 RES1   0.0000
   186 C61       0.8136   -3.2568   -3.6930   C.3       1 RES1   0.0000
   187 C62       0.8538   -4.3184   -2.5904   C.3       1 RES1   0.0000
   188 N5        1.6985   -3.9982   -1.4280   N.am      1 RES1   0.0000
   189 C63       2.5339   -5.0856   -0.9471   C.3       1 RES1   0.0000
   190 C64       1.8140   -6.2008   -0.1805   C.3       1 RES1   0.0000
   191 C65       2.8878   -7.1775    0.3112   C.3       1 RES1   0.0000
   192 C66       2.3588   -8.4595    0.9553   C.3       1 RES1   0.0000
   193 C67       1.9378   -8.3113    2.4241   C.3       1 RES1   0.0000
   194 C68       0.4401   -8.4793    2.6765   C.3       1 RES1   0.0000
   195 C69      -0.0974   -9.8622    2.3050   C.3       1 RES1   0.0000
   196 C70      -1.4735  -10.1229    2.9116   C.3       1 RES1   0.0000
   197 C71       1.6577   -2.8047   -0.8539   C.2       1 RES1   0.0000
   198 O5        0.9576   -1.8783   -1.3056   O.2       1 RES1   0.0000
   199 C72       2.4964   -2.5514    0.4234   C.3       1 RES1   0.0000
   200 N6        2.1048   -1.3040    1.0917   N.4       1 RES1   0.0000
   201 C73       3.1956   -0.3943    1.4138   C.3       1 RES1   0.0000
   202 P3        3.3361    0.8035    0.0025   P.3       1 RES1   0.0000
   203 O6        2.0516    0.7746   -0.7728   O.2       1 RES1   0.0000
   204 C74       3.5690    2.5205    0.5728   C.3       1 RES1   0.0000
   205 C75       3.6703    3.3702   -0.6938   C.3       1 RES1   0.0000
   206 C76       5.1058    3.5248   -1.1931   C.3       1 RES1   0.0000
   207 C77       5.1892    3.9940   -2.6415   C.3       1 RES1   0.0000
   208 C78       4.7585    0.1722   -0.9448   C.3       1 RES1   0.0000
   209 C79       6.1162    0.2526   -0.2390   C.3       1 RES1   0.0000
   210 C80       7.2518    0.1996   -1.2670   C.3       1 RES1   0.0000
   211 C81       8.6259    0.3022   -0.6165   C.3       1 RES1   0.0000
   212 H115     -5.7522   -3.3515   -2.4322   H         1 RES1   0.0000
   213 H116     -4.2225   -2.7161   -1.8073   H         1 RES1   0.0000
   214 H117     -4.5061   -4.4629   -1.8740   H         1 RES1   0.0000
   215 H118     -4.2657   -2.5944   -4.2826   H         1 RES1   0.0000
   216 H119     -4.6289   -4.3128   -4.3754   H         1 RES1   0.0000
   217 H120     -2.4768   -4.8374   -3.2591   H         1 RES1   0.0000
   218 H121     -2.0761   -3.1140   -3.2229   H         1 RES1   0.0000
   219 H122     -1.9848   -3.0600   -5.6783   H         1 RES1   0.0000
   220 H123     -2.7609   -4.6334   -5.7631   H         1 RES1   0.0000
   221 H124     -0.6033   -5.1648   -6.2747   H         1 RES1   0.0000
   222 H125     -0.6705   -5.5712   -4.5717   H         1 RES1   0.0000
   223 H126      0.4613   -3.0190   -5.7933   H         1 RES1   0.0000
   224 H127      1.4153   -4.4340   -5.3799   H         1 RES1   0.0000
   225 H128      0.0759   -2.4937   -3.4457   H         1 RES1   0.0000
   226 H129      1.7871   -2.7695   -3.7409   H         1 RES1   0.0000
   227 H130      1.2595   -5.2378   -3.0105   H         1 RES1   0.0000
   228 H131     -0.1592   -4.5133   -2.2334   H         1 RES1   0.0000
   229 H132      3.3135   -4.6918   -0.2998   H         1 RES1   0.0000
   230 H133      3.0171   -5.5286   -1.8194   H         1 RES1   0.0000
   231 H134      1.1188   -6.7230   -0.8379   H         1 RES1   0.0000
   232 H135      1.2463   -5.7908    0.6579   H         1 RES1   0.0000
   233 H136      3.5393   -6.6593    1.0180   H         1 RES1   0.0000
   234 H137      3.4980   -7.4487   -0.5526   H         1 RES1   0.0000
   235 H138      3.1548   -9.1986    0.8894   H         1 RES1   0.0000
   236 H139      1.5228   -8.8284    0.3657   H         1 RES1   0.0000
   237 H140      2.2475   -7.3287    2.7863   H         1 RES1   0.0000
   238 H141      2.4647   -9.0519    3.0235   H         1 RES1   0.0000
   239 H142     -0.1137   -7.7203    2.1240   H         1 RES1   0.0000
   240 H143      0.2461   -8.3169    3.7387   H         1 RES1   0.0000
   241 H144      0.5912  -10.6257    2.6674   H         1 RES1   0.0000
   242 H145     -0.1637   -9.9642    1.2200   H         1 RES1   0.0000
   243 H146     -1.4216  -10.1051    3.9976   H         1 RES1   0.0000
   244 H147     -1.8462  -11.0971    2.6050   H         1 RES1   0.0000
   245 H148     -2.1971   -9.3718    2.5984   H         1 RES1   0.0000
   246 H149      3.5602   -2.5023    0.1625   H         1 RES1   0.0000
   247 H150      2.3501   -3.3928    1.1047   H         1 RES1   0.0000
   248 H151      1.5889   -1.5482    1.9366   H         1 RES1   0.0000
   249 H152      4.1578   -0.8971    1.5462   H         1 RES1   0.0000
   250 H153      2.9713    0.1306    2.3388   H         1 RES1   0.0000
   251 H154      4.4323    2.6397    1.2180   H         1 RES1   0.0000
   252 H155      2.6629    2.7904    1.1205   H         1 RES1   0.0000
   253 H156      3.2669    4.3622   -0.4878   H         1 RES1   0.0000
   254 H157      3.0542    2.8944   -1.4665   H         1 RES1   0.0000
   255 H158      5.6209    2.5737   -1.1259   H         1 RES1   0.0000
   256 H159      5.6275    4.2255   -0.5389   H         1 RES1   0.0000
   257 H160      4.6640    3.2952   -3.2926   H         1 RES1   0.0000
   258 H161      6.2268    4.0504   -2.9601   H         1 RES1   0.0000
   259 H162      4.7535    4.9788   -2.7629   H         1 RES1   0.0000
   260 H163      4.7814    0.7172   -1.8900   H         1 RES1   0.0000
   261 H164      4.5322   -0.8685   -1.1844   H         1 RES1   0.0000
   262 H165      6.2353   -0.5780    0.4597   H         1 RES1   0.0000
   263 H166      6.2159    1.1706    0.3445   H         1 RES1   0.0000
   264 H167      7.1258    1.0176   -1.9815   H         1 RES1   0.0000
   265 H168      7.1929   -0.7344   -1.8293   H         1 RES1   0.0000
   266 H169      8.7326    1.2476   -0.0898   H         1 RES1   0.0000
   267 H170      9.3975    0.2502   -1.3793   H         1 RES1   0.0000
   268 H171      8.7865   -0.5131    0.0862   H         1 RES1   0.0000
@<TRIPOS>BOND
     1     1    20    1
     2     1    22    1
     3     1    25    1
     4     1   109    1
     5     1   111    1
     6     1   114    1
     7     1   198    1
     8     1   200    1
     9     1   203    1
    10     2     3    1
    11     2    34    1
    12     2    35    1
    13     2    36    1
    14     3     4    1
    15     3    37    1
    16     3    38    1
    17     4     5    1
    18     4    39    1
    19     4    40    1
    20     5     6    1
    21     5    41    1
    22     5    42    1
    23     6     7    1
    24     6    43    1
    25     6    44    1
    26     7     8    1
    27     7    45    1
    28     7    46    1
    29     8     9    1
    30     8    47    1
    31     8    48    1
    32     9    10    1
    33     9    49    1
    34     9    50    1
    35    10    11    1
    36    10    19    1
    37    11    12    1
    38    11    51    1
    39    11    52    1
    40    12    13    1
    41    12    53    1
    42    12    54    1
    43    13    14    1
    44    13    55    1
    45    13    56    1
    46    14    15    1
    47    14    57    1
    48    14    58    1
    49    15    16    1
    50    15    59    1
    51    15    60    1
    52    16    17    1
    53    16    61    1
    54    16    62    1
    55    17    18    1
    56    17    63    1
    57    17    64    1
    58    18    65    1
    59    18    66    1
    60    18    67    1
    61    19    20    2
    62    19    21    1
    63    21    22    1
    64    21    68    1
    65    21    69    1
    66    22    23    1
    67    22    70    1
    68    23    24    1
    69    23    71    1
    70    23    72    1
    71    24    25    2
    72    24    26    1
    73    24    30    1
    74    26    27    1
    75    26    73    1
    76    26    74    1
    77    27    28    1
    78    27    75    1
    79    27    76    1
    80    28    29    1
    81    28    77    1
    82    28    78    1
    83    29    79    1
    84    29    80    1
    85    29    81    1
    86    30    31    1
    87    30    82    1
    88    30    83    1
    89    31    32    1
    90    31    84    1
    91    31    85    1
    92    32    33    1
    93    32    86    1
    94    32    87    1
    95    33    88    1
    96    33    89    1
    97    33    90    1
    98    91    92    1
    99    91   123    1
   100    91   124    1
   101    91   125    1
   102    92    93    1
   103    92   126    1
   104    92   127    1
   105    93    94    1
   106    93   128    1
   107    93   129    1
   108    94    95    1
   109    94   130    1
   110    94   131    1
   111    95    96    1
   112    95   132    1
   113    95   133    1
   114    96    97    1
   115    96   134    1
   116    96   135    1
   117    97    98    1
   118    97   136    1
   119    97   137    1
   120    98    99    1
   121    98   138    1
   122    98   139    1
   123    99   100    1
   124    99   108    1
   125   100   101    1
   126   100   140    1
   127   100   141    1
   128   101   102    1
   129   101   142    1
   130   101   143    1
   131   102   103    1
   132   102   144    1
   133   102   145    1
   134   103   104    1
   135   103   146    1
   136   103   147    1
   137   104   105    1
   138   104   148    1
   139   104   149    1
   140   105   106    1
   141   105   150    1
   142   105   151    1
   143   106   107    1
   144   106   152    1
   145   106   153    1
   146   107   154    1
   147   107   155    1
   148   107   156    1
   149   108   109    2
   150   108   110    1
   151   110   111    1
   152   110   157    1
   153   110   158    1
   154   111   112    1
   155   111   159    1
   156   112   113    1
   157   112   160    1
   158   112   161    1
   159   113   114    2
   160   113   115    1
   161   113   119    1
   162   115   116    1
   163   115   162    1
   164   115   163    1
   165   116   117    1
   166   116   164    1
   167   116   165    1
   168   117   118    1
   169   117   166    1
   170   117   167    1
   171   118   168    1
   172   118   169    1
   173   118   170    1
   174   119   120    1
   175   119   171    1
   176   119   172    1
   177   120   121    1
   178   120   173    1
   179   120   174    1
   180   121   122    1
   181   121   175    1
   182   121   176    1
   183   122   177    1
   184   122   178    1
   185   122   179    1
   186   180   181    1
   187   180   212    1
   188   180   213    1
   189   180   214    1
   190   181   182    1
   191   181   215    1
   192   181   216    1
   193   182   183    1
   194   182   217    1
   195   182   218    1
   196   183   184    1
   197   183   219    1
   198   183   220    1
   199   184   185    1
   200   184   221    1
   201   184   222    1
   202   185   186    1
   203   185   223    1
   204   185   224    1
   205   186   187    1
   206   186   225    1
   207   186   226    1
   208   187   188    1
   209   187   227    1
   210   187   228    1
   211   188   189    1
   212   188   197    1
   213   189   190    1
   214   189   229    1
   215   189   230    1
   216   190   191    1
   217   190   231    1
   218   190   232    1
   219   191   192    1
   220   191   233    1
   221   191   234    1
   222   192   193    1
   223   192   235    1
   224   192   236    1
   225   193   194    1
   226   193   237    1
   227   193   238    1
   228   194   195    1
   229   194   239    1
   230   194   240    1
   231   195   196    1
   232   195   241    1
   233   195   242    1
   234   196   243    1
   235   196   244    1
   236   196   245    1
   237   197   198    2
   238   197   199    1
   239   199   200    1
   240   199   246    1
   241   199   247    1
   242   200   201    1
   243   200   248    1
   244   201   202    1
   245   201   249    1
   246   201   250    1
   247   202   203    2
   248   202   204    1
   249   202   208    1
   250   204   205    1
   251   204   251    1
   252   204   252    1
   253   205   206    1
   254   205   253    1
   255   205   254    1
   256   206   207    1
   257   206   255    1
   258   206   256    1
   259   207   257    1
   260   207   258    1
   261   207   259    1
   262   208   209    1
   263   208   260    1
   264   208   261    1
   265   209   210    1
   266   209   262    1
   267   209   263    1
   268   210   211    1
   269   210   264    1
   270   210   265    1
   271   211   266    1
   272   211   267    1
   273   211   268    1
@<TRIPOS>SUBSTRUCTURE
     1 RES1      268 GROUP             0 ****  ****    0  
