@<TRIPOS>MOLECULE
cn9_YICLED_0_nunpairedes_0_charge_3 Charge: 3 Unpaired_Electrons: 6 XTB_Unpaired_Electrons: 0 XTB_Charge: 3
   340   345     1     0     0
SMALL
NoCharges
****
Generated from Architector

@<TRIPOS>ATOM
     1 Eu1      -0.1107   -0.1317   -0.0075   Eu        1 RES1   0.0000
     2 C1        9.3368    4.8675   -0.0383   C.3       1 RES1   0.0000
     3 C2        8.7202    3.5102   -0.3517   C.3       1 RES1   0.0000
     4 C3        8.8919    2.5313    0.8082   C.3       1 RES1   0.0000
     5 C4        8.3407    1.1476    0.4779   C.3       1 RES1   0.0000
     6 C5        8.6469    0.1275    1.5734   C.3       1 RES1   0.0000
     7 C6        8.1988   -1.2939    1.2193   C.3       1 RES1   0.0000
     8 C7        6.6784   -1.4060    1.1847   C.3       1 RES1   0.0000
     9 C8        6.1238   -2.8144    0.9491   C.3       1 RES1   0.0000
    10 C9        4.6170   -2.7627    1.2093   C.3       1 RES1   0.0000
    11 C10       3.7428   -3.8103    0.5158   C.3       1 RES1   0.0000
    12 C11       3.4937   -3.5477   -0.9769   C.3       1 RES1   0.0000
    13 C12       2.1587   -4.1563   -1.4472   C.3       1 RES1   0.0000
    14 N1        1.5331   -3.4013   -2.5350   N.am      1 RES1   0.0000
    15 C13       1.7198   -3.8883   -3.8858   C.3       1 RES1   0.0000
    16 C14       3.0759   -3.4676   -4.4648   C.3       1 RES1   0.0000
    17 C15       3.0548   -3.4540   -5.9908   C.3       1 RES1   0.0000
    18 C16       2.4084   -2.1926   -6.5541   C.3       1 RES1   0.0000
    19 C17       2.2865   -2.2558   -8.0754   C.3       1 RES1   0.0000
    20 C18       1.1533   -3.1593   -8.5659   C.3       1 RES1   0.0000
    21 C19      -0.2266   -2.4869   -8.5320   C.3       1 RES1   0.0000
    22 C20      -1.0668   -2.7447   -7.2726   C.3       1 RES1   0.0000
    23 C21      -2.0276   -3.9288   -7.4062   C.3       1 RES1   0.0000
    24 C22      -1.3640   -5.3008   -7.5244   C.3       1 RES1   0.0000
    25 C23      -0.5647   -5.7002   -6.2848   C.3       1 RES1   0.0000
    26 C24       0.0586   -7.0819   -6.4280   C.3       1 RES1   0.0000
    27 C25       0.9416   -2.2646   -2.2031   C.2       1 RES1   0.0000
    28 O1        0.8423   -1.9484   -0.9937   O.2       1 RES1   0.0000
    29 C26       0.3795   -1.2696   -3.2288   C.3       1 RES1   0.0000
    30 O2       -0.3439   -0.2768   -2.4975   O.3       1 RES1   0.0000
    31 C27      -0.4709    0.9941   -3.1369   C.3       1 RES1   0.0000
    32 C28      -1.1234    1.9703   -2.1402   C.3       1 RES1   0.0000
    33 O3       -0.3709    2.1870   -0.9367   O.3       1 RES1   0.0000
    34 C29       0.7664    3.0531   -1.0600   C.3       1 RES1   0.0000
    35 C30       2.0120    2.1726   -1.2421   C.2       1 RES1   0.0000
    36 O4        1.7892    0.9359   -1.2471   O.2       1 RES1   0.0000
    37 N2        3.2357    2.6489   -1.3669   N.am      1 RES1   0.0000
    38 C31       3.5963    4.0586   -1.3541   C.3       1 RES1   0.0000
    39 C32       4.1141    4.5357   -2.7132   C.3       1 RES1   0.0000
    40 C33       3.0977    4.3668   -3.8426   C.3       1 RES1   0.0000
    41 C34       3.7739    4.5217   -5.2055   C.3       1 RES1   0.0000
    42 C35       2.8036    4.4770   -6.3808   C.3       1 RES1   0.0000
    43 C36       2.0217    3.1677   -6.4784   C.3       1 RES1   0.0000
    44 C37       1.3645    3.0288   -7.8524   C.3       1 RES1   0.0000
    45 C38       0.4031    1.8432   -7.9590   C.3       1 RES1   0.0000
    46 C39      -0.8822    1.9990   -7.1427   C.3       1 RES1   0.0000
    47 C40      -1.7681    3.1437   -7.6294   C.3       1 RES1   0.0000
    48 C41      -3.1159    3.2023   -6.9130   C.3       1 RES1   0.0000
    49 C42      -2.9930    3.5911   -5.4429   C.3       1 RES1   0.0000
    50 C43       4.3160    1.6844   -1.5873   C.3       1 RES1   0.0000
    51 C44       4.2499    1.0276   -2.9714   C.3       1 RES1   0.0000
    52 C45       5.0661   -0.2631   -3.0538   C.3       1 RES1   0.0000
    53 C46       6.5750   -0.0532   -2.9193   C.3       1 RES1   0.0000
    54 C47       7.3738   -1.2251   -3.4902   C.3       1 RES1   0.0000
    55 C48       7.0874   -2.5496   -2.7893   C.3       1 RES1   0.0000
    56 C49       7.9960   -3.6692   -3.2954   C.3       1 RES1   0.0000
    57 C50       7.7624   -5.0160   -2.6044   C.3       1 RES1   0.0000
    58 C51       6.4123   -5.6748   -2.8967   C.3       1 RES1   0.0000
    59 C52       6.2097   -6.0524   -4.3626   C.3       1 RES1   0.0000
    60 C53       4.9298   -6.8596   -4.5771   C.3       1 RES1   0.0000
    61 C54       4.6738   -7.1424   -6.0510   C.3       1 RES1   0.0000
    62 H1        9.2385    5.5432   -0.8847   H         1 RES1   0.0000
    63 H2       10.3945    4.7543    0.1840   H         1 RES1   0.0000
    64 H3        8.8537    5.3194    0.8253   H         1 RES1   0.0000
    65 H4        9.1993    3.0948   -1.2422   H         1 RES1   0.0000
    66 H5        7.6536    3.6336   -0.5772   H         1 RES1   0.0000
    67 H6        8.3924    2.9253    1.6965   H         1 RES1   0.0000
    68 H7        9.9540    2.4448    1.0391   H         1 RES1   0.0000
    69 H8        8.7859    0.8044   -0.4592   H         1 RES1   0.0000
    70 H9        7.2582    1.2242    0.3303   H         1 RES1   0.0000
    71 H10       8.1588    0.4336    2.5023   H         1 RES1   0.0000
    72 H11       9.7233    0.1231    1.7542   H         1 RES1   0.0000
    73 H12       8.5912   -1.9824    1.9696   H         1 RES1   0.0000
    74 H13       8.6201   -1.5800    0.2535   H         1 RES1   0.0000
    75 H14       6.2971   -0.7461    0.3992   H         1 RES1   0.0000
    76 H15       6.2932   -1.0385    2.1392   H         1 RES1   0.0000
    77 H16       6.6050   -3.5249    1.6217   H         1 RES1   0.0000
    78 H17       6.3274   -3.1373   -0.0702   H         1 RES1   0.0000
    79 H18       4.2976   -1.7620    0.9224   H         1 RES1   0.0000
    80 H19       4.4589   -2.8528    2.2825   H         1 RES1   0.0000
    81 H20       2.7782   -3.8396    1.0378   H         1 RES1   0.0000
    82 H21       4.1949   -4.7932    0.6420   H         1 RES1   0.0000
    83 H22       4.3157   -3.9672   -1.5538   H         1 RES1   0.0000
    84 H23       3.4759   -2.4729   -1.1832   H         1 RES1   0.0000
    85 H24       1.4566   -4.1345   -0.6096   H         1 RES1   0.0000
    86 H25       2.2847   -5.1913   -1.7641   H         1 RES1   0.0000
    87 H26       0.9073   -3.5159   -4.5089   H         1 RES1   0.0000
    88 H27       1.6416   -4.9792   -3.8618   H         1 RES1   0.0000
    89 H28       3.8481   -4.1573   -4.1314   H         1 RES1   0.0000
    90 H29       3.3322   -2.4733   -4.0903   H         1 RES1   0.0000
    91 H30       2.5318   -4.3401   -6.3496   H         1 RES1   0.0000
    92 H31       4.0769   -3.5125   -6.3641   H         1 RES1   0.0000
    93 H32       3.0207   -1.3325   -6.2743   H         1 RES1   0.0000
    94 H33       1.4216   -2.0338   -6.1174   H         1 RES1   0.0000
    95 H34       3.2324   -2.6219   -8.4749   H         1 RES1   0.0000
    96 H35       2.1317   -1.2499   -8.4689   H         1 RES1   0.0000
    97 H36       1.1369   -4.0780   -7.9828   H         1 RES1   0.0000
    98 H37       1.3747   -3.4447   -9.5950   H         1 RES1   0.0000
    99 H38      -0.8056   -2.8241   -9.3912   H         1 RES1   0.0000
   100 H39      -0.0852   -1.4108   -8.6537   H         1 RES1   0.0000
   101 H40      -1.6653   -1.8512   -7.0631   H         1 RES1   0.0000
   102 H41      -0.4177   -2.9053   -6.4088   H         1 RES1   0.0000
   103 H42      -2.6417   -3.7641   -8.2916   H         1 RES1   0.0000
   104 H43      -2.6961   -3.9323   -6.5406   H         1 RES1   0.0000
   105 H44      -0.7139   -5.3225   -8.3987   H         1 RES1   0.0000
   106 H45      -2.1469   -6.0426   -7.6886   H         1 RES1   0.0000
   107 H46      -1.2221   -5.6779   -5.4084   H         1 RES1   0.0000
   108 H47       0.2346   -4.9741   -6.1183   H         1 RES1   0.0000
   109 H48      -0.7129   -7.8396   -6.5184   H         1 RES1   0.0000
   110 H49       0.6760   -7.3205   -5.5654   H         1 RES1   0.0000
   111 H50       0.6814   -7.1242   -7.3169   H         1 RES1   0.0000
   112 H51      -0.2863   -1.7401   -3.9636   H         1 RES1   0.0000
   113 H52       1.2357   -0.8255   -3.7516   H         1 RES1   0.0000
   114 H53      -1.1051    0.9032   -4.0290   H         1 RES1   0.0000
   115 H54       0.5145    1.3655   -3.4531   H         1 RES1   0.0000
   116 H55      -2.0862    1.5628   -1.7899   H         1 RES1   0.0000
   117 H56      -1.3006    2.9303   -2.6403   H         1 RES1   0.0000
   118 H57       0.8279    3.6236   -0.1268   H         1 RES1   0.0000
   119 H58       0.6357    3.7493   -1.8959   H         1 RES1   0.0000
   120 H59       4.3877    4.1936   -0.6106   H         1 RES1   0.0000
   121 H60       2.7295    4.6465   -1.0570   H         1 RES1   0.0000
   122 H61       5.0259    3.9959   -2.9691   H         1 RES1   0.0000
   123 H62       4.3811    5.5876   -2.6128   H         1 RES1   0.0000
   124 H63       2.3068    5.1132   -3.7415   H         1 RES1   0.0000
   125 H64       2.6387    3.3750   -3.7772   H         1 RES1   0.0000
   126 H65       4.5139    3.7293   -5.3310   H         1 RES1   0.0000
   127 H66       4.3052    5.4719   -5.2253   H         1 RES1   0.0000
   128 H67       3.3781    4.6032   -7.2986   H         1 RES1   0.0000
   129 H68       2.1050    5.3117   -6.3129   H         1 RES1   0.0000
   130 H69       1.2508    3.1383   -5.7023   H         1 RES1   0.0000
   131 H70       2.6976    2.3218   -6.3143   H         1 RES1   0.0000
   132 H71       2.1484    2.9096   -8.6032   H         1 RES1   0.0000
   133 H72       0.8352    3.9525   -8.0869   H         1 RES1   0.0000
   134 H73       0.9233    0.9349   -7.6357   H         1 RES1   0.0000
   135 H74       0.1347    1.7149   -9.0093   H         1 RES1   0.0000
   136 H75      -0.6274    2.1543   -6.0903   H         1 RES1   0.0000
   137 H76      -1.4468    1.0648   -7.2099   H         1 RES1   0.0000
   138 H77      -1.9424    3.0193   -8.6986   H         1 RES1   0.0000
   139 H78      -1.2557    4.0957   -7.4871   H         1 RES1   0.0000
   140 H79      -3.6178    2.2357   -6.9951   H         1 RES1   0.0000
   141 H80      -3.7411    3.9406   -7.4153   H         1 RES1   0.0000
   142 H81      -2.4884    2.8118   -4.8705   H         1 RES1   0.0000
   143 H82      -3.9777    3.7454   -5.0088   H         1 RES1   0.0000
   144 H83      -2.4289    4.5167   -5.3442   H         1 RES1   0.0000
   145 H84       4.2472    0.9034   -0.8228   H         1 RES1   0.0000
   146 H85       5.2664    2.1973   -1.4515   H         1 RES1   0.0000
   147 H86       4.6137    1.7182   -3.7295   H         1 RES1   0.0000
   148 H87       3.2078    0.7954   -3.2072   H         1 RES1   0.0000
   149 H88       4.8748   -0.7182   -4.0286   H         1 RES1   0.0000
   150 H89       4.7200   -0.9619   -2.2875   H         1 RES1   0.0000
   151 H90       6.8425    0.0875   -1.8719   H         1 RES1   0.0000
   152 H91       6.8555    0.8525   -3.4591   H         1 RES1   0.0000
   153 H92       8.4349   -0.9980   -3.3918   H         1 RES1   0.0000
   154 H93       7.1560   -1.3274   -4.5541   H         1 RES1   0.0000
   155 H94       6.0433   -2.8280   -2.9502   H         1 RES1   0.0000
   156 H95       7.2499   -2.4200   -1.7183   H         1 RES1   0.0000
   157 H96       9.0344   -3.3785   -3.1222   H         1 RES1   0.0000
   158 H97       7.8650   -3.7826   -4.3723   H         1 RES1   0.0000
   159 H98       7.8567   -4.8810   -1.5225   H         1 RES1   0.0000
   160 H99       8.5523   -5.7009   -2.9179   H         1 RES1   0.0000
   161 H100      5.6046   -5.0063   -2.5830   H         1 RES1   0.0000
   162 H101      6.3358   -6.5762   -2.2837   H         1 RES1   0.0000
   163 H102      7.0633   -6.6419   -4.6972   H         1 RES1   0.0000
   164 H103      6.1683   -5.1496   -4.9763   H         1 RES1   0.0000
   165 H104      4.0760   -6.3116   -4.1615   H         1 RES1   0.0000
   166 H105      5.0019   -7.8040   -4.0341   H         1 RES1   0.0000
   167 H106      4.6290   -6.2163   -6.6197   H         1 RES1   0.0000
   168 H107      3.7357   -7.6756   -6.1856   H         1 RES1   0.0000
   169 H108      5.4738   -7.7516   -6.4597   H         1 RES1   0.0000
   170 C55      -7.0602    0.7385    7.4547   C.3       1 RES1   0.0000
   171 C56      -6.7821    0.0169    6.1428   C.3       1 RES1   0.0000
   172 C57      -7.6137    0.5722    4.9863   C.3       1 RES1   0.0000
   173 C58      -7.3125   -0.1710    3.6890   C.3       1 RES1   0.0000
   174 C59      -8.0739    0.3641    2.4787   C.3       1 RES1   0.0000
   175 C60      -7.7620   -0.4139    1.1948   C.3       1 RES1   0.0000
   176 C61      -6.3238   -0.2127    0.7204   C.3       1 RES1   0.0000
   177 C62      -5.9956   -0.9525   -0.5737   C.3       1 RES1   0.0000
   178 C63      -4.5366   -0.7129   -0.9522   C.3       1 RES1   0.0000
   179 C64      -4.0969   -1.4692   -2.2050   C.3       1 RES1   0.0000
   180 C65      -3.9791   -2.9927   -2.0212   C.3       1 RES1   0.0000
   181 C66      -2.5362   -3.5262   -2.0477   C.3       1 RES1   0.0000
   182 N3       -1.9258   -3.8419   -0.7467   N.am      1 RES1   0.0000
   183 C67      -1.5359   -5.2285   -0.4869   C.3       1 RES1   0.0000
   184 C68      -2.1808   -5.9270    0.7156   C.3       1 RES1   0.0000
   185 C69      -1.3365   -7.1336    1.1308   C.3       1 RES1   0.0000
   186 C70      -0.0384   -6.7458    1.8382   C.3       1 RES1   0.0000
   187 C71       0.6494   -7.9585    2.4649   C.3       1 RES1   0.0000
   188 C72       1.3822   -8.8601    1.4669   C.3       1 RES1   0.0000
   189 C73       2.8587   -8.4909    1.2860   C.3       1 RES1   0.0000
   190 C74       3.1465   -7.4447    0.2020   C.3       1 RES1   0.0000
   191 C75       3.5437   -8.0462   -1.1464   C.3       1 RES1   0.0000
   192 C76       2.4595   -8.8602   -1.8492   C.3       1 RES1   0.0000
   193 C77       1.2608   -8.0318   -2.3096   C.3       1 RES1   0.0000
   194 C78       0.2436   -8.8964   -3.0424   C.3       1 RES1   0.0000
   195 C79      -1.5143   -2.8143   -0.0166   C.2       1 RES1   0.0000
   196 O5       -1.7372   -1.6369   -0.3541   O.2       1 RES1   0.0000
   197 C80      -0.7202   -3.0386    1.2770   C.3       1 RES1   0.0000
   198 O6       -0.1522   -1.7822    1.6438   O.3       1 RES1   0.0000
   199 C81       0.7675   -1.8645    2.7307   C.3       1 RES1   0.0000
   200 C82       1.3244   -0.4558    3.1018   C.3       1 RES1   0.0000
   201 O7        0.8593    0.6110    2.2612   O.3       1 RES1   0.0000
   202 C83      -0.0890    1.4670    2.9021   C.3       1 RES1   0.0000
   203 C84      -1.4336    0.7488    2.7883   C.2       1 RES1   0.0000
   204 O8       -1.7237    0.4211    1.6135   O.2       1 RES1   0.0000
   205 N4       -2.1442    0.4202    3.8537   N.am      1 RES1   0.0000
   206 C85      -1.9754    1.0109    5.1797   C.3       1 RES1   0.0000
   207 C86      -1.6632    0.0267    6.3168   C.3       1 RES1   0.0000
   208 C87      -0.3581   -0.7622    6.1939   C.3       1 RES1   0.0000
   209 C88      -0.2755   -1.8813    7.2344   C.3       1 RES1   0.0000
   210 C89       1.0954   -2.5496    7.3290   C.3       1 RES1   0.0000
   211 C90       1.5441   -3.3104    6.0760   C.3       1 RES1   0.0000
   212 C91       2.5908   -4.3660    6.4531   C.3       1 RES1   0.0000
   213 C92       3.3544   -4.9768    5.2757   C.3       1 RES1   0.0000
   214 C93       4.3811   -4.0298    4.6502   C.3       1 RES1   0.0000
   215 C94       5.5902   -3.7429    5.5394   C.3       1 RES1   0.0000
   216 C95       6.5119   -2.6669    4.9631   C.3       1 RES1   0.0000
   217 C96       5.9037   -1.2681    5.0097   C.3       1 RES1   0.0000
   218 C97      -3.2760   -0.4895    3.6754   C.3       1 RES1   0.0000
   219 C98      -2.8693   -1.9369    3.9878   C.3       1 RES1   0.0000
   220 C99      -3.6462   -2.9766    3.1841   C.3       1 RES1   0.0000
   221 C100     -5.0737   -3.1774    3.6841   C.3       1 RES1   0.0000
   222 C101     -5.6662   -4.5102    3.2343   C.3       1 RES1   0.0000
   223 C102     -5.8677   -4.6197    1.7248   C.3       1 RES1   0.0000
   224 C103     -6.5804   -5.9262    1.3760   C.3       1 RES1   0.0000
   225 C104     -6.9234   -6.0695   -0.1076   C.3       1 RES1   0.0000
   226 C105     -5.7355   -6.3789   -1.0199   C.3       1 RES1   0.0000
   227 C106     -5.1663   -7.7817   -0.8122   C.3       1 RES1   0.0000
   228 C107     -4.0954   -8.1219   -1.8471   C.3       1 RES1   0.0000
   229 C108     -3.4377   -9.4668   -1.5706   C.3       1 RES1   0.0000
   230 H109     -6.4616    0.3200    8.2615   H         1 RES1   0.0000
   231 H110     -8.1083    0.6403    7.7225   H         1 RES1   0.0000
   232 H111     -6.8284    1.7978    7.3667   H         1 RES1   0.0000
   233 H112     -6.9973   -1.0484    6.2616   H         1 RES1   0.0000
   234 H113     -5.7151    0.1098    5.9013   H         1 RES1   0.0000
   235 H114     -7.3989    1.6359    4.8614   H         1 RES1   0.0000
   236 H115     -8.6725    0.4729    5.2249   H         1 RES1   0.0000
   237 H116     -7.5637   -1.2259    3.8237   H         1 RES1   0.0000
   238 H117     -6.2391   -0.0962    3.4953   H         1 RES1   0.0000
   239 H118     -7.8303    1.4190    2.3303   H         1 RES1   0.0000
   240 H119     -9.1449    0.2981    2.6760   H         1 RES1   0.0000
   241 H120     -8.4427   -0.0834    0.4078   H         1 RES1   0.0000
   242 H121     -7.9480   -1.4780    1.3636   H         1 RES1   0.0000
   243 H122     -5.6369   -0.5614    1.4962   H         1 RES1   0.0000
   244 H123     -6.1446    0.8559    0.5730   H         1 RES1   0.0000
   245 H124     -6.6401   -0.5963   -1.3789   H         1 RES1   0.0000
   246 H125     -6.1855   -2.0192   -0.4425   H         1 RES1   0.0000
   247 H126     -3.8891   -0.9818   -0.1135   H         1 RES1   0.0000
   248 H127     -4.4013    0.3588   -1.1267   H         1 RES1   0.0000
   249 H128     -3.1310   -1.0678   -2.5238   H         1 RES1   0.0000
   250 H129     -4.8158   -1.2577   -2.9974   H         1 RES1   0.0000
   251 H130     -4.5198   -3.4879   -2.8267   H         1 RES1   0.0000
   252 H131     -4.4612   -3.2881   -1.0933   H         1 RES1   0.0000
   253 H132     -1.9000   -2.7694   -2.5147   H         1 RES1   0.0000
   254 H133     -2.4972   -4.4356   -2.6427   H         1 RES1   0.0000
   255 H134     -0.4487   -5.2507   -0.3655   H         1 RES1   0.0000
   256 H135     -1.7718   -5.8116   -1.3784   H         1 RES1   0.0000
   257 H136     -3.1825   -6.2662    0.4590   H         1 RES1   0.0000
   258 H137     -2.2768   -5.2503    1.5623   H         1 RES1   0.0000
   259 H138     -1.1180   -7.7397    0.2510   H         1 RES1   0.0000
   260 H139     -1.9215   -7.7483    1.8142   H         1 RES1   0.0000
   261 H140     -0.2625   -6.0224    2.6275   H         1 RES1   0.0000
   262 H141      0.6527   -6.2601    1.1463   H         1 RES1   0.0000
   263 H142     -0.1106   -8.5406    2.9847   H         1 RES1   0.0000
   264 H143      1.3646   -7.6148    3.2134   H         1 RES1   0.0000
   265 H144      0.8751   -8.8395    0.5045   H         1 RES1   0.0000
   266 H145      1.3330   -9.8859    1.8326   H         1 RES1   0.0000
   267 H146      3.4275   -9.3887    1.0450   H         1 RES1   0.0000
   268 H147      3.2358   -8.1256    2.2437   H         1 RES1   0.0000
   269 H148      3.9792   -6.8193    0.5376   H         1 RES1   0.0000
   270 H149      2.2833   -6.7900    0.0699   H         1 RES1   0.0000
   271 H150      4.4064   -8.6916   -0.9790   H         1 RES1   0.0000
   272 H151      3.8637   -7.2359   -1.8073   H         1 RES1   0.0000
   273 H152      2.1173   -9.6625   -1.1968   H         1 RES1   0.0000
   274 H153      2.9068   -9.3312   -2.7257   H         1 RES1   0.0000
   275 H154      1.6117   -7.2356   -2.9774   H         1 RES1   0.0000
   276 H155      0.7767   -7.5564   -1.4502   H         1 RES1   0.0000
   277 H156      0.6927   -9.3392   -3.9262   H         1 RES1   0.0000
   278 H157     -0.6208   -8.3131   -3.3515   H         1 RES1   0.0000
   279 H158     -0.0968   -9.7034   -2.4000   H         1 RES1   0.0000
   280 H159      0.0670   -3.7834    1.1312   H         1 RES1   0.0000
   281 H160     -1.3994   -3.3958    2.0587   H         1 RES1   0.0000
   282 H161      1.5970   -2.5349    2.4749   H         1 RES1   0.0000
   283 H162      0.2593   -2.2963    3.5998   H         1 RES1   0.0000
   284 H163      2.4127   -0.4547    3.0027   H         1 RES1   0.0000
   285 H164      1.0791   -0.2341    4.1422   H         1 RES1   0.0000
   286 H165     -0.1451    2.3936    2.3157   H         1 RES1   0.0000
   287 H166      0.2624    1.7031    3.9064   H         1 RES1   0.0000
   288 H167     -2.9276    1.4904    5.4266   H         1 RES1   0.0000
   289 H168     -1.2218    1.7954    5.1364   H         1 RES1   0.0000
   290 H169     -2.4915   -0.6714    6.4252   H         1 RES1   0.0000
   291 H170     -1.6246    0.6152    7.2338   H         1 RES1   0.0000
   292 H171      0.4998   -0.0960    6.3243   H         1 RES1   0.0000
   293 H172     -0.3081   -1.2175    5.2066   H         1 RES1   0.0000
   294 H173     -1.0233   -2.6428    7.0074   H         1 RES1   0.0000
   295 H174     -0.5152   -1.4658    8.2116   H         1 RES1   0.0000
   296 H175      1.0517   -3.2642    8.1510   H         1 RES1   0.0000
   297 H176      1.8514   -1.8059    7.5856   H         1 RES1   0.0000
   298 H177      1.9675   -2.6178    5.3414   H         1 RES1   0.0000
   299 H178      0.6831   -3.8050    5.6145   H         1 RES1   0.0000
   300 H179      2.0908   -5.1665    7.0019   H         1 RES1   0.0000
   301 H180      3.3093   -3.9098    7.1332   H         1 RES1   0.0000
   302 H181      2.6464   -5.2956    4.5027   H         1 RES1   0.0000
   303 H182      3.8704   -5.8689    5.6344   H         1 RES1   0.0000
   304 H183      3.8836   -3.0873    4.4055   H         1 RES1   0.0000
   305 H184      4.7367   -4.4801    3.7197   H         1 RES1   0.0000
   306 H185      6.1592   -4.6641    5.6699   H         1 RES1   0.0000
   307 H186      5.2600   -3.4203    6.5262   H         1 RES1   0.0000
   308 H187      6.7775   -2.9198    3.9343   H         1 RES1   0.0000
   309 H188      7.4343   -2.6576    5.5447   H         1 RES1   0.0000
   310 H189      5.0274   -1.1890    4.3657   H         1 RES1   0.0000
   311 H190      6.6323   -0.5278    4.6865   H         1 RES1   0.0000
   312 H191      5.6031   -1.0203    6.0249   H         1 RES1   0.0000
   313 H192     -3.5889   -0.4082    2.6312   H         1 RES1   0.0000
   314 H193     -4.1008   -0.1714    4.3151   H         1 RES1   0.0000
   315 H194     -3.0046   -2.1595    5.0460   H         1 RES1   0.0000
   316 H195     -1.8065   -2.0371    3.7658   H         1 RES1   0.0000
   317 H196     -3.1296   -3.9361    3.2835   H         1 RES1   0.0000
   318 H197     -3.6545   -2.6929    2.1287   H         1 RES1   0.0000
   319 H198     -5.7057   -2.3643    3.3362   H         1 RES1   0.0000
   320 H199     -5.0707   -3.1556    4.7750   H         1 RES1   0.0000
   321 H200     -6.6335   -4.6363    3.7218   H         1 RES1   0.0000
   322 H201     -5.0216   -5.3251    3.5731   H         1 RES1   0.0000
   323 H202     -4.9024   -4.5723    1.2133   H         1 RES1   0.0000
   324 H203     -6.4722   -3.7773    1.3795   H         1 RES1   0.0000
   325 H204     -7.5115   -5.9656    1.9450   H         1 RES1   0.0000
   326 H205     -5.9701   -6.7703    1.7023   H         1 RES1   0.0000
   327 H206     -7.4006   -5.1461   -0.4458   H         1 RES1   0.0000
   328 H207     -7.6531   -6.8737   -0.2144   H         1 RES1   0.0000
   329 H208     -4.9475   -5.6343   -0.8743   H         1 RES1   0.0000
   330 H209     -6.0737   -6.2911   -2.0549   H         1 RES1   0.0000
   331 H210     -5.9760   -8.5080   -0.8872   H         1 RES1   0.0000
   332 H211     -4.7404   -7.8742    0.1899   H         1 RES1   0.0000
   333 H212     -3.3304   -7.3368   -1.8526   H         1 RES1   0.0000
   334 H213     -4.5507   -8.1388   -2.8394   H         1 RES1   0.0000
   335 H214     -2.9530   -9.4667   -0.5966   H         1 RES1   0.0000
   336 H215     -2.6951   -9.6949   -2.3306   H         1 RES1   0.0000
   337 H216     -4.1819  -10.2568   -1.5788   H         1 RES1   0.0000
   338 O9        2.3560   -0.6635    0.6340   O.3       1 RES1   0.0000
   339 H217      2.5179   -1.5928    0.4097   H         1 RES1   0.0000
   340 H218      2.8184   -0.1476   -0.0507   H         1 RES1   0.0000
@<TRIPOS>BOND
     1     1    28    1
     2     1    30    1
     3     1    33    1
     4     1    36    1
     5     1   196    1
     6     1   198    1
     7     1   201    1
     8     1   204    1
     9     1   338    1
    10     2     3    1
    11     2    62    1
    12     2    63    1
    13     2    64    1
    14     3     4    1
    15     3    65    1
    16     3    66    1
    17     4     5    1
    18     4    67    1
    19     4    68    1
    20     5     6    1
    21     5    69    1
    22     5    70    1
    23     6     7    1
    24     6    71    1
    25     6    72    1
    26     7     8    1
    27     7    73    1
    28     7    74    1
    29     8     9    1
    30     8    75    1
    31     8    76    1
    32     9    10    1
    33     9    77    1
    34     9    78    1
    35    10    11    1
    36    10    79    1
    37    10    80    1
    38    11    12    1
    39    11    81    1
    40    11    82    1
    41    12    13    1
    42    12    83    1
    43    12    84    1
    44    13    14    1
    45    13    85    1
    46    13    86    1
    47    14    15    1
    48    14    27    1
    49    15    16    1
    50    15    87    1
    51    15    88    1
    52    16    17    1
    53    16    89    1
    54    16    90    1
    55    17    18    1
    56    17    91    1
    57    17    92    1
    58    18    19    1
    59    18    93    1
    60    18    94    1
    61    19    20    1
    62    19    95    1
    63    19    96    1
    64    20    21    1
    65    20    97    1
    66    20    98    1
    67    21    22    1
    68    21    99    1
    69    21   100    1
    70    22    23    1
    71    22   101    1
    72    22   102    1
    73    23    24    1
    74    23   103    1
    75    23   104    1
    76    24    25    1
    77    24   105    1
    78    24   106    1
    79    25    26    1
    80    25   107    1
    81    25   108    1
    82    26   109    1
    83    26   110    1
    84    26   111    1
    85    27    28    2
    86    27    29    1
    87    29    30    1
    88    29   112    1
    89    29   113    1
    90    30    31    1
    91    31    32    1
    92    31   114    1
    93    31   115    1
    94    32    33    1
    95    32   116    1
    96    32   117    1
    97    33    34    1
    98    34    35    1
    99    34   118    1
   100    34   119    1
   101    35    36    2
   102    35    37    1
   103    37    38    1
   104    37    50    1
   105    38    39    1
   106    38   120    1
   107    38   121    1
   108    39    40    1
   109    39   122    1
   110    39   123    1
   111    40    41    1
   112    40   124    1
   113    40   125    1
   114    41    42    1
   115    41   126    1
   116    41   127    1
   117    42    43    1
   118    42   128    1
   119    42   129    1
   120    43    44    1
   121    43   130    1
   122    43   131    1
   123    44    45    1
   124    44   132    1
   125    44   133    1
   126    45    46    1
   127    45   134    1
   128    45   135    1
   129    46    47    1
   130    46   136    1
   131    46   137    1
   132    47    48    1
   133    47   138    1
   134    47   139    1
   135    48    49    1
   136    48   140    1
   137    48   141    1
   138    49   142    1
   139    49   143    1
   140    49   144    1
   141    50    51    1
   142    50   145    1
   143    50   146    1
   144    51    52    1
   145    51   147    1
   146    51   148    1
   147    52    53    1
   148    52   149    1
   149    52   150    1
   150    53    54    1
   151    53   151    1
   152    53   152    1
   153    54    55    1
   154    54   153    1
   155    54   154    1
   156    55    56    1
   157    55   155    1
   158    55   156    1
   159    56    57    1
   160    56   157    1
   161    56   158    1
   162    57    58    1
   163    57   159    1
   164    57   160    1
   165    58    59    1
   166    58   161    1
   167    58   162    1
   168    59    60    1
   169    59   163    1
   170    59   164    1
   171    60    61    1
   172    60   165    1
   173    60   166    1
   174    61   167    1
   175    61   168    1
   176    61   169    1
   177   170   171    1
   178   170   230    1
   179   170   231    1
   180   170   232    1
   181   171   172    1
   182   171   233    1
   183   171   234    1
   184   172   173    1
   185   172   235    1
   186   172   236    1
   187   173   174    1
   188   173   237    1
   189   173   238    1
   190   174   175    1
   191   174   239    1
   192   174   240    1
   193   175   176    1
   194   175   241    1
   195   175   242    1
   196   176   177    1
   197   176   243    1
   198   176   244    1
   199   177   178    1
   200   177   245    1
   201   177   246    1
   202   178   179    1
   203   178   247    1
   204   178   248    1
   205   179   180    1
   206   179   249    1
   207   179   250    1
   208   180   181    1
   209   180   251    1
   210   180   252    1
   211   181   182    1
   212   181   253    1
   213   181   254    1
   214   182   183    1
   215   182   195    1
   216   183   184    1
   217   183   255    1
   218   183   256    1
   219   184   185    1
   220   184   257    1
   221   184   258    1
   222   185   186    1
   223   185   259    1
   224   185   260    1
   225   186   187    1
   226   186   261    1
   227   186   262    1
   228   187   188    1
   229   187   263    1
   230   187   264    1
   231   188   189    1
   232   188   265    1
   233   188   266    1
   234   189   190    1
   235   189   267    1
   236   189   268    1
   237   190   191    1
   238   190   269    1
   239   190   270    1
   240   191   192    1
   241   191   271    1
   242   191   272    1
   243   192   193    1
   244   192   273    1
   245   192   274    1
   246   193   194    1
   247   193   275    1
   248   193   276    1
   249   194   277    1
   250   194   278    1
   251   194   279    1
   252   195   196    2
   253   195   197    1
   254   197   198    1
   255   197   280    1
   256   197   281    1
   257   198   199    1
   258   199   200    1
   259   199   282    1
   260   199   283    1
   261   200   201    1
   262   200   284    1
   263   200   285    1
   264   201   202    1
   265   202   203    1
   266   202   286    1
   267   202   287    1
   268   203   204    2
   269   203   205    1
   270   205   206    1
   271   205   218    1
   272   206   207    1
   273   206   288    1
   274   206   289    1
   275   207   208    1
   276   207   290    1
   277   207   291    1
   278   208   209    1
   279   208   292    1
   280   208   293    1
   281   209   210    1
   282   209   294    1
   283   209   295    1
   284   210   211    1
   285   210   296    1
   286   210   297    1
   287   211   212    1
   288   211   298    1
   289   211   299    1
   290   212   213    1
   291   212   300    1
   292   212   301    1
   293   213   214    1
   294   213   302    1
   295   213   303    1
   296   214   215    1
   297   214   304    1
   298   214   305    1
   299   215   216    1
   300   215   306    1
   301   215   307    1
   302   216   217    1
   303   216   308    1
   304   216   309    1
   305   217   310    1
   306   217   311    1
   307   217   312    1
   308   218   219    1
   309   218   313    1
   310   218   314    1
   311   219   220    1
   312   219   315    1
   313   219   316    1
   314   220   221    1
   315   220   317    1
   316   220   318    1
   317   221   222    1
   318   221   319    1
   319   221   320    1
   320   222   223    1
   321   222   321    1
   322   222   322    1
   323   223   224    1
   324   223   323    1
   325   223   324    1
   326   224   225    1
   327   224   325    1
   328   224   326    1
   329   225   226    1
   330   225   327    1
   331   225   328    1
   332   226   227    1
   333   226   329    1
   334   226   330    1
   335   227   228    1
   336   227   331    1
   337   227   332    1
   338   228   229    1
   339   228   333    1
   340   228   334    1
   341   229   335    1
   342   229   336    1
   343   229   337    1
   344   338   339    1
   345   338   340    1
@<TRIPOS>SUBSTRUCTURE
     1 RES1      340 GROUP             0 ****  ****    0  
