@<TRIPOS>MOLECULE
am_c3_9H2O_c0_0_nunpairedes_0_charge_3 Charge: 3 Unpaired_Electrons: 6 XTB_Unpaired_Electrons: 0 XTB_Charge: 3
   265   270     1     0     0
SMALL
NoCharges
****
Generated from Architector

@<TRIPOS>ATOM
     1 Eu1      -0.0380   -0.0213   -0.1179   Eu        1 RES1   0.0000
     2 C1        3.8021    4.2639   -6.1416   C.3       1 RES1   0.0000
     3 C2        2.8850    3.8468   -7.2854   C.3       1 RES1   0.0000
     4 C3        1.6143    3.1135   -6.8562   C.3       1 RES1   0.0000
     5 C4        0.6500    3.9914   -6.0576   C.3       1 RES1   0.0000
     6 C5       -0.7286    3.3397   -5.9443   C.3       1 RES1   0.0000
     7 C6       -1.7933    4.2333   -5.2868   C.3       1 RES1   0.0000
     8 C7       -2.1094    3.8720   -3.8331   C.3       1 RES1   0.0000
     9 C8       -0.8887    4.1079   -2.9458   C.3       1 RES1   0.0000
    10 N1       -1.1843    4.1609   -1.5188   N.am      1 RES1   0.0000
    11 C9       -1.7806    5.3979   -1.0340   C.3       1 RES1   0.0000
    12 C10      -0.8304    6.3882   -0.3532   C.3       1 RES1   0.0000
    13 C11       0.2197    7.0078   -1.2748   C.3       1 RES1   0.0000
    14 C12       0.9813    8.1498   -0.5899   C.3       1 RES1   0.0000
    15 C13       1.8545    7.7739    0.6120   C.3       1 RES1   0.0000
    16 C14       3.2771    7.3076    0.2913   C.3       1 RES1   0.0000
    17 C15       3.3600    5.9206   -0.3639   C.3       1 RES1   0.0000
    18 C16       3.6336    5.9788   -1.8648   C.3       1 RES1   0.0000
    19 C17      -0.9824    3.0874   -0.7629   C.2       1 RES1   0.0000
    20 O1       -0.6743    1.9707   -1.2207   O.2       1 RES1   0.0000
    21 C18      -1.0691    3.2942    0.7511   C.3       1 RES1   0.0000
    22 O2       -0.7813    2.0811    1.4276   O.3       1 RES1   0.0000
    23 C19      -1.7757    1.7272    2.3681   C.3       1 RES1   0.0000
    24 P1       -3.2142    0.9544    1.4538   P.3       1 RES1   0.0000
    25 O3       -2.5681    0.1818    0.3441   O.2       1 RES1   0.0000
    26 C20      -4.3388    2.2218    0.7352   C.3       1 RES1   0.0000
    27 C21      -4.7765    3.4092    1.6022   C.3       1 RES1   0.0000
    28 C22      -6.0534    3.1487    2.3985   C.3       1 RES1   0.0000
    29 C23      -6.4761    4.3864    3.1759   C.3       1 RES1   0.0000
    30 C24      -3.9747   -0.0315    2.8110   C.3       1 RES1   0.0000
    31 C25      -5.4419   -0.4648    2.7034   C.3       1 RES1   0.0000
    32 C26      -5.6587   -1.8830    2.1767   C.3       1 RES1   0.0000
    33 C27      -5.0309   -2.9679    3.0396   C.3       1 RES1   0.0000
    34 H1        4.6308    4.8491   -6.5313   H         1 RES1   0.0000
    35 H2        3.2759    4.8764   -5.4124   H         1 RES1   0.0000
    36 H3        4.2207    3.3941   -5.6386   H         1 RES1   0.0000
    37 H4        2.5979    4.7356   -7.8480   H         1 RES1   0.0000
    38 H5        3.4455    3.2028   -7.9647   H         1 RES1   0.0000
    39 H6        1.1059    2.7748   -7.7610   H         1 RES1   0.0000
    40 H7        1.8674    2.2240   -6.2761   H         1 RES1   0.0000
    41 H8        1.0579    4.1860   -5.0623   H         1 RES1   0.0000
    42 H9        0.5432    4.9480   -6.5703   H         1 RES1   0.0000
    43 H10      -1.0590    3.0930   -6.9538   H         1 RES1   0.0000
    44 H11      -0.6456    2.4003   -5.3926   H         1 RES1   0.0000
    45 H12      -1.4750    5.2751   -5.3343   H         1 RES1   0.0000
    46 H13      -2.7212    4.1702   -5.8545   H         1 RES1   0.0000
    47 H14      -2.9376    4.4976   -3.4905   H         1 RES1   0.0000
    48 H15      -2.4280    2.8292   -3.7583   H         1 RES1   0.0000
    49 H16      -0.1585    3.3133   -3.1047   H         1 RES1   0.0000
    50 H17      -0.4408    5.0686   -3.2092   H         1 RES1   0.0000
    51 H18      -2.2148    5.8828   -1.9083   H         1 RES1   0.0000
    52 H19      -2.5959    5.1516   -0.3468   H         1 RES1   0.0000
    53 H20      -1.4572    7.1874    0.0464   H         1 RES1   0.0000
    54 H21      -0.3342    5.9121    0.4910   H         1 RES1   0.0000
    55 H22       0.9110    6.2417   -1.6247   H         1 RES1   0.0000
    56 H23      -0.2819    7.4320   -2.1472   H         1 RES1   0.0000
    57 H24       1.6086    8.6386   -1.3346   H         1 RES1   0.0000
    58 H25       0.2460    8.8871   -0.2616   H         1 RES1   0.0000
    59 H26       1.9439    8.6682    1.2303   H         1 RES1   0.0000
    60 H27       1.3573    7.0172    1.2216   H         1 RES1   0.0000
    61 H28       3.7617    8.0450   -0.3457   H         1 RES1   0.0000
    62 H29       3.8303    7.2893    1.2326   H         1 RES1   0.0000
    63 H30       4.1610    5.3469    0.1131   H         1 RES1   0.0000
    64 H31       2.4215    5.3926   -0.1702   H         1 RES1   0.0000
    65 H32       4.6619    6.2740   -2.0510   H         1 RES1   0.0000
    66 H33       3.4697    5.0050   -2.3270   H         1 RES1   0.0000
    67 H34       2.9876    6.7040   -2.3504   H         1 RES1   0.0000
    68 H35      -0.3224    4.0414    1.0525   H         1 RES1   0.0000
    69 H36      -2.0556    3.6693    1.0334   H         1 RES1   0.0000
    70 H37      -1.3318    0.9500    3.0045   H         1 RES1   0.0000
    71 H38      -2.0423    2.5862    2.9863   H         1 RES1   0.0000
    72 H39      -3.8365    2.5612   -0.1767   H         1 RES1   0.0000
    73 H40      -5.2176    1.6713    0.3906   H         1 RES1   0.0000
    74 H41      -3.9869    3.6984    2.3011   H         1 RES1   0.0000
    75 H42      -4.9645    4.2633    0.9465   H         1 RES1   0.0000
    76 H43      -6.8501    2.8607    1.7097   H         1 RES1   0.0000
    77 H44      -5.8972    2.3240    3.0967   H         1 RES1   0.0000
    78 H45      -6.6365    5.2264    2.5062   H         1 RES1   0.0000
    79 H46      -7.4019    4.1927    3.7057   H         1 RES1   0.0000
    80 H47      -5.7138    4.6592    3.9001   H         1 RES1   0.0000
    81 H48      -3.3216   -0.9000    2.9368   H         1 RES1   0.0000
    82 H49      -3.8575    0.5930    3.6969   H         1 RES1   0.0000
    83 H50      -5.8900   -0.4032    3.6977   H         1 RES1   0.0000
    84 H51      -5.9895    0.2295    2.0660   H         1 RES1   0.0000
    85 H52      -6.7360   -2.0550    2.1476   H         1 RES1   0.0000
    86 H53      -5.2834   -1.9502    1.1535   H         1 RES1   0.0000
    87 H54      -5.3754   -2.8801    4.0633   H         1 RES1   0.0000
    88 H55      -5.3237   -3.9476    2.6770   H         1 RES1   0.0000
    89 H56      -3.9458   -2.9232    3.0439   H         1 RES1   0.0000
    90 C28      -1.2742   -2.5001    7.1847   C.3       1 RES1   0.0000
    91 C29      -0.3680   -3.7133    7.3611   C.3       1 RES1   0.0000
    92 C30       0.8170   -3.7293    6.3970   C.3       1 RES1   0.0000
    93 C31       1.7757   -2.5658    6.6280   C.3       1 RES1   0.0000
    94 C32       3.0083   -2.6495    5.7322   C.3       1 RES1   0.0000
    95 C33       3.8574   -1.3742    5.7743   C.3       1 RES1   0.0000
    96 C34       3.6039   -0.4129    4.6135   C.3       1 RES1   0.0000
    97 C35       2.1838    0.1641    4.5710   C.3       1 RES1   0.0000
    98 N2        2.1727    1.3399    3.7088   N.am      1 RES1   0.0000
    99 C36       2.6295    2.5800    4.3247   C.3       1 RES1   0.0000
   100 C37       1.4484    3.4718    4.7484   C.3       1 RES1   0.0000
   101 C38       0.9000    3.1833    6.1509   C.3       1 RES1   0.0000
   102 C39      -0.0404    4.2908    6.6381   C.3       1 RES1   0.0000
   103 C40      -1.4550    4.2616    6.0543   C.3       1 RES1   0.0000
   104 C41      -2.3418    3.1546    6.6483   C.3       1 RES1   0.0000
   105 C42      -2.5595    1.9698    5.7106   C.3       1 RES1   0.0000
   106 C43      -3.2562    0.8132    6.4155   C.3       1 RES1   0.0000
   107 C44       1.8049    1.2425    2.4400   C.2       1 RES1   0.0000
   108 O4        1.2046    0.2523    1.9627   O.2       1 RES1   0.0000
   109 C45       2.1975    2.3951    1.5013   C.3       1 RES1   0.0000
   110 O5        1.5941    2.1686    0.2441   O.3       1 RES1   0.0000
   111 C46       2.2970    2.6918   -0.8798   C.3       1 RES1   0.0000
   112 P2        2.8140    1.1709   -1.8452   P.3       1 RES1   0.0000
   113 O6        1.7616    0.1496   -1.5205   O.2       1 RES1   0.0000
   114 C47       4.4519    0.6798   -1.1624   C.3       1 RES1   0.0000
   115 C48       5.4556    1.7837   -0.8211   C.3       1 RES1   0.0000
   116 C49       5.8983    2.6360   -2.0093   C.3       1 RES1   0.0000
   117 C50       6.8065    3.7888   -1.5854   C.3       1 RES1   0.0000
   118 C51       2.8655    1.5851   -3.6257   C.3       1 RES1   0.0000
   119 C52       3.6774    0.5689   -4.4267   C.3       1 RES1   0.0000
   120 C53       3.1645   -0.8617   -4.2795   C.3       1 RES1   0.0000
   121 C54       1.7105   -1.0209   -4.7173   C.3       1 RES1   0.0000
   122 H57      -2.1599   -2.6036    7.8056   H         1 RES1   0.0000
   123 H58      -0.7656   -1.5853    7.4800   H         1 RES1   0.0000
   124 H59      -1.5930   -2.4032    6.1465   H         1 RES1   0.0000
   125 H60       0.0069   -3.7316    8.3846   H         1 RES1   0.0000
   126 H61      -0.9547   -4.6212    7.2116   H         1 RES1   0.0000
   127 H62       1.3603   -4.6669    6.5229   H         1 RES1   0.0000
   128 H63       0.4492   -3.6975    5.3651   H         1 RES1   0.0000
   129 H64       1.2532   -1.6270    6.4460   H         1 RES1   0.0000
   130 H65       2.0994   -2.5696    7.6686   H         1 RES1   0.0000
   131 H66       3.6108   -3.4980    6.0574   H         1 RES1   0.0000
   132 H67       2.7009   -2.8495    4.7050   H         1 RES1   0.0000
   133 H68       3.6924   -0.8589    6.7207   H         1 RES1   0.0000
   134 H69       4.9134   -1.6425    5.7434   H         1 RES1   0.0000
   135 H70       4.3179    0.4092    4.6975   H         1 RES1   0.0000
   136 H71       3.8125   -0.9209    3.6697   H         1 RES1   0.0000
   137 H72       1.4730   -0.5626    4.1766   H         1 RES1   0.0000
   138 H73       1.8689    0.4631    5.5694   H         1 RES1   0.0000
   139 H74       3.2214    2.3200    5.2015   H         1 RES1   0.0000
   140 H75       3.2857    3.1170    3.6375   H         1 RES1   0.0000
   141 H76       1.7983    4.5046    4.7326   H         1 RES1   0.0000
   142 H77       0.6468    3.3650    4.0143   H         1 RES1   0.0000
   143 H78       0.3807    2.2239    6.1802   H         1 RES1   0.0000
   144 H79       1.7379    3.1281    6.8489   H         1 RES1   0.0000
   145 H80      -0.1238    4.2176    7.7216   H         1 RES1   0.0000
   146 H81       0.4180    5.2569    6.4212   H         1 RES1   0.0000
   147 H82      -1.9075    5.2296    6.2668   H         1 RES1   0.0000
   148 H83      -1.4105    4.1666    4.9671   H         1 RES1   0.0000
   149 H84      -1.8932    2.7925    7.5724   H         1 RES1   0.0000
   150 H85      -3.3177    3.5654    6.9056   H         1 RES1   0.0000
   151 H86      -3.1655    2.3086    4.8631   H         1 RES1   0.0000
   152 H87      -1.5943    1.6253    5.3250   H         1 RES1   0.0000
   153 H88      -4.2710    1.0873    6.6871   H         1 RES1   0.0000
   154 H89      -3.2922   -0.0749    5.7874   H         1 RES1   0.0000
   155 H90      -2.7193    0.5580    7.3240   H         1 RES1   0.0000
   156 H91       1.8825    3.3710    1.8979   H         1 RES1   0.0000
   157 H92       3.2939    2.3718    1.4195   H         1 RES1   0.0000
   158 H93       1.6110    3.3196   -1.4603   H         1 RES1   0.0000
   159 H94       3.1471    3.2946   -0.5766   H         1 RES1   0.0000
   160 H95       4.2102    0.1026   -0.2652   H         1 RES1   0.0000
   161 H96       4.8862   -0.0156   -1.8835   H         1 RES1   0.0000
   162 H97       5.0457    2.4370   -0.0471   H         1 RES1   0.0000
   163 H98       6.3378    1.3069   -0.3915   H         1 RES1   0.0000
   164 H99       6.4369    2.0107   -2.7241   H         1 RES1   0.0000
   165 H100      5.0205    3.0494   -2.5137   H         1 RES1   0.0000
   166 H101      7.6821    3.4259   -1.0520   H         1 RES1   0.0000
   167 H102      7.1420    4.3382   -2.4616   H         1 RES1   0.0000
   168 H103      6.2799    4.4897   -0.9406   H         1 RES1   0.0000
   169 H104      1.8328    1.6131   -3.9809   H         1 RES1   0.0000
   170 H105      3.3024    2.5763   -3.7430   H         1 RES1   0.0000
   171 H106      3.6421    0.8510   -5.4805   H         1 RES1   0.0000
   172 H107      4.7246    0.6153   -4.1206   H         1 RES1   0.0000
   173 H108      3.7998   -1.5096   -4.8882   H         1 RES1   0.0000
   174 H109      3.2570   -1.1782   -3.2352   H         1 RES1   0.0000
   175 H110      1.5330   -0.5138   -5.6643   H         1 RES1   0.0000
   176 H111      1.4854   -2.0749   -4.8594   H         1 RES1   0.0000
   177 H112      1.0286   -0.6249   -3.9622   H         1 RES1   0.0000
   178 C55      -5.5778    2.0747   -5.4597   C.3       1 RES1   0.0000
   179 C56      -4.9706    1.7959   -6.8293   C.3       1 RES1   0.0000
   180 C57      -3.6093    1.1068   -6.7604   C.3       1 RES1   0.0000
   181 C58      -3.6758   -0.3199   -6.2232   C.3       1 RES1   0.0000
   182 C59      -2.2906   -0.9662   -6.1833   C.3       1 RES1   0.0000
   183 C60      -2.3073   -2.4294   -5.7198   C.3       1 RES1   0.0000
   184 C61      -2.0104   -2.6288   -4.2332   C.3       1 RES1   0.0000
   185 C62      -3.0342   -1.9242   -3.3405   C.3       1 RES1   0.0000
   186 N3       -3.0886   -2.5107   -2.0072   N.am      1 RES1   0.0000
   187 C63      -4.1929   -3.4221   -1.7716   C.3       1 RES1   0.0000
   188 C64      -5.4909   -2.6812   -1.3888   C.3       1 RES1   0.0000
   189 C65      -6.4658   -2.3549   -2.5258   C.3       1 RES1   0.0000
   190 C66      -7.8949   -2.1642   -2.0008   C.3       1 RES1   0.0000
   191 C67      -8.1335   -1.0631   -0.9628   C.3       1 RES1   0.0000
   192 C68      -8.2145    0.3706   -1.4928   C.3       1 RES1   0.0000
   193 C69      -6.8666    0.9844   -1.8695   C.3       1 RES1   0.0000
   194 C70      -6.9364    2.5038   -1.9587   C.3       1 RES1   0.0000
   195 C71      -2.1745   -2.1406   -1.1259   C.2       1 RES1   0.0000
   196 O7       -1.2606   -1.3480   -1.4267   O.2       1 RES1   0.0000
   197 C72      -2.2620   -2.7088    0.3058   C.3       1 RES1   0.0000
   198 O8       -1.3800   -2.0031    1.1861   O.3       1 RES1   0.0000
   199 C73      -0.5209   -2.8304    1.9568   C.3       1 RES1   0.0000
   200 P3        0.9463   -3.2534    0.8578   P.3       1 RES1   0.0000
   201 O9        1.1285   -2.0365    0.0015   O.2       1 RES1   0.0000
   202 C74       0.5511   -4.7345   -0.1644   C.3       1 RES1   0.0000
   203 C75      -0.1882   -5.8726    0.5405   C.3       1 RES1   0.0000
   204 C76       0.6513   -6.5906    1.5956   C.3       1 RES1   0.0000
   205 C77      -0.1766   -7.6278    2.3470   C.3       1 RES1   0.0000
   206 C78       2.3585   -3.4858    1.9985   C.3       1 RES1   0.0000
   207 C79       3.5810   -4.1343    1.3524   C.3       1 RES1   0.0000
   208 C80       4.3151   -3.2117    0.3770   C.3       1 RES1   0.0000
   209 C81       5.1024   -2.1190    1.0967   C.3       1 RES1   0.0000
   210 H113     -6.4616    2.6995   -5.5593   H         1 RES1   0.0000
   211 H114     -5.8760    1.1506   -4.9707   H         1 RES1   0.0000
   212 H115     -4.8654    2.5919   -4.8182   H         1 RES1   0.0000
   213 H116     -5.6608    1.1827   -7.4089   H         1 RES1   0.0000
   214 H117     -4.8523    2.7413   -7.3607   H         1 RES1   0.0000
   215 H118     -3.1772    1.0846   -7.7621   H         1 RES1   0.0000
   216 H119     -2.9438    1.6926   -6.1249   H         1 RES1   0.0000
   217 H120     -4.1120   -0.3050   -5.2246   H         1 RES1   0.0000
   218 H121     -4.3249   -0.9168   -6.8652   H         1 RES1   0.0000
   219 H122     -1.8757   -0.9202   -7.1915   H         1 RES1   0.0000
   220 H123     -1.6288   -0.3875   -5.5358   H         1 RES1   0.0000
   221 H124     -3.2785   -2.8698   -5.9508   H         1 RES1   0.0000
   222 H125     -1.5596   -2.9912   -6.2810   H         1 RES1   0.0000
   223 H126     -2.0348   -3.6999   -4.0173   H         1 RES1   0.0000
   224 H127     -1.0093   -2.2660   -3.9972   H         1 RES1   0.0000
   225 H128     -2.7893   -0.8655   -3.2363   H         1 RES1   0.0000
   226 H129     -4.0281   -2.0261   -3.7691   H         1 RES1   0.0000
   227 H130     -4.3368   -4.0043   -2.6841   H         1 RES1   0.0000
   228 H131     -3.9159   -4.1222   -0.9822   H         1 RES1   0.0000
   229 H132     -6.0278   -3.3079   -0.6767   H         1 RES1   0.0000
   230 H133     -5.2081   -1.7494   -0.8965   H         1 RES1   0.0000
   231 H134     -6.1442   -1.4699   -3.0738   H         1 RES1   0.0000
   232 H135     -6.5005   -3.1879   -3.2320   H         1 RES1   0.0000
   233 H136     -8.5543   -1.9875   -2.8508   H         1 RES1   0.0000
   234 H137     -8.1966   -3.1114   -1.5487   H         1 RES1   0.0000
   235 H138     -9.0945   -1.2882   -0.4961   H         1 RES1   0.0000
   236 H139     -7.3806   -1.1138   -0.1744   H         1 RES1   0.0000
   237 H140     -8.8855    0.3999   -2.3511   H         1 RES1   0.0000
   238 H141     -8.6642    0.9876   -0.7101   H         1 RES1   0.0000
   239 H142     -6.1193    0.6872   -1.1254   H         1 RES1   0.0000
   240 H143     -6.5391    0.5980   -2.8332   H         1 RES1   0.0000
   241 H144     -7.2840    2.9365   -1.0236   H         1 RES1   0.0000
   242 H145     -5.9606    2.9226   -2.1971   H         1 RES1   0.0000
   243 H146     -7.6288    2.7975   -2.7407   H         1 RES1   0.0000
   244 H147     -3.2858   -2.5801    0.6829   H         1 RES1   0.0000
   245 H148     -2.0155   -3.7735    0.2929   H         1 RES1   0.0000
   246 H149     -0.1630   -2.2065    2.7864   H         1 RES1   0.0000
   247 H150     -1.0487   -3.6872    2.3795   H         1 RES1   0.0000
   248 H151     -0.0196   -4.3615   -1.0212   H         1 RES1   0.0000
   249 H152      1.5052   -5.0923   -0.5592   H         1 RES1   0.0000
   250 H153     -1.1009   -5.5071    1.0190   H         1 RES1   0.0000
   251 H154     -0.4931   -6.6024   -0.2117   H         1 RES1   0.0000
   252 H155      1.4966   -7.0828    1.1107   H         1 RES1   0.0000
   253 H156      1.0456   -5.8681    2.3142   H         1 RES1   0.0000
   254 H157     -0.6246   -8.3376    1.6566   H         1 RES1   0.0000
   255 H158      0.4485   -8.1741    3.0474   H         1 RES1   0.0000
   256 H159     -0.9728   -7.1503    2.9146   H         1 RES1   0.0000
   257 H160      2.6055   -2.4799    2.3477   H         1 RES1   0.0000
   258 H161      2.0191   -4.0771    2.8498   H         1 RES1   0.0000
   259 H162      4.2725   -4.4253    2.1450   H         1 RES1   0.0000
   260 H163      3.2834   -5.0498    0.8390   H         1 RES1   0.0000
   261 H164      5.0148   -3.8164   -0.2041   H         1 RES1   0.0000
   262 H165      3.5972   -2.7633   -0.3163   H         1 RES1   0.0000
   263 H166      5.6887   -2.5469    1.9068   H         1 RES1   0.0000
   264 H167      5.7951   -1.6363    0.4121   H         1 RES1   0.0000
   265 H168      4.4408   -1.3578    1.5111   H         1 RES1   0.0000
@<TRIPOS>BOND
     1     1    20    1
     2     1    22    1
     3     1    25    1
     4     1   108    1
     5     1   110    1
     6     1   113    1
     7     1   196    1
     8     1   198    1
     9     1   201    1
    10     2     3    1
    11     2    34    1
    12     2    35    1
    13     2    36    1
    14     3     4    1
    15     3    37    1
    16     3    38    1
    17     4     5    1
    18     4    39    1
    19     4    40    1
    20     5     6    1
    21     5    41    1
    22     5    42    1
    23     6     7    1
    24     6    43    1
    25     6    44    1
    26     7     8    1
    27     7    45    1
    28     7    46    1
    29     8     9    1
    30     8    47    1
    31     8    48    1
    32     9    10    1
    33     9    49    1
    34     9    50    1
    35    10    11    1
    36    10    19    1
    37    11    12    1
    38    11    51    1
    39    11    52    1
    40    12    13    1
    41    12    53    1
    42    12    54    1
    43    13    14    1
    44    13    55    1
    45    13    56    1
    46    14    15    1
    47    14    57    1
    48    14    58    1
    49    15    16    1
    50    15    59    1
    51    15    60    1
    52    16    17    1
    53    16    61    1
    54    16    62    1
    55    17    18    1
    56    17    63    1
    57    17    64    1
    58    18    65    1
    59    18    66    1
    60    18    67    1
    61    19    20    2
    62    19    21    1
    63    21    22    1
    64    21    68    1
    65    21    69    1
    66    22    23    1
    67    23    24    1
    68    23    70    1
    69    23    71    1
    70    24    25    2
    71    24    26    1
    72    24    30    1
    73    26    27    1
    74    26    72    1
    75    26    73    1
    76    27    28    1
    77    27    74    1
    78    27    75    1
    79    28    29    1
    80    28    76    1
    81    28    77    1
    82    29    78    1
    83    29    79    1
    84    29    80    1
    85    30    31    1
    86    30    81    1
    87    30    82    1
    88    31    32    1
    89    31    83    1
    90    31    84    1
    91    32    33    1
    92    32    85    1
    93    32    86    1
    94    33    87    1
    95    33    88    1
    96    33    89    1
    97    90    91    1
    98    90   122    1
    99    90   123    1
   100    90   124    1
   101    91    92    1
   102    91   125    1
   103    91   126    1
   104    92    93    1
   105    92   127    1
   106    92   128    1
   107    93    94    1
   108    93   129    1
   109    93   130    1
   110    94    95    1
   111    94   131    1
   112    94   132    1
   113    95    96    1
   114    95   133    1
   115    95   134    1
   116    96    97    1
   117    96   135    1
   118    96   136    1
   119    97    98    1
   120    97   137    1
   121    97   138    1
   122    98    99    1
   123    98   107    1
   124    99   100    1
   125    99   139    1
   126    99   140    1
   127   100   101    1
   128   100   141    1
   129   100   142    1
   130   101   102    1
   131   101   143    1
   132   101   144    1
   133   102   103    1
   134   102   145    1
   135   102   146    1
   136   103   104    1
   137   103   147    1
   138   103   148    1
   139   104   105    1
   140   104   149    1
   141   104   150    1
   142   105   106    1
   143   105   151    1
   144   105   152    1
   145   106   153    1
   146   106   154    1
   147   106   155    1
   148   107   108    2
   149   107   109    1
   150   109   110    1
   151   109   156    1
   152   109   157    1
   153   110   111    1
   154   111   112    1
   155   111   158    1
   156   111   159    1
   157   112   113    2
   158   112   114    1
   159   112   118    1
   160   114   115    1
   161   114   160    1
   162   114   161    1
   163   115   116    1
   164   115   162    1
   165   115   163    1
   166   116   117    1
   167   116   164    1
   168   116   165    1
   169   117   166    1
   170   117   167    1
   171   117   168    1
   172   118   119    1
   173   118   169    1
   174   118   170    1
   175   119   120    1
   176   119   171    1
   177   119   172    1
   178   120   121    1
   179   120   173    1
   180   120   174    1
   181   121   175    1
   182   121   176    1
   183   121   177    1
   184   178   179    1
   185   178   210    1
   186   178   211    1
   187   178   212    1
   188   179   180    1
   189   179   213    1
   190   179   214    1
   191   180   181    1
   192   180   215    1
   193   180   216    1
   194   181   182    1
   195   181   217    1
   196   181   218    1
   197   182   183    1
   198   182   219    1
   199   182   220    1
   200   183   184    1
   201   183   221    1
   202   183   222    1
   203   184   185    1
   204   184   223    1
   205   184   224    1
   206   185   186    1
   207   185   225    1
   208   185   226    1
   209   186   187    1
   210   186   195    1
   211   187   188    1
   212   187   227    1
   213   187   228    1
   214   188   189    1
   215   188   229    1
   216   188   230    1
   217   189   190    1
   218   189   231    1
   219   189   232    1
   220   190   191    1
   221   190   233    1
   222   190   234    1
   223   191   192    1
   224   191   235    1
   225   191   236    1
   226   192   193    1
   227   192   237    1
   228   192   238    1
   229   193   194    1
   230   193   239    1
   231   193   240    1
   232   194   241    1
   233   194   242    1
   234   194   243    1
   235   195   196    2
   236   195   197    1
   237   197   198    1
   238   197   244    1
   239   197   245    1
   240   198   199    1
   241   199   200    1
   242   199   246    1
   243   199   247    1
   244   200   201    2
   245   200   202    1
   246   200   206    1
   247   202   203    1
   248   202   248    1
   249   202   249    1
   250   203   204    1
   251   203   250    1
   252   203   251    1
   253   204   205    1
   254   204   252    1
   255   204   253    1
   256   205   254    1
   257   205   255    1
   258   205   256    1
   259   206   207    1
   260   206   257    1
   261   206   258    1
   262   207   208    1
   263   207   259    1
   264   207   260    1
   265   208   209    1
   266   208   261    1
   267   208   262    1
   268   209   263    1
   269   209   264    1
   270   209   265    1
@<TRIPOS>SUBSTRUCTURE
     1 RES1      265 GROUP             0 ****  ****    0  
