@<TRIPOS>MOLECULE
capped_square_antiprismatic_0_nunpairedes_0_charge_3 Charge: 3 Unpaired_Electrons: 6 XTB_Unpaired_Electrons: 0 XTB_Charge: 3
   430   435     1     0     0
SMALL
NoCharges
****
Generated from Architector

@<TRIPOS>ATOM
     1 Eu1      -0.4219   -0.2821    0.3450   Eu        1 RES1   0.0000
     2 C1       -4.8875   -3.0705    5.2196   C.3       1 RES1   0.0000
     3 C2       -5.7450   -2.2261    4.2822   C.3       1 RES1   0.0000
     4 C3       -6.4685   -1.1061    5.0305   C.3       1 RES1   0.0000
     5 C4       -7.4284   -0.2917    4.1540   C.3       1 RES1   0.0000
     6 C5       -6.7692    0.7330    3.2238   C.3       1 RES1   0.0000
     7 C6       -6.1944    1.9353    3.9785   C.3       1 RES1   0.0000
     8 C7       -5.5352    2.9497    3.0397   C.3       1 RES1   0.0000
     9 C8       -4.8577    4.1081    3.7791   C.3       1 RES1   0.0000
    10 C9       -3.5192    3.7688    4.4448   C.3       1 RES1   0.0000
    11 C10      -2.2578    4.0025    3.5994   C.3       1 RES1   0.0000
    12 N1       -2.1926    3.3231    2.3090   N.am      1 RES1   0.0000
    13 C11      -2.2561    4.2280    1.1344   C.3       1 RES1   0.0000
    14 C12      -0.8556    4.8580    0.9452   C.3       1 RES1   0.0000
    15 C13      -0.5476    6.0401   -0.0177   C.3       1 RES1   0.0000
    16 C14       0.1222    5.6971   -1.3743   C.3       1 RES1   0.0000
    17 C15       1.5051    6.2665   -1.7950   C.3       1 RES1   0.0000
    18 C16       2.8879    5.9037   -1.1903   C.3       1 RES1   0.0000
    19 C17       3.3984    4.4645   -1.0435   C.3       1 RES1   0.0000
    20 C18       4.8646    4.3146   -0.5495   C.3       1 RES1   0.0000
    21 C19       5.0240    3.1409    0.4510   C.3       1 RES1   0.0000
    22 C20       6.0939    3.2755    1.5361   C.3       1 RES1   0.0000
    23 C21      -1.9738    2.0115    2.1387   C.2       1 RES1   0.0000
    24 O1       -2.0052    1.5004    1.0068   O.2       1 RES1   0.0000
    25 C22      -1.7277    1.0175    3.3119   C.3       1 RES1   0.0000
    26 C23      -3.0596    0.3290    3.6212   C.3       1 RES1   0.0000
    27 O2       -0.8082    0.0397    2.7890   O.3       1 RES1   0.0000
    28 C24      -0.0404   -0.7445    3.7083   C.3       1 RES1   0.0000
    29 C25      -0.8416   -1.9772    4.1513   C.3       1 RES1   0.0000
    30 C26       1.2344   -1.1727    2.9377   C.2       1 RES1   0.0000
    31 O3        1.2201   -1.1223    1.6893   O.2       1 RES1   0.0000
    32 N2        2.3227   -1.5858    3.5895   N.am      1 RES1   0.0000
    33 C27       2.3761   -2.0073    4.9862   C.3       1 RES1   0.0000
    34 C28       2.4291   -3.5428    5.0904   C.3       1 RES1   0.0000
    35 C29       2.5357   -4.0699    6.5239   C.3       1 RES1   0.0000
    36 C30       1.1945   -4.1838    7.2413   C.3       1 RES1   0.0000
    37 C31       1.3326   -4.6769    8.6852   C.3       1 RES1   0.0000
    38 C32       2.1929   -3.7937    9.5914   C.3       1 RES1   0.0000
    39 C33       1.8256   -2.3137    9.5211   C.3       1 RES1   0.0000
    40 C34       2.5963   -1.4708   10.5353   C.3       1 RES1   0.0000
    41 C35       2.4686    0.0272   10.2568   C.3       1 RES1   0.0000
    42 C36       3.3554    0.4871    9.1064   C.3       1 RES1   0.0000
    43 C37       3.5459   -1.8397    2.8110   C.3       1 RES1   0.0000
    44 C38       4.5589   -0.6840    2.7393   C.3       1 RES1   0.0000
    45 C39       5.4076   -0.4308    4.0032   C.3       1 RES1   0.0000
    46 C40       6.8936   -0.1837    3.6749   C.3       1 RES1   0.0000
    47 C41       7.7177    0.7135    4.6383   C.3       1 RES1   0.0000
    48 C42       7.0933    1.1218    5.9753   C.3       1 RES1   0.0000
    49 C43       7.1509    0.0422    7.0591   C.3       1 RES1   0.0000
    50 C44       8.4873   -0.0024    7.8016   C.3       1 RES1   0.0000
    51 C45       8.8181    1.2476    8.6169   C.3       1 RES1   0.0000
    52 C46       7.8174    1.5435    9.7265   C.3       1 RES1   0.0000
    53 H1       -4.3738   -3.8658    4.6818   H         1 RES1   0.0000
    54 H2       -5.5056   -3.5329    5.9842   H         1 RES1   0.0000
    55 H3       -4.1418   -2.4554    5.7196   H         1 RES1   0.0000
    56 H4       -6.4878   -2.8661    3.8043   H         1 RES1   0.0000
    57 H5       -5.1190   -1.7968    3.4967   H         1 RES1   0.0000
    58 H6       -5.7331   -0.4457    5.4933   H         1 RES1   0.0000
    59 H7       -7.0472   -1.5521    5.8409   H         1 RES1   0.0000
    60 H8       -8.1292    0.2410    4.7993   H         1 RES1   0.0000
    61 H9       -8.0171   -0.9831    3.5479   H         1 RES1   0.0000
    62 H10      -7.5318    1.0957    2.5275   H         1 RES1   0.0000
    63 H11      -5.9860    0.2434    2.6353   H         1 RES1   0.0000
    64 H12      -5.4852    1.5965    4.7365   H         1 RES1   0.0000
    65 H13      -7.0044    2.4309    4.5162   H         1 RES1   0.0000
    66 H14      -6.3144    3.3650    2.4026   H         1 RES1   0.0000
    67 H15      -4.8192    2.4564    2.3764   H         1 RES1   0.0000
    68 H16      -5.5408    4.4491    4.5566   H         1 RES1   0.0000
    69 H17      -4.7173    4.9422    3.0914   H         1 RES1   0.0000
    70 H18      -3.5441    2.7477    4.8167   H         1 RES1   0.0000
    71 H19      -3.3885    4.4056    5.3225   H         1 RES1   0.0000
    72 H20      -1.3961    3.7193    4.2112   H         1 RES1   0.0000
    73 H21      -2.1790    5.0735    3.3969   H         1 RES1   0.0000
    74 H22      -3.0077    4.9891    1.3384   H         1 RES1   0.0000
    75 H23      -2.5902    3.6298    0.2885   H         1 RES1   0.0000
    76 H24      -0.2127    4.0230    0.6943   H         1 RES1   0.0000
    77 H25      -0.5819    5.2005    1.9441   H         1 RES1   0.0000
    78 H26       0.0982    6.7376    0.5207   H         1 RES1   0.0000
    79 H27      -1.4710    6.5839   -0.2131   H         1 RES1   0.0000
    80 H28      -0.5435    6.0753   -2.1532   H         1 RES1   0.0000
    81 H29       0.1435    4.6237   -1.5001   H         1 RES1   0.0000
    82 H30       1.4503    7.3529   -1.6858   H         1 RES1   0.0000
    83 H31       1.5673    6.0637   -2.8697   H         1 RES1   0.0000
    84 H32       2.9594    6.3561   -0.2103   H         1 RES1   0.0000
    85 H33       3.5974    6.4202   -1.8402   H         1 RES1   0.0000
    86 H34       3.2706    3.9378   -1.9915   H         1 RES1   0.0000
    87 H35       2.8049    3.9960   -0.2766   H         1 RES1   0.0000
    88 H36       5.2004    5.2323   -0.0665   H         1 RES1   0.0000
    89 H37       5.5188    4.1571   -1.4066   H         1 RES1   0.0000
    90 H38       5.2662    2.2318   -0.1045   H         1 RES1   0.0000
    91 H39       4.0843    2.9945    0.9940   H         1 RES1   0.0000
    92 H40       7.0838    3.3729    1.1005   H         1 RES1   0.0000
    93 H41       6.0738    2.3741    2.1532   H         1 RES1   0.0000
    94 H42       5.9095    4.1247    2.1898   H         1 RES1   0.0000
    95 H43      -1.2813    1.5101    4.1844   H         1 RES1   0.0000
    96 H44      -3.2259   -0.4109    2.8364   H         1 RES1   0.0000
    97 H45      -3.8823    1.0307    3.6024   H         1 RES1   0.0000
    98 H46      -3.0500   -0.1606    4.5904   H         1 RES1   0.0000
    99 H47       0.2549   -0.1306    4.5695   H         1 RES1   0.0000
   100 H48      -1.3674   -2.3724    3.2817   H         1 RES1   0.0000
   101 H49      -1.5703   -1.7129    4.9106   H         1 RES1   0.0000
   102 H50      -0.2077   -2.7533    4.5677   H         1 RES1   0.0000
   103 H51       1.5207   -1.6092    5.5274   H         1 RES1   0.0000
   104 H52       3.2804   -1.5815    5.4246   H         1 RES1   0.0000
   105 H53       3.3050   -3.8918    4.5450   H         1 RES1   0.0000
   106 H54       1.5527   -3.9741    4.6019   H         1 RES1   0.0000
   107 H55       3.2086   -3.4281    7.0873   H         1 RES1   0.0000
   108 H56       2.9907   -5.0599    6.4900   H         1 RES1   0.0000
   109 H57       0.5712   -4.9014    6.7014   H         1 RES1   0.0000
   110 H58       0.6832   -3.2184    7.2329   H         1 RES1   0.0000
   111 H59       1.7511   -5.6854    8.6853   H         1 RES1   0.0000
   112 H60       0.3321   -4.7416    9.1122   H         1 RES1   0.0000
   113 H61       3.2445   -3.9195    9.3328   H         1 RES1   0.0000
   114 H62       2.0771   -4.1422   10.6187   H         1 RES1   0.0000
   115 H63       0.7519   -2.1974    9.6922   H         1 RES1   0.0000
   116 H64       2.0484   -1.9361    8.5218   H         1 RES1   0.0000
   117 H65       3.6521   -1.7466   10.5178   H         1 RES1   0.0000
   118 H66       2.2216   -1.6872   11.5350   H         1 RES1   0.0000
   119 H67       2.7480    0.5786   11.1538   H         1 RES1   0.0000
   120 H68       1.4247    0.2638   10.0392   H         1 RES1   0.0000
   121 H69       4.3957    0.2670    9.3272   H         1 RES1   0.0000
   122 H70       3.2647    1.5594    8.9605   H         1 RES1   0.0000
   123 H71       3.0899   -0.0106    8.1753   H         1 RES1   0.0000
   124 H72       3.2240   -2.0747    1.7938   H         1 RES1   0.0000
   125 H73       4.0487   -2.7146    3.2207   H         1 RES1   0.0000
   126 H74       4.0305    0.2279    2.4499   H         1 RES1   0.0000
   127 H75       5.2270   -0.9445    1.9141   H         1 RES1   0.0000
   128 H76       5.3397   -1.2907    4.6709   H         1 RES1   0.0000
   129 H77       4.9889    0.4239    4.5317   H         1 RES1   0.0000
   130 H78       6.9581    0.2668    2.6812   H         1 RES1   0.0000
   131 H79       7.3836   -1.1545    3.6052   H         1 RES1   0.0000
   132 H80       7.9774    1.6360    4.1139   H         1 RES1   0.0000
   133 H81       8.6562    0.2048    4.8580   H         1 RES1   0.0000
   134 H82       6.0607    1.4388    5.8248   H         1 RES1   0.0000
   135 H83       7.6283    2.0015    6.3364   H         1 RES1   0.0000
   136 H84       6.9757   -0.9357    6.6050   H         1 RES1   0.0000
   137 H85       6.3537    0.2193    7.7832   H         1 RES1   0.0000
   138 H86       9.2935   -0.1591    7.0849   H         1 RES1   0.0000
   139 H87       8.4762   -0.8660    8.4685   H         1 RES1   0.0000
   140 H88       8.9011    2.1162    7.9614   H         1 RES1   0.0000
   141 H89       9.8023    1.0999    9.0625   H         1 RES1   0.0000
   142 H90       6.8360    1.7911    9.3258   H         1 RES1   0.0000
   143 H91       8.1636    2.3848   10.3209   H         1 RES1   0.0000
   144 H92       7.7184    0.6849   10.3857   H         1 RES1   0.0000
   145 C47       7.2143   -4.6856    2.7900   C.3       1 RES1   0.0000
   146 C48       7.8908   -3.5493    2.0340   C.3       1 RES1   0.0000
   147 C49       8.6749   -4.0618    0.8280   C.3       1 RES1   0.0000
   148 C50       9.4938   -2.9776    0.1198   C.3       1 RES1   0.0000
   149 C51       8.6977   -1.7531   -0.3428   C.3       1 RES1   0.0000
   150 C52       7.5689   -2.1022   -1.3103   C.3       1 RES1   0.0000
   151 C53       6.8225   -0.8628   -1.8033   C.3       1 RES1   0.0000
   152 C54       5.7752   -1.1650   -2.8819   C.3       1 RES1   0.0000
   153 C55       4.6348   -2.0294   -2.3395   C.3       1 RES1   0.0000
   154 C56       3.5190   -2.3652   -3.3558   C.3       1 RES1   0.0000
   155 N3        2.3402   -1.5392   -3.1502   N.am      1 RES1   0.0000
   156 C57       2.3804   -0.2706   -3.8834   C.3       1 RES1   0.0000
   157 C58       2.3490   -0.3843   -5.4135   C.3       1 RES1   0.0000
   158 C59       2.8558    0.9231   -6.0560   C.3       1 RES1   0.0000
   159 C60       1.7540    1.9399   -6.3799   C.3       1 RES1   0.0000
   160 C61       0.8456    1.5004   -7.5414   C.3       1 RES1   0.0000
   161 C62      -0.6339    1.4136   -7.1558   C.3       1 RES1   0.0000
   162 C63      -1.4179    0.5300   -8.1298   C.3       1 RES1   0.0000
   163 C64      -1.1215   -0.9617   -7.9590   C.3       1 RES1   0.0000
   164 C65      -1.6938   -1.5539   -6.6724   C.3       1 RES1   0.0000
   165 C66      -1.2202   -2.9859   -6.4575   C.3       1 RES1   0.0000
   166 C67       1.4746   -1.6792   -2.1441   C.2       1 RES1   0.0000
   167 O4        0.7254   -0.7460   -1.7951   O.2       1 RES1   0.0000
   168 C68       1.2723   -3.0219   -1.3890   C.3       1 RES1   0.0000
   169 C69       2.4966   -3.6044   -0.6877   C.3       1 RES1   0.0000
   170 O5        0.2600   -2.7089   -0.4098   O.3       1 RES1   0.0000
   171 C70      -0.4893   -3.7958    0.1398   C.3       1 RES1   0.0000
   172 C71       0.1646   -4.3952    1.4012   C.3       1 RES1   0.0000
   173 C72      -1.8342   -3.1759    0.5673   C.2       1 RES1   0.0000
   174 O6       -1.8489   -1.9586    0.8591   O.2       1 RES1   0.0000
   175 N4       -2.9104   -3.9376    0.6737   N.am      1 RES1   0.0000
   176 C73      -2.9292   -5.3826    0.5335   C.3       1 RES1   0.0000
   177 C74      -3.0457   -6.1281    1.8708   C.3       1 RES1   0.0000
   178 C75      -2.7596   -7.6210    1.6715   C.3       1 RES1   0.0000
   179 C76      -1.2676   -7.9246    1.5332   C.3       1 RES1   0.0000
   180 C77      -0.9760   -9.3172    0.9733   C.3       1 RES1   0.0000
   181 C78      -1.3333   -9.4939   -0.5021   C.3       1 RES1   0.0000
   182 C79      -0.4770   -8.6543   -1.4473   C.3       1 RES1   0.0000
   183 C80      -0.9093   -8.8483   -2.8993   C.3       1 RES1   0.0000
   184 C81      -0.0482   -8.0906   -3.9089   C.3       1 RES1   0.0000
   185 C82      -0.1440   -6.5749   -3.7673   C.3       1 RES1   0.0000
   186 C83      -4.1901   -3.3086    0.9971   C.3       1 RES1   0.0000
   187 C84      -5.2540   -3.5333   -0.0798   C.3       1 RES1   0.0000
   188 C85      -4.7537   -3.2004   -1.4831   C.3       1 RES1   0.0000
   189 C86      -5.8522   -3.4071   -2.5247   C.3       1 RES1   0.0000
   190 C87      -5.3361   -3.3390   -3.9637   C.3       1 RES1   0.0000
   191 C88      -4.2714   -4.3816   -4.3234   C.3       1 RES1   0.0000
   192 C89      -4.6265   -5.8284   -3.9711   C.3       1 RES1   0.0000
   193 C90      -5.9207   -6.3465   -4.6033   C.3       1 RES1   0.0000
   194 C91      -5.9281   -6.3792   -6.1329   C.3       1 RES1   0.0000
   195 C92      -4.8779   -7.3153   -6.7188   C.3       1 RES1   0.0000
   196 H93       7.9534   -5.3910    3.1577   H         1 RES1   0.0000
   197 H94       6.6585   -4.3066    3.6453   H         1 RES1   0.0000
   198 H95       6.5268   -5.2229    2.1392   H         1 RES1   0.0000
   199 H96       8.5729   -3.0218    2.7035   H         1 RES1   0.0000
   200 H97       7.1272   -2.8426    1.7004   H         1 RES1   0.0000
   201 H98       7.9857   -4.5282    0.1194   H         1 RES1   0.0000
   202 H99       9.3643   -4.8383    1.1654   H         1 RES1   0.0000
   203 H100      9.9804   -3.4272   -0.7500   H         1 RES1   0.0000
   204 H101     10.2803   -2.6293    0.7940   H         1 RES1   0.0000
   205 H102      9.3902   -1.0733   -0.8413   H         1 RES1   0.0000
   206 H103      8.2978   -1.2229    0.5246   H         1 RES1   0.0000
   207 H104      6.8741   -2.7767   -0.8100   H         1 RES1   0.0000
   208 H105      7.9943   -2.6336   -2.1626   H         1 RES1   0.0000
   209 H106      7.5446   -0.1645   -2.2298   H         1 RES1   0.0000
   210 H107      6.3363   -0.3667   -0.9549   H         1 RES1   0.0000
   211 H108      6.2545   -1.6725   -3.7197   H         1 RES1   0.0000
   212 H109      5.3887   -0.2151   -3.2534   H         1 RES1   0.0000
   213 H110      4.1985   -1.5170   -1.4785   H         1 RES1   0.0000
   214 H111      5.0807   -2.9556   -1.9860   H         1 RES1   0.0000
   215 H112      3.2287   -3.4163   -3.3377   H         1 RES1   0.0000
   216 H113      3.8983   -2.1532   -4.3535   H         1 RES1   0.0000
   217 H114      3.3067    0.2378   -3.6016   H         1 RES1   0.0000
   218 H115      1.5402    0.3315   -3.5471   H         1 RES1   0.0000
   219 H116      1.3407   -0.6058   -5.7629   H         1 RES1   0.0000
   220 H117      2.9909   -1.1990   -5.7485   H         1 RES1   0.0000
   221 H118      3.3982    0.6938   -6.9755   H         1 RES1   0.0000
   222 H119      3.5759    1.3984   -5.3819   H         1 RES1   0.0000
   223 H120      2.2450    2.8815   -6.6311   H         1 RES1   0.0000
   224 H121      1.1544    2.1134   -5.4820   H         1 RES1   0.0000
   225 H122      1.1807    0.5256   -7.8964   H         1 RES1   0.0000
   226 H123      0.9437    2.1907   -8.3800   H         1 RES1   0.0000
   227 H124     -0.7368    1.0027   -6.1459   H         1 RES1   0.0000
   228 H125     -1.0657    2.4194   -7.1481   H         1 RES1   0.0000
   229 H126     -1.1627    0.8246   -9.1483   H         1 RES1   0.0000
   230 H127     -2.4882    0.6991   -7.9971   H         1 RES1   0.0000
   231 H128     -0.0415   -1.1208   -7.9735   H         1 RES1   0.0000
   232 H129     -1.5383   -1.5066   -8.8074   H         1 RES1   0.0000
   233 H130     -2.7848   -1.5304   -6.7180   H         1 RES1   0.0000
   234 H131     -1.3906   -0.9540   -5.8088   H         1 RES1   0.0000
   235 H132     -1.5417   -3.6253   -7.2741   H         1 RES1   0.0000
   236 H133     -1.6256   -3.3837   -5.5308   H         1 RES1   0.0000
   237 H134     -0.1335   -3.0310   -6.4032   H         1 RES1   0.0000
   238 H135      0.8709   -3.7438   -2.1207   H         1 RES1   0.0000
   239 H136      2.9365   -2.8575   -0.0338   H         1 RES1   0.0000
   240 H137      3.2432   -3.9489   -1.3868   H         1 RES1   0.0000
   241 H138      2.2089   -4.4632   -0.0933   H         1 RES1   0.0000
   242 H139     -0.6367   -4.5511   -0.6430   H         1 RES1   0.0000
   243 H140      0.7615   -3.6255    1.8857   H         1 RES1   0.0000
   244 H141      0.8023   -5.2435    1.1684   H         1 RES1   0.0000
   245 H142     -0.5977   -4.7259    2.1011   H         1 RES1   0.0000
   246 H143     -2.0303   -5.7184    0.0236   H         1 RES1   0.0000
   247 H144     -3.7864   -5.6479   -0.0829   H         1 RES1   0.0000
   248 H145     -4.0533   -6.0141    2.2697   H         1 RES1   0.0000
   249 H146     -2.3488   -5.7189    2.6064   H         1 RES1   0.0000
   250 H147     -3.2989   -7.9634    0.7889   H         1 RES1   0.0000
   251 H148     -3.1533   -8.1794    2.5209   H         1 RES1   0.0000
   252 H149     -0.8040   -7.8372    2.5176   H         1 RES1   0.0000
   253 H150     -0.7964   -7.1832    0.8883   H         1 RES1   0.0000
   254 H151     -1.5249  -10.0524    1.5603   H         1 RES1   0.0000
   255 H152      0.0879   -9.5241    1.1008   H         1 RES1   0.0000
   256 H153     -2.3858   -9.2608   -0.6684   H         1 RES1   0.0000
   257 H154     -1.1983  -10.5439   -0.7606   H         1 RES1   0.0000
   258 H155      0.5711   -8.9411   -1.3328   H         1 RES1   0.0000
   259 H156     -0.5649   -7.5967   -1.1869   H         1 RES1   0.0000
   260 H157     -1.9513   -8.5356   -3.0091   H         1 RES1   0.0000
   261 H158     -0.8603   -9.9116   -3.1354   H         1 RES1   0.0000
   262 H159     -0.3749   -8.3700   -4.9112   H         1 RES1   0.0000
   263 H160      0.9931   -8.4011   -3.8025   H         1 RES1   0.0000
   264 H161     -1.1836   -6.2533   -3.7854   H         1 RES1   0.0000
   265 H162      0.3709   -6.0862   -4.5905   H         1 RES1   0.0000
   266 H163      0.3093   -6.2448   -2.8330   H         1 RES1   0.0000
   267 H164     -4.0016   -2.2384    1.0991   H         1 RES1   0.0000
   268 H165     -4.5434   -3.6972    1.9545   H         1 RES1   0.0000
   269 H166     -6.1125   -2.9065    0.1691   H         1 RES1   0.0000
   270 H167     -5.6012   -4.5672   -0.0575   H         1 RES1   0.0000
   271 H168     -3.9124   -3.8507   -1.7285   H         1 RES1   0.0000
   272 H169     -4.3960   -2.1701   -1.5187   H         1 RES1   0.0000
   273 H170     -6.6314   -2.6507   -2.4014   H         1 RES1   0.0000
   274 H171     -6.3192   -4.3777   -2.3555   H         1 RES1   0.0000
   275 H172     -4.9154   -2.3450   -4.1487   H         1 RES1   0.0000
   276 H173     -6.1846   -3.4619   -4.6378   H         1 RES1   0.0000
   277 H174     -3.3286   -4.1270   -3.8265   H         1 RES1   0.0000
   278 H175     -4.0892   -4.3109   -5.3968   H         1 RES1   0.0000
   279 H176     -4.7107   -5.9308   -2.8846   H         1 RES1   0.0000
   280 H177     -3.7968   -6.4664   -4.2850   H         1 RES1   0.0000
   281 H178     -6.7637   -5.7400   -4.2625   H         1 RES1   0.0000
   282 H179     -6.0800   -7.3644   -4.2377   H         1 RES1   0.0000
   283 H180     -5.7863   -5.3733   -6.5342   H         1 RES1   0.0000
   284 H181     -6.9173   -6.7192   -6.4473   H         1 RES1   0.0000
   285 H182     -3.8703   -6.9517   -6.5306   H         1 RES1   0.0000
   286 H183     -5.0106   -7.3942   -7.7940   H         1 RES1   0.0000
   287 H184     -4.9752   -8.3089   -6.2878   H         1 RES1   0.0000
   288 C93       7.1797    5.6808   -3.2362   C.3       1 RES1   0.0000
   289 C94       7.4542    6.7328   -2.1671   C.3       1 RES1   0.0000
   290 C95       6.3794    7.8203   -2.1937   C.3       1 RES1   0.0000
   291 C96       6.5161    8.8914   -1.1089   C.3       1 RES1   0.0000
   292 C97       6.1463    8.4495    0.3101   C.3       1 RES1   0.0000
   293 C98       4.6408    8.4512    0.5814   C.3       1 RES1   0.0000
   294 C99       4.3482    7.9415    2.0040   C.3       1 RES1   0.0000
   295 C100      3.0341    7.1559    2.2064   C.3       1 RES1   0.0000
   296 C101      3.2649    5.6280    2.2442   C.3       1 RES1   0.0000
   297 C102      1.9300    4.8912    2.0319   C.3       1 RES1   0.0000
   298 N5        1.8452    3.4132    2.0592   N.am      1 RES1   0.0000
   299 C103      1.8596    2.7961    3.4073   C.3       1 RES1   0.0000
   300 C104      2.5035    3.5113    4.5894   C.3       1 RES1   0.0000
   301 C105      2.4622    2.5788    5.8105   C.3       1 RES1   0.0000
   302 C106      1.0927    2.3778    6.4674   C.3       1 RES1   0.0000
   303 C107      0.5882    3.5718    7.2776   C.3       1 RES1   0.0000
   304 C108     -0.7571    3.2621    7.9415   C.3       1 RES1   0.0000
   305 C109     -1.1144    4.2171    9.0849   C.3       1 RES1   0.0000
   306 C110     -1.1448    5.7001    8.7138   C.3       1 RES1   0.0000
   307 C111     -2.1780    6.0517    7.6470   C.3       1 RES1   0.0000
   308 C112     -2.1903    7.5479    7.3635   C.3       1 RES1   0.0000
   309 C113      1.2856    2.5372    1.1811   C.2       1 RES1   0.0000
   310 O7        0.8542    1.4589    1.6454   O.2       1 RES1   0.0000
   311 C114      1.2243    2.4521   -0.3803   C.3       1 RES1   0.0000
   312 C115      2.3586    1.4801   -0.7392   C.3       1 RES1   0.0000
   313 O8       -0.0117    1.7763   -0.6951   O.3       1 RES1   0.0000
   314 C116     -0.8856    2.2824   -1.7198   C.3       1 RES1   0.0000
   315 C117     -0.2794    2.3112   -3.1249   C.3       1 RES1   0.0000
   316 C118     -2.0728    1.2980   -1.6965   C.2       1 RES1   0.0000
   317 O9       -1.8715    0.1261   -1.3170   O.2       1 RES1   0.0000
   318 N6       -3.2908    1.6848   -2.0587   N.am      1 RES1   0.0000
   319 C119     -3.6304    2.8914   -2.7994   C.3       1 RES1   0.0000
   320 C120     -3.8223    2.5990   -4.3000   C.3       1 RES1   0.0000
   321 C121     -4.2759    3.8138   -5.1185   C.3       1 RES1   0.0000
   322 C122     -3.1341    4.7830   -5.4294   C.3       1 RES1   0.0000
   323 C123     -3.6013    6.1040   -6.0465   C.3       1 RES1   0.0000
   324 C124     -4.3889    7.0174   -5.1025   C.3       1 RES1   0.0000
   325 C125     -3.6540    7.3409   -3.8010   C.3       1 RES1   0.0000
   326 C126     -4.2275    8.5785   -3.1116   C.3       1 RES1   0.0000
   327 C127     -3.5255    8.8987   -1.7903   C.3       1 RES1   0.0000
   328 C128     -4.0069    8.0315   -0.6319   C.3       1 RES1   0.0000
   329 C129     -4.3142    0.6552   -1.8109   C.3       1 RES1   0.0000
   330 C130     -5.7707    1.0900   -1.9029   C.3       1 RES1   0.0000
   331 C131     -6.2459    1.9573   -0.7329   C.3       1 RES1   0.0000
   332 C132     -7.5518    2.6659   -1.0914   C.3       1 RES1   0.0000
   333 C133     -8.1032    3.5870   -0.0039   C.3       1 RES1   0.0000
   334 C134     -7.2929    4.8727    0.1818   C.3       1 RES1   0.0000
   335 C135     -7.5218    5.9320   -0.9015   C.3       1 RES1   0.0000
   336 C136     -8.8973    6.6017   -0.8624   C.3       1 RES1   0.0000
   337 C137     -9.2199    7.3780    0.4148   C.3       1 RES1   0.0000
   338 C138     -8.2741    8.5436    0.6833   C.3       1 RES1   0.0000
   339 H185      7.8602    4.8368   -3.1458   H         1 RES1   0.0000
   340 H186      7.2896    6.1117   -4.2282   H         1 RES1   0.0000
   341 H187      6.1606    5.3080   -3.1465   H         1 RES1   0.0000
   342 H188      8.4279    7.1925   -2.3481   H         1 RES1   0.0000
   343 H189      7.4961    6.2520   -1.1870   H         1 RES1   0.0000
   344 H190      5.3965    7.3478   -2.1189   H         1 RES1   0.0000
   345 H191      6.4310    8.3129   -3.1684   H         1 RES1   0.0000
   346 H192      5.8794    9.7388   -1.3769   H         1 RES1   0.0000
   347 H193      7.5460    9.2466   -1.0997   H         1 RES1   0.0000
   348 H194      6.6151    9.1375    1.0218   H         1 RES1   0.0000
   349 H195      6.5463    7.4501    0.5038   H         1 RES1   0.0000
   350 H196      4.1412    7.8465   -0.1702   H         1 RES1   0.0000
   351 H197      4.2737    9.4720    0.4708   H         1 RES1   0.0000
   352 H198      4.3570    8.8028    2.6738   H         1 RES1   0.0000
   353 H199      5.1732    7.2937    2.3049   H         1 RES1   0.0000
   354 H200      2.3228    7.4163    1.4187   H         1 RES1   0.0000
   355 H201      2.5814    7.4803    3.1430   H         1 RES1   0.0000
   356 H202      3.7364    5.3783    3.1897   H         1 RES1   0.0000
   357 H203      3.9544    5.3742    1.4534   H         1 RES1   0.0000
   358 H204      1.5623    5.2286    1.0685   H         1 RES1   0.0000
   359 H205      1.2536    5.2305    2.8258   H         1 RES1   0.0000
   360 H206      2.3577    1.8228    3.2916   H         1 RES1   0.0000
   361 H207      0.8140    2.5791    3.6566   H         1 RES1   0.0000
   362 H208      1.9832    4.4343    4.8338   H         1 RES1   0.0000
   363 H209      3.5490    3.7357    4.3789   H         1 RES1   0.0000
   364 H210      3.1405    2.9580    6.5754   H         1 RES1   0.0000
   365 H211      2.8382    1.5994    5.4982   H         1 RES1   0.0000
   366 H212      1.1732    1.5191    7.1387   H         1 RES1   0.0000
   367 H213      0.3423    2.1175    5.7157   H         1 RES1   0.0000
   368 H214      0.4855    4.4423    6.6267   H         1 RES1   0.0000
   369 H215      1.3219    3.8061    8.0494   H         1 RES1   0.0000
   370 H216     -0.7091    2.2521    8.3610   H         1 RES1   0.0000
   371 H217     -1.5504    3.2733    7.1861   H         1 RES1   0.0000
   372 H218     -0.3859    4.0777    9.8862   H         1 RES1   0.0000
   373 H219     -2.0896    3.9210    9.4780   H         1 RES1   0.0000
   374 H220     -0.1563    6.0093    8.3688   H         1 RES1   0.0000
   375 H221     -1.3695    6.2678    9.6198   H         1 RES1   0.0000
   376 H222     -3.1657    5.7297    7.9818   H         1 RES1   0.0000
   377 H223     -1.9511    5.5159    6.7213   H         1 RES1   0.0000
   378 H224     -2.4247    8.1023    8.2671   H         1 RES1   0.0000
   379 H225     -2.9317    7.7963    6.6078   H         1 RES1   0.0000
   380 H226     -1.2149    7.8777    7.0117   H         1 RES1   0.0000
   381 H227      1.2620    3.3713   -0.9500   H         1 RES1   0.0000
   382 H228      3.2991    1.7834   -0.2939   H         1 RES1   0.0000
   383 H229      2.4785    1.4147   -1.8201   H         1 RES1   0.0000
   384 H230      2.1034    0.4897   -0.3225   H         1 RES1   0.0000
   385 H231     -1.2308    3.2831   -1.4368   H         1 RES1   0.0000
   386 H232     -0.0803    1.2890   -3.4406   H         1 RES1   0.0000
   387 H233      0.6341    2.9047   -3.1483   H         1 RES1   0.0000
   388 H234     -0.9903    2.7591   -3.8167   H         1 RES1   0.0000
   389 H235     -2.8404    3.6289   -2.6553   H         1 RES1   0.0000
   390 H236     -4.5459    3.3128   -2.3782   H         1 RES1   0.0000
   391 H237     -4.5542    1.7989   -4.4132   H         1 RES1   0.0000
   392 H238     -2.8855    2.2283   -4.7185   H         1 RES1   0.0000
   393 H239     -5.0814    4.3342   -4.6009   H         1 RES1   0.0000
   394 H240     -4.6869    3.4474   -6.0607   H         1 RES1   0.0000
   395 H241     -2.4490    4.3035   -6.1333   H         1 RES1   0.0000
   396 H242     -2.5706    5.0024   -4.5216   H         1 RES1   0.0000
   397 H243     -4.2198    5.8923   -6.9194   H         1 RES1   0.0000
   398 H244     -2.7200    6.6438   -6.4003   H         1 RES1   0.0000
   399 H245     -5.3576    6.5715   -4.8728   H         1 RES1   0.0000
   400 H246     -4.5924    7.9508   -5.6303   H         1 RES1   0.0000
   401 H247     -2.5964    7.5174   -4.0202   H         1 RES1   0.0000
   402 H248     -3.7255    6.4876   -3.1216   H         1 RES1   0.0000
   403 H249     -5.2953    8.4421   -2.9319   H         1 RES1   0.0000
   404 H250     -4.1196    9.4316   -3.7815   H         1 RES1   0.0000
   405 H251     -3.7099    9.9419   -1.5339   H         1 RES1   0.0000
   406 H252     -2.4461    8.7805   -1.9194   H         1 RES1   0.0000
   407 H253     -5.0599    8.2210   -0.4374   H         1 RES1   0.0000
   408 H254     -3.4513    8.2654    0.2753   H         1 RES1   0.0000
   409 H255     -3.8883    6.9712   -0.8555   H         1 RES1   0.0000
   410 H256     -4.1073    0.2791   -0.7998   H         1 RES1   0.0000
   411 H257     -4.1257   -0.1655   -2.5119   H         1 RES1   0.0000
   412 H258     -6.3679    0.1747   -1.9394   H         1 RES1   0.0000
   413 H259     -5.9530    1.6187   -2.8371   H         1 RES1   0.0000
   414 H260     -5.4857    2.6986   -0.4828   H         1 RES1   0.0000
   415 H261     -6.3992    1.3399    0.1524   H         1 RES1   0.0000
   416 H262     -8.3022    1.9095   -1.3159   H         1 RES1   0.0000
   417 H263     -7.3933    3.2475   -1.9987   H         1 RES1   0.0000
   418 H264     -8.1382    3.0374    0.9397   H         1 RES1   0.0000
   419 H265     -9.1312    3.8501   -0.2557   H         1 RES1   0.0000
   420 H266     -6.2262    4.6242    0.2058   H         1 RES1   0.0000
   421 H267     -7.5450    5.3041    1.1517   H         1 RES1   0.0000
   422 H268     -7.3954    5.4837   -1.8913   H         1 RES1   0.0000
   423 H269     -6.7474    6.6946   -0.7953   H         1 RES1   0.0000
   424 H270     -9.6743    5.8497   -1.0078   H         1 RES1   0.0000
   425 H271     -8.9511    7.2894   -1.7084   H         1 RES1   0.0000
   426 H272     -9.2234    6.7086    1.2773   H         1 RES1   0.0000
   427 H273    -10.2317    7.7733    0.3118   H         1 RES1   0.0000
   428 H274     -7.2695    8.1966    0.9235   H         1 RES1   0.0000
   429 H275     -8.6376    9.1280    1.5265   H         1 RES1   0.0000
   430 H276     -8.2196    9.1962   -0.1866   H         1 RES1   0.0000
@<TRIPOS>BOND
     1     1    24    1
     2     1    27    1
     3     1    31    1
     4     1   167    1
     5     1   170    1
     6     1   174    1
     7     1   310    1
     8     1   313    1
     9     1   317    1
    10     2     3    1
    11     2    53    1
    12     2    54    1
    13     2    55    1
    14     3     4    1
    15     3    56    1
    16     3    57    1
    17     4     5    1
    18     4    58    1
    19     4    59    1
    20     5     6    1
    21     5    60    1
    22     5    61    1
    23     6     7    1
    24     6    62    1
    25     6    63    1
    26     7     8    1
    27     7    64    1
    28     7    65    1
    29     8     9    1
    30     8    66    1
    31     8    67    1
    32     9    10    1
    33     9    68    1
    34     9    69    1
    35    10    11    1
    36    10    70    1
    37    10    71    1
    38    11    12    1
    39    11    72    1
    40    11    73    1
    41    12    13    1
    42    12    23    1
    43    13    14    1
    44    13    74    1
    45    13    75    1
    46    14    15    1
    47    14    76    1
    48    14    77    1
    49    15    16    1
    50    15    78    1
    51    15    79    1
    52    16    17    1
    53    16    80    1
    54    16    81    1
    55    17    18    1
    56    17    82    1
    57    17    83    1
    58    18    19    1
    59    18    84    1
    60    18    85    1
    61    19    20    1
    62    19    86    1
    63    19    87    1
    64    20    21    1
    65    20    88    1
    66    20    89    1
    67    21    22    1
    68    21    90    1
    69    21    91    1
    70    22    92    1
    71    22    93    1
    72    22    94    1
    73    23    24    2
    74    23    25    1
    75    25    26    1
    76    25    27    1
    77    25    95    1
    78    26    96    1
    79    26    97    1
    80    26    98    1
    81    27    28    1
    82    28    29    1
    83    28    30    1
    84    28    99    1
    85    29   100    1
    86    29   101    1
    87    29   102    1
    88    30    31    2
    89    30    32    1
    90    32    33    1
    91    32    43    1
    92    33    34    1
    93    33   103    1
    94    33   104    1
    95    34    35    1
    96    34   105    1
    97    34   106    1
    98    35    36    1
    99    35   107    1
   100    35   108    1
   101    36    37    1
   102    36   109    1
   103    36   110    1
   104    37    38    1
   105    37   111    1
   106    37   112    1
   107    38    39    1
   108    38   113    1
   109    38   114    1
   110    39    40    1
   111    39   115    1
   112    39   116    1
   113    40    41    1
   114    40   117    1
   115    40   118    1
   116    41    42    1
   117    41   119    1
   118    41   120    1
   119    42   121    1
   120    42   122    1
   121    42   123    1
   122    43    44    1
   123    43   124    1
   124    43   125    1
   125    44    45    1
   126    44   126    1
   127    44   127    1
   128    45    46    1
   129    45   128    1
   130    45   129    1
   131    46    47    1
   132    46   130    1
   133    46   131    1
   134    47    48    1
   135    47   132    1
   136    47   133    1
   137    48    49    1
   138    48   134    1
   139    48   135    1
   140    49    50    1
   141    49   136    1
   142    49   137    1
   143    50    51    1
   144    50   138    1
   145    50   139    1
   146    51    52    1
   147    51   140    1
   148    51   141    1
   149    52   142    1
   150    52   143    1
   151    52   144    1
   152   145   146    1
   153   145   196    1
   154   145   197    1
   155   145   198    1
   156   146   147    1
   157   146   199    1
   158   146   200    1
   159   147   148    1
   160   147   201    1
   161   147   202    1
   162   148   149    1
   163   148   203    1
   164   148   204    1
   165   149   150    1
   166   149   205    1
   167   149   206    1
   168   150   151    1
   169   150   207    1
   170   150   208    1
   171   151   152    1
   172   151   209    1
   173   151   210    1
   174   152   153    1
   175   152   211    1
   176   152   212    1
   177   153   154    1
   178   153   213    1
   179   153   214    1
   180   154   155    1
   181   154   215    1
   182   154   216    1
   183   155   156    1
   184   155   166    1
   185   156   157    1
   186   156   217    1
   187   156   218    1
   188   157   158    1
   189   157   219    1
   190   157   220    1
   191   158   159    1
   192   158   221    1
   193   158   222    1
   194   159   160    1
   195   159   223    1
   196   159   224    1
   197   160   161    1
   198   160   225    1
   199   160   226    1
   200   161   162    1
   201   161   227    1
   202   161   228    1
   203   162   163    1
   204   162   229    1
   205   162   230    1
   206   163   164    1
   207   163   231    1
   208   163   232    1
   209   164   165    1
   210   164   233    1
   211   164   234    1
   212   165   235    1
   213   165   236    1
   214   165   237    1
   215   166   167    2
   216   166   168    1
   217   168   169    1
   218   168   170    1
   219   168   238    1
   220   169   239    1
   221   169   240    1
   222   169   241    1
   223   170   171    1
   224   171   172    1
   225   171   173    1
   226   171   242    1
   227   172   243    1
   228   172   244    1
   229   172   245    1
   230   173   174    2
   231   173   175    1
   232   175   176    1
   233   175   186    1
   234   176   177    1
   235   176   246    1
   236   176   247    1
   237   177   178    1
   238   177   248    1
   239   177   249    1
   240   178   179    1
   241   178   250    1
   242   178   251    1
   243   179   180    1
   244   179   252    1
   245   179   253    1
   246   180   181    1
   247   180   254    1
   248   180   255    1
   249   181   182    1
   250   181   256    1
   251   181   257    1
   252   182   183    1
   253   182   258    1
   254   182   259    1
   255   183   184    1
   256   183   260    1
   257   183   261    1
   258   184   185    1
   259   184   262    1
   260   184   263    1
   261   185   264    1
   262   185   265    1
   263   185   266    1
   264   186   187    1
   265   186   267    1
   266   186   268    1
   267   187   188    1
   268   187   269    1
   269   187   270    1
   270   188   189    1
   271   188   271    1
   272   188   272    1
   273   189   190    1
   274   189   273    1
   275   189   274    1
   276   190   191    1
   277   190   275    1
   278   190   276    1
   279   191   192    1
   280   191   277    1
   281   191   278    1
   282   192   193    1
   283   192   279    1
   284   192   280    1
   285   193   194    1
   286   193   281    1
   287   193   282    1
   288   194   195    1
   289   194   283    1
   290   194   284    1
   291   195   285    1
   292   195   286    1
   293   195   287    1
   294   288   289    1
   295   288   339    1
   296   288   340    1
   297   288   341    1
   298   289   290    1
   299   289   342    1
   300   289   343    1
   301   290   291    1
   302   290   344    1
   303   290   345    1
   304   291   292    1
   305   291   346    1
   306   291   347    1
   307   292   293    1
   308   292   348    1
   309   292   349    1
   310   293   294    1
   311   293   350    1
   312   293   351    1
   313   294   295    1
   314   294   352    1
   315   294   353    1
   316   295   296    1
   317   295   354    1
   318   295   355    1
   319   296   297    1
   320   296   356    1
   321   296   357    1
   322   297   298    1
   323   297   358    1
   324   297   359    1
   325   298   299    1
   326   298   309    1
   327   299   300    1
   328   299   360    1
   329   299   361    1
   330   300   301    1
   331   300   362    1
   332   300   363    1
   333   301   302    1
   334   301   364    1
   335   301   365    1
   336   302   303    1
   337   302   366    1
   338   302   367    1
   339   303   304    1
   340   303   368    1
   341   303   369    1
   342   304   305    1
   343   304   370    1
   344   304   371    1
   345   305   306    1
   346   305   372    1
   347   305   373    1
   348   306   307    1
   349   306   374    1
   350   306   375    1
   351   307   308    1
   352   307   376    1
   353   307   377    1
   354   308   378    1
   355   308   379    1
   356   308   380    1
   357   309   310    2
   358   309   311    1
   359   311   312    1
   360   311   313    1
   361   311   381    1
   362   312   382    1
   363   312   383    1
   364   312   384    1
   365   313   314    1
   366   314   315    1
   367   314   316    1
   368   314   385    1
   369   315   386    1
   370   315   387    1
   371   315   388    1
   372   316   317    2
   373   316   318    1
   374   318   319    1
   375   318   329    1
   376   319   320    1
   377   319   389    1
   378   319   390    1
   379   320   321    1
   380   320   391    1
   381   320   392    1
   382   321   322    1
   383   321   393    1
   384   321   394    1
   385   322   323    1
   386   322   395    1
   387   322   396    1
   388   323   324    1
   389   323   397    1
   390   323   398    1
   391   324   325    1
   392   324   399    1
   393   324   400    1
   394   325   326    1
   395   325   401    1
   396   325   402    1
   397   326   327    1
   398   326   403    1
   399   326   404    1
   400   327   328    1
   401   327   405    1
   402   327   406    1
   403   328   407    1
   404   328   408    1
   405   328   409    1
   406   329   330    1
   407   329   410    1
   408   329   411    1
   409   330   331    1
   410   330   412    1
   411   330   413    1
   412   331   332    1
   413   331   414    1
   414   331   415    1
   415   332   333    1
   416   332   416    1
   417   332   417    1
   418   333   334    1
   419   333   418    1
   420   333   419    1
   421   334   335    1
   422   334   420    1
   423   334   421    1
   424   335   336    1
   425   335   422    1
   426   335   423    1
   427   336   337    1
   428   336   424    1
   429   336   425    1
   430   337   338    1
   431   337   426    1
   432   337   427    1
   433   338   428    1
   434   338   429    1
   435   338   430    1
@<TRIPOS>SUBSTRUCTURE
     1 RES1      430 GROUP             0 ****  ****    0  
