@<TRIPOS>MOLECULE
am_c3_9H2O_c0_0_nunpairedes_0_charge_3 Charge: 3 Unpaired_Electrons: 6 XTB_Unpaired_Electrons: 0 XTB_Charge: 3
   342   347     1     0     0
SMALL
NoCharges
****
Generated from Architector

@<TRIPOS>ATOM
     1 Eu1       0.2028   -0.5388    0.1316   Eu        1 RES1   0.0000
     2 C1        3.6500    0.4581   -7.8916   C.3       1 RES1   0.0000
     3 C2        3.7920    1.9145   -7.4582   C.3       1 RES1   0.0000
     4 C3        4.7147    2.2235   -6.2563   C.3       1 RES1   0.0000
     5 C4        3.9944    2.5805   -4.9330   C.3       1 RES1   0.0000
     6 C5        4.9748    2.6802   -3.7413   C.3       1 RES1   0.0000
     7 C6        5.9979    3.8098   -3.9547   C.3       1 RES1   0.0000
     8 C7        7.2533    3.6212   -3.1127   C.3       1 RES1   0.0000
     9 C8        4.4424    2.8030   -2.2449   C.3       1 RES1   0.0000
    10 N1        3.0363    2.5759   -1.8962   N.am      1 RES1   0.0000
    11 C9        2.0905    3.5068   -2.5150   C.3       1 RES1   0.0000
    12 C10       1.8877    4.8854   -1.8363   C.3       1 RES1   0.0000
    13 C11       1.1228    4.7718   -0.5180   C.3       1 RES1   0.0000
    14 C12      -0.3641    4.5229   -0.7390   C.3       1 RES1   0.0000
    15 C13       3.1340    5.7809   -1.7166   C.3       1 RES1   0.0000
    16 C14       3.9556    5.6644   -0.4265   C.3       1 RES1   0.0000
    17 C15       5.2871    6.4151   -0.5310   C.3       1 RES1   0.0000
    18 C16       6.0768    6.3407    0.7678   C.3       1 RES1   0.0000
    19 C17       2.5624    1.6576   -1.0417   C.2       1 RES1   0.0000
    20 O1        1.3522    1.3044   -1.0465   O.2       1 RES1   0.0000
    21 C18       3.4638    1.0089    0.0227   C.3       1 RES1   0.0000
    22 N2        2.6403    0.5645    1.1674   N.4       1 RES1   0.0000
    23 C19       2.1903    1.6919    1.9985   C.3       1 RES1   0.0000
    24 C20       0.9417    1.2766    2.7970   C.2       1 RES1   0.0000
    25 O2        0.3321    0.2639    2.3764   O.2       1 RES1   0.0000
    26 N3        0.5044    2.0274    3.8023   N.am      1 RES1   0.0000
    27 C21      -0.8877    1.8367    4.2313   C.3       1 RES1   0.0000
    28 C22      -1.2204    1.8673    5.7304   C.3       1 RES1   0.0000
    29 C23      -2.7500    2.0037    5.8767   C.3       1 RES1   0.0000
    30 C24      -3.3277    3.3487    5.4542   C.3       1 RES1   0.0000
    31 C25      -0.7715    0.6247    6.5202   C.3       1 RES1   0.0000
    32 C26       0.6648    0.6227    7.0541   C.3       1 RES1   0.0000
    33 C27       0.8004   -0.3316    8.2477   C.3       1 RES1   0.0000
    34 C28       2.2429   -0.5027    8.7096   C.3       1 RES1   0.0000
    35 C29       1.2539    3.0990    4.4540   C.3       1 RES1   0.0000
    36 C30       0.6414    4.5135    4.3717   C.3       1 RES1   0.0000
    37 C31       1.3199    5.4211    5.4127   C.3       1 RES1   0.0000
    38 C32       2.7757    5.7769    5.1261   C.3       1 RES1   0.0000
    39 C33       0.7367    5.0603    2.9405   C.3       1 RES1   0.0000
    40 C34       0.2614    6.5050    2.7212   C.3       1 RES1   0.0000
    41 C35      -1.2572    6.6968    2.6415   C.3       1 RES1   0.0000
    42 C36      -1.9676    6.8068    3.9865   C.3       1 RES1   0.0000
    43 C37       3.3690   -0.3861    2.0332   C.3       1 RES1   0.0000
    44 C38       3.0868   -1.8272    1.5800   C.2       1 RES1   0.0000
    45 O3        2.0500   -2.0098    0.9075   O.2       1 RES1   0.0000
    46 N4        3.9422   -2.8002    1.8955   N.am      1 RES1   0.0000
    47 C39       4.0492   -3.9715    1.0339   C.3       1 RES1   0.0000
    48 C40       5.3510   -3.9754    0.2117   C.3       1 RES1   0.0000
    49 C41       5.5378   -2.6760   -0.5718   C.3       1 RES1   0.0000
    50 C42       6.5237   -1.6730    0.0143   C.3       1 RES1   0.0000
    51 C43       5.3128   -5.1763   -0.7467   C.3       1 RES1   0.0000
    52 C44       6.6156   -5.4289   -1.5156   C.3       1 RES1   0.0000
    53 C45       7.8447   -5.6282   -0.6297   C.3       1 RES1   0.0000
    54 C46       9.0656   -6.0503   -1.4395   C.3       1 RES1   0.0000
    55 C47       4.8848   -2.6598    3.0106   C.3       1 RES1   0.0000
    56 C48       5.3000   -3.8791    3.8819   C.3       1 RES1   0.0000
    57 C49       6.3651   -4.8142    3.3043   C.3       1 RES1   0.0000
    58 C50       7.0179   -5.6358    4.4143   C.3       1 RES1   0.0000
    59 C51       4.1532   -4.6329    4.5871   C.3       1 RES1   0.0000
    60 C52       3.6601   -5.9707    4.0163   C.3       1 RES1   0.0000
    61 C53       3.0478   -6.8272    5.1338   C.3       1 RES1   0.0000
    62 C54       2.4172   -8.1024    4.5811   C.3       1 RES1   0.0000
    63 H1        3.0628    0.4281   -8.8106   H         1 RES1   0.0000
    64 H2        3.1325   -0.1275   -7.1347   H         1 RES1   0.0000
    65 H3        4.6059   -0.0137   -8.0958   H         1 RES1   0.0000
    66 H4        2.7867    2.2794   -7.2578   H         1 RES1   0.0000
    67 H5        4.1569    2.4828   -8.3142   H         1 RES1   0.0000
    68 H6        5.3093    3.0893   -6.5556   H         1 RES1   0.0000
    69 H7        5.4063    1.3970   -6.1060   H         1 RES1   0.0000
    70 H8        3.2239    1.8321   -4.7401   H         1 RES1   0.0000
    71 H9        3.4907    3.5325   -5.0993   H         1 RES1   0.0000
    72 H10       5.5738    1.7689   -3.7718   H         1 RES1   0.0000
    73 H11       5.5533    4.7849   -3.7584   H         1 RES1   0.0000
    74 H12       6.3029    3.8128   -4.9969   H         1 RES1   0.0000
    75 H13       7.0624    3.7612   -2.0531   H         1 RES1   0.0000
    76 H14       8.0112    4.3380   -3.4113   H         1 RES1   0.0000
    77 H15       7.6647    2.6269   -3.2676   H         1 RES1   0.0000
    78 H16       4.6893    3.8166   -1.9340   H         1 RES1   0.0000
    79 H17       5.0536    2.1193   -1.6556   H         1 RES1   0.0000
    80 H18       1.1182    3.0166   -2.5349   H         1 RES1   0.0000
    81 H19       2.4151    3.6893   -3.5338   H         1 RES1   0.0000
    82 H20       1.2226    5.4008   -2.5388   H         1 RES1   0.0000
    83 H21       1.2256    5.6997    0.0382   H         1 RES1   0.0000
    84 H22       1.5518    3.9780    0.0958   H         1 RES1   0.0000
    85 H23      -0.8061    5.3526   -1.2902   H         1 RES1   0.0000
    86 H24      -0.8871    4.4453    0.2125   H         1 RES1   0.0000
    87 H25      -0.5149    3.6071   -1.3129   H         1 RES1   0.0000
    88 H26       2.8070    6.8190   -1.7908   H         1 RES1   0.0000
    89 H27       3.7694    5.6068   -2.5844   H         1 RES1   0.0000
    90 H28       4.1458    4.6178   -0.1665   H         1 RES1   0.0000
    91 H29       3.3929    6.0918    0.4066   H         1 RES1   0.0000
    92 H30       5.0852    7.4597   -0.7698   H         1 RES1   0.0000
    93 H31       5.8808    5.9985   -1.3482   H         1 RES1   0.0000
    94 H32       5.4767    6.6899    1.6024   H         1 RES1   0.0000
    95 H33       6.9645    6.9586    0.7083   H         1 RES1   0.0000
    96 H34       6.3927    5.3223    0.9743   H         1 RES1   0.0000
    97 H35       4.2353    1.7170    0.3533   H         1 RES1   0.0000
    98 H36       3.9503    0.1298   -0.4138   H         1 RES1   0.0000
    99 H37       1.8523    2.5045    1.3507   H         1 RES1   0.0000
   100 H38       3.0083    2.0734    2.6203   H         1 RES1   0.0000
   101 H39      -1.2172    0.8870    3.8047   H         1 RES1   0.0000
   102 H40      -1.4446    2.6465    3.7482   H         1 RES1   0.0000
   103 H41      -0.7762    2.7557    6.1850   H         1 RES1   0.0000
   104 H42      -2.9906    1.8818    6.9317   H         1 RES1   0.0000
   105 H43      -3.2486    1.1987    5.3343   H         1 RES1   0.0000
   106 H44      -2.8821    4.1515    6.0374   H         1 RES1   0.0000
   107 H45      -4.3980    3.3562    5.6465   H         1 RES1   0.0000
   108 H46      -3.1834    3.5589    4.3963   H         1 RES1   0.0000
   109 H47      -0.9456   -0.2736    5.9233   H         1 RES1   0.0000
   110 H48      -1.4236    0.5529    7.3926   H         1 RES1   0.0000
   111 H49       0.9331    1.6286    7.3886   H         1 RES1   0.0000
   112 H50       1.3639    0.3234    6.2669   H         1 RES1   0.0000
   113 H51       0.3996   -1.3112    7.9774   H         1 RES1   0.0000
   114 H52       0.1961    0.0465    9.0750   H         1 RES1   0.0000
   115 H53       2.8328   -1.0117    7.9487   H         1 RES1   0.0000
   116 H54       2.2728   -1.1013    9.6154   H         1 RES1   0.0000
   117 H55       2.7027    0.4596    8.9241   H         1 RES1   0.0000
   118 H56       2.2545    3.1456    4.0345   H         1 RES1   0.0000
   119 H57       1.3512    2.8249    5.5093   H         1 RES1   0.0000
   120 H58      -0.4105    4.4442    4.6539   H         1 RES1   0.0000
   121 H59       1.2636    4.9328    6.3888   H         1 RES1   0.0000
   122 H60       0.7381    6.3403    5.4836   H         1 RES1   0.0000
   123 H61       3.4181    4.8995    5.1580   H         1 RES1   0.0000
   124 H62       3.1286    6.4704    5.8846   H         1 RES1   0.0000
   125 H63       2.8850    6.2610    4.1592   H         1 RES1   0.0000
   126 H64       0.1463    4.4047    2.2932   H         1 RES1   0.0000
   127 H65       1.7798    5.0006    2.6143   H         1 RES1   0.0000
   128 H66       0.6807    6.8398    1.7684   H         1 RES1   0.0000
   129 H67       0.6682    7.1668    3.4841   H         1 RES1   0.0000
   130 H68      -1.6956    5.8810    2.0556   H         1 RES1   0.0000
   131 H69      -1.4446    7.6221    2.0922   H         1 RES1   0.0000
   132 H70      -1.9082    5.8823    4.5529   H         1 RES1   0.0000
   133 H71      -3.0189    7.0330    3.8274   H         1 RES1   0.0000
   134 H72      -1.5410    7.6108    4.5817   H         1 RES1   0.0000
   135 H73       3.0166   -0.2621    3.0611   H         1 RES1   0.0000
   136 H74       4.4437   -0.1717    2.0278   H         1 RES1   0.0000
   137 H75       3.1947   -3.9456    0.3531   H         1 RES1   0.0000
   138 H76       4.0066   -4.8699    1.6471   H         1 RES1   0.0000
   139 H77       6.1894   -4.1133    0.8896   H         1 RES1   0.0000
   140 H78       4.5606   -2.2059   -0.7128   H         1 RES1   0.0000
   141 H79       5.9273   -2.9628   -1.5447   H         1 RES1   0.0000
   142 H80       6.1476   -1.1938    0.9122   H         1 RES1   0.0000
   143 H81       6.7275   -0.8850   -0.7084   H         1 RES1   0.0000
   144 H82       7.4653   -2.1645    0.2485   H         1 RES1   0.0000
   145 H83       4.5050   -5.0253   -1.4679   H         1 RES1   0.0000
   146 H84       5.0773   -6.0766   -0.1789   H         1 RES1   0.0000
   147 H85       6.8219   -4.6108   -2.2108   H         1 RES1   0.0000
   148 H86       6.4714   -6.3307   -2.1146   H         1 RES1   0.0000
   149 H87       7.6314   -6.3935    0.1179   H         1 RES1   0.0000
   150 H88       8.0779   -4.7021   -0.1019   H         1 RES1   0.0000
   151 H89       8.8840   -7.0039   -1.9295   H         1 RES1   0.0000
   152 H90       9.9298   -6.1514   -0.7884   H         1 RES1   0.0000
   153 H91       9.3115   -5.3109   -2.1988   H         1 RES1   0.0000
   154 H92       4.4169   -1.9632    3.7079   H         1 RES1   0.0000
   155 H93       5.8191   -2.2136    2.6552   H         1 RES1   0.0000
   156 H94       5.8197   -3.3514    4.6904   H         1 RES1   0.0000
   157 H95       7.1515   -4.2172    2.8380   H         1 RES1   0.0000
   158 H96       5.9527   -5.4965    2.5639   H         1 RES1   0.0000
   159 H97       7.5339   -4.9811    5.1120   H         1 RES1   0.0000
   160 H98       7.7367   -6.3285    3.9853   H         1 RES1   0.0000
   161 H99       6.2839   -6.2101    4.9706   H         1 RES1   0.0000
   162 H100      3.3020   -3.9587    4.6837   H         1 RES1   0.0000
   163 H101      4.5091   -4.8352    5.5995   H         1 RES1   0.0000
   164 H102      4.4751   -6.5535    3.5838   H         1 RES1   0.0000
   165 H103      2.9119   -5.8181    3.2360   H         1 RES1   0.0000
   166 H104      2.3087   -6.2517    5.7047   H         1 RES1   0.0000
   167 H105      3.8432   -7.1097    5.8278   H         1 RES1   0.0000
   168 H106      1.4975   -7.8920    4.0387   H         1 RES1   0.0000
   169 H107      2.1763   -8.7865    5.3894   H         1 RES1   0.0000
   170 H108      3.1081   -8.5968    3.8996   H         1 RES1   0.0000
   171 C55      -5.2328    0.7275    3.1233   C.3       1 RES1   0.0000
   172 C56      -6.4602   -0.1672    2.9833   C.3       1 RES1   0.0000
   173 C57      -6.2831   -1.2589    1.9235   C.3       1 RES1   0.0000
   174 C58      -6.2640   -0.7000    0.4981   C.3       1 RES1   0.0000
   175 C59      -5.9866   -1.7253   -0.6127   C.3       1 RES1   0.0000
   176 C60      -7.2529   -2.4503   -1.1086   C.3       1 RES1   0.0000
   177 C61      -8.0516   -3.2198   -0.0641   C.3       1 RES1   0.0000
   178 C62      -5.3945   -1.0619   -1.8877   C.3       1 RES1   0.0000
   179 N5       -4.3028   -0.1053   -1.7145   N.am      1 RES1   0.0000
   180 C63      -4.7230    1.2886   -1.5973   C.3       1 RES1   0.0000
   181 C64      -4.9575    2.0994   -2.8939   C.3       1 RES1   0.0000
   182 C65      -3.6471    2.5810   -3.5164   C.3       1 RES1   0.0000
   183 C66      -3.0789    3.8129   -2.8266   C.3       1 RES1   0.0000
   184 C67      -5.8703    1.4393   -3.9380   C.3       1 RES1   0.0000
   185 C68      -5.2002    0.3925   -4.8326   C.3       1 RES1   0.0000
   186 C69      -6.2355   -0.4518   -5.5712   C.3       1 RES1   0.0000
   187 C70      -5.5951   -1.4481   -6.5281   C.3       1 RES1   0.0000
   188 C71      -3.0309   -0.4646   -1.5944   C.2       1 RES1   0.0000
   189 O4       -2.0868    0.2954   -1.2833   O.2       1 RES1   0.0000
   190 C72      -2.6920   -1.9163   -1.9156   C.3       1 RES1   0.0000
   191 N6       -1.2593   -2.1516   -1.6977   N.4       1 RES1   0.0000
   192 C73      -0.4855   -2.1064   -2.9437   C.3       1 RES1   0.0000
   193 C74       0.9239   -1.6396   -2.6400   C.2       1 RES1   0.0000
   194 O5        1.4261   -2.0101   -1.5669   O.2       1 RES1   0.0000
   195 N7        1.5816   -0.8790   -3.5458   N.am      1 RES1   0.0000
   196 C75       3.0261   -0.7788   -3.2829   C.3       1 RES1   0.0000
   197 C76       4.0826   -1.3434   -4.2529   C.3       1 RES1   0.0000
   198 C77       5.4185   -0.9192   -3.5981   C.3       1 RES1   0.0000
   199 C78       6.6373   -0.9191   -4.5081   C.3       1 RES1   0.0000
   200 C79       4.1650   -2.8657   -4.4688   C.3       1 RES1   0.0000
   201 C80       2.8968   -3.7077   -4.5296   C.3       1 RES1   0.0000
   202 C81       3.3144   -5.1699   -4.7513   C.3       1 RES1   0.0000
   203 C82       2.2338   -6.2119   -4.4921   C.3       1 RES1   0.0000
   204 C83       0.8647    0.3677   -3.8943   C.3       1 RES1   0.0000
   205 C84       0.5034    0.7632   -5.3398   C.3       1 RES1   0.0000
   206 C85      -0.2051   -0.3538   -6.1173   C.3       1 RES1   0.0000
   207 C86      -1.7061   -0.5002   -5.8271   C.3       1 RES1   0.0000
   208 C87      -0.3061    2.0735   -5.1795   C.3       1 RES1   0.0000
   209 C88      -0.9030    2.7418   -6.4342   C.3       1 RES1   0.0000
   210 C89      -0.3488    4.1496   -6.7010   C.3       1 RES1   0.0000
   211 C90       0.9178    4.1077   -7.5390   C.3       1 RES1   0.0000
   212 C91      -1.0539   -3.3765   -0.9196   C.3       1 RES1   0.0000
   213 C92      -1.5734   -3.0853    0.4888   C.2       1 RES1   0.0000
   214 O6       -1.6157   -1.8870    0.8650   O.2       1 RES1   0.0000
   215 N8       -2.0413   -4.0961    1.2079   N.am      1 RES1   0.0000
   216 C93      -2.8817   -3.7894    2.3768   C.3       1 RES1   0.0000
   217 C94      -3.9102   -4.8663    2.7814   C.3       1 RES1   0.0000
   218 C95      -5.1069   -4.9288    1.8316   C.3       1 RES1   0.0000
   219 C96      -4.7648   -5.3590    0.4124   C.3       1 RES1   0.0000
   220 C97      -4.3856   -4.5975    4.2226   C.3       1 RES1   0.0000
   221 C98      -5.2438   -5.7151    4.8275   C.3       1 RES1   0.0000
   222 C99      -4.5884   -7.0938    4.7753   C.3       1 RES1   0.0000
   223 C100     -5.4179   -8.1389    5.5104   C.3       1 RES1   0.0000
   224 C101     -1.5166   -5.4449    1.0279   C.3       1 RES1   0.0000
   225 C102      0.0187   -5.5482    1.0430   C.3       1 RES1   0.0000
   226 C103      0.4468   -7.0075    1.2539   C.3       1 RES1   0.0000
   227 C104      1.7760   -7.2909    0.5682   C.3       1 RES1   0.0000
   228 C105      0.6421   -4.5820    2.0539   C.3       1 RES1   0.0000
   229 C106      0.2269   -4.7663    3.5145   C.3       1 RES1   0.0000
   230 C107      0.4207   -3.4525    4.2761   C.3       1 RES1   0.0000
   231 C108      0.0104   -3.5963    5.7350   C.3       1 RES1   0.0000
   232 H109     -5.3680    1.4184    3.9501   H         1 RES1   0.0000
   233 H110     -5.0668    1.3134    2.2211   H         1 RES1   0.0000
   234 H111     -4.3437    0.1269    3.3166   H         1 RES1   0.0000
   235 H112     -7.3348    0.4407    2.7460   H         1 RES1   0.0000
   236 H113     -6.6501   -0.6530    3.9426   H         1 RES1   0.0000
   237 H114     -7.0837   -1.9865    2.0373   H         1 RES1   0.0000
   238 H115     -5.3330   -1.7650    2.1173   H         1 RES1   0.0000
   239 H116     -5.4666    0.0428    0.4886   H         1 RES1   0.0000
   240 H117     -7.2137   -0.2004    0.2950   H         1 RES1   0.0000
   241 H118     -5.2786   -2.4691   -0.2312   H         1 RES1   0.0000
   242 H119     -6.9549   -3.1538   -1.8907   H         1 RES1   0.0000
   243 H120     -7.9183   -1.7152   -1.5665   H         1 RES1   0.0000
   244 H121     -7.4343   -3.9349    0.4707   H         1 RES1   0.0000
   245 H122     -8.8455   -3.7669   -0.5655   H         1 RES1   0.0000
   246 H123     -8.5231   -2.5570    0.6547   H         1 RES1   0.0000
   247 H124     -6.1989   -0.5079   -2.3629   H         1 RES1   0.0000
   248 H125     -5.1047   -1.8564   -2.5770   H         1 RES1   0.0000
   249 H126     -3.9595    1.8058   -1.0131   H         1 RES1   0.0000
   250 H127     -5.6607    1.2879   -1.0460   H         1 RES1   0.0000
   251 H128     -5.4947    2.9843   -2.5347   H         1 RES1   0.0000
   252 H129     -3.8270    2.8319   -4.5598   H         1 RES1   0.0000
   253 H130     -2.9180    1.7709   -3.4836   H         1 RES1   0.0000
   254 H131     -3.7609    4.6529   -2.9243   H         1 RES1   0.0000
   255 H132     -2.1334    4.0895   -3.2849   H         1 RES1   0.0000
   256 H133     -2.9112    3.6384   -1.7663   H         1 RES1   0.0000
   257 H134     -6.2650    2.2303   -4.5786   H         1 RES1   0.0000
   258 H135     -6.7389    1.0051   -3.4380   H         1 RES1   0.0000
   259 H136     -4.5535   -0.2614   -4.2457   H         1 RES1   0.0000
   260 H137     -4.5631    0.8910   -5.5633   H         1 RES1   0.0000
   261 H138     -6.8937    0.2071   -6.1360   H         1 RES1   0.0000
   262 H139     -6.8479   -0.9906   -4.8454   H         1 RES1   0.0000
   263 H140     -5.0662   -0.9315   -7.3247   H         1 RES1   0.0000
   264 H141     -6.3571   -2.0756   -6.9816   H         1 RES1   0.0000
   265 H142     -4.8870   -2.0946   -6.0111   H         1 RES1   0.0000
   266 H143     -2.9764   -2.1023   -2.9589   H         1 RES1   0.0000
   267 H144     -3.2734   -2.5722   -1.2654   H         1 RES1   0.0000
   268 H145     -0.9716   -1.4575   -3.6656   H         1 RES1   0.0000
   269 H146     -0.3855   -3.0999   -3.4097   H         1 RES1   0.0000
   270 H147      3.1917   -1.2758   -2.3221   H         1 RES1   0.0000
   271 H148      3.2453    0.2833   -3.1610   H         1 RES1   0.0000
   272 H149      3.9810   -0.8530   -5.2201   H         1 RES1   0.0000
   273 H150      5.6166   -1.6047   -2.7818   H         1 RES1   0.0000
   274 H151      5.3095    0.0652   -3.1418   H         1 RES1   0.0000
   275 H152      6.7768   -1.8978   -4.9530   H         1 RES1   0.0000
   276 H153      7.5306   -0.6870   -3.9296   H         1 RES1   0.0000
   277 H154      6.5475   -0.1816   -5.3003   H         1 RES1   0.0000
   278 H155      4.7916   -3.3021   -3.6902   H         1 RES1   0.0000
   279 H156      4.6935   -3.0334   -5.4059   H         1 RES1   0.0000
   280 H157      2.2655   -3.3749   -5.3531   H         1 RES1   0.0000
   281 H158      2.3373   -3.6036   -3.5971   H         1 RES1   0.0000
   282 H159      4.1621   -5.4048   -4.1035   H         1 RES1   0.0000
   283 H160      3.6551   -5.2759   -5.7817   H         1 RES1   0.0000
   284 H161      1.9063   -6.1833   -3.4534   H         1 RES1   0.0000
   285 H162      2.6409   -7.2012   -4.6946   H         1 RES1   0.0000
   286 H163      1.3776   -6.0603   -5.1447   H         1 RES1   0.0000
   287 H164     -0.0499    0.3917   -3.2937   H         1 RES1   0.0000
   288 H165      1.4805    1.1779   -3.5061   H         1 RES1   0.0000
   289 H166      1.4271    0.9862   -5.8775   H         1 RES1   0.0000
   290 H167      0.3297   -1.2825   -5.8963   H         1 RES1   0.0000
   291 H168     -0.0655   -0.1729   -7.1818   H         1 RES1   0.0000
   292 H169     -2.0100   -1.5474   -5.8503   H         1 RES1   0.0000
   293 H170     -2.3070    0.0321   -6.5625   H         1 RES1   0.0000
   294 H171     -1.9509   -0.0842   -4.8528   H         1 RES1   0.0000
   295 H172      0.3536    2.8022   -4.6973   H         1 RES1   0.0000
   296 H173     -1.1255    1.8748   -4.4842   H         1 RES1   0.0000
   297 H174     -1.9827    2.8204   -6.3051   H         1 RES1   0.0000
   298 H175     -0.7282    2.1204   -7.3129   H         1 RES1   0.0000
   299 H176     -0.1277    4.6435   -5.7487   H         1 RES1   0.0000
   300 H177     -1.1045    4.7543   -7.2042   H         1 RES1   0.0000
   301 H178      1.6397    3.4754   -7.0365   H         1 RES1   0.0000
   302 H179      1.3538    5.0924   -7.6657   H         1 RES1   0.0000
   303 H180      0.7241    3.7065   -8.5298   H         1 RES1   0.0000
   304 H181      0.0186   -3.5879   -0.8948   H         1 RES1   0.0000
   305 H182     -1.5829   -4.2399   -1.3516   H         1 RES1   0.0000
   306 H183     -3.4098   -2.8640    2.1255   H         1 RES1   0.0000
   307 H184     -2.2387   -3.5725    3.2338   H         1 RES1   0.0000
   308 H185     -3.4313   -5.8471    2.8008   H         1 RES1   0.0000
   309 H186     -5.5965   -3.9555    1.8161   H         1 RES1   0.0000
   310 H187     -5.8188   -5.6476    2.2319   H         1 RES1   0.0000
   311 H188     -4.1207   -4.6335   -0.0820   H         1 RES1   0.0000
   312 H189     -5.6750   -5.4555   -0.1723   H         1 RES1   0.0000
   313 H190     -4.2699   -6.3268    0.4090   H         1 RES1   0.0000
   314 H191     -4.9558   -3.6679    4.2506   H         1 RES1   0.0000
   315 H192     -3.5107   -4.4656    4.8633   H         1 RES1   0.0000
   316 H193     -6.2180   -5.7551    4.3397   H         1 RES1   0.0000
   317 H194     -5.4206   -5.4664    5.8755   H         1 RES1   0.0000
   318 H195     -3.5972   -7.0321    5.2312   H         1 RES1   0.0000
   319 H196     -4.4640   -7.4197    3.7404   H         1 RES1   0.0000
   320 H197     -5.5197   -7.8785    6.5606   H         1 RES1   0.0000
   321 H198     -4.9499   -9.1174    5.4406   H         1 RES1   0.0000
   322 H199     -6.4124   -8.2135    5.0782   H         1 RES1   0.0000
   323 H200     -1.9069   -5.8885    0.1081   H         1 RES1   0.0000
   324 H201     -1.8912   -6.0319    1.8597   H         1 RES1   0.0000
   325 H202      0.4030   -5.2668    0.0610   H         1 RES1   0.0000
   326 H203     -0.3021   -7.6794    0.8395   H         1 RES1   0.0000
   327 H204      0.5265   -7.2334    2.3135   H         1 RES1   0.0000
   328 H205      1.6714   -7.2513   -0.5131   H         1 RES1   0.0000
   329 H206      2.1403   -8.2768    0.8322   H         1 RES1   0.0000
   330 H207      2.5281   -6.5655    0.8602   H         1 RES1   0.0000
   331 H208      0.3935   -3.5518    1.7599   H         1 RES1   0.0000
   332 H209      1.7242   -4.6592    1.9732   H         1 RES1   0.0000
   333 H210      0.8106   -5.5487    3.9985   H         1 RES1   0.0000
   334 H211     -0.8187   -5.0637    3.6000   H         1 RES1   0.0000
   335 H212     -0.1731   -2.6612    3.7965   H         1 RES1   0.0000
   336 H213      1.4701   -3.1458    4.2124   H         1 RES1   0.0000
   337 H214      0.1064   -2.6532    6.2654   H         1 RES1   0.0000
   338 H215      0.6324   -4.3320    6.2353   H         1 RES1   0.0000
   339 H216     -1.0203   -3.9354    5.8083   H         1 RES1   0.0000
   340 O7       -1.1394    1.6341    0.6729   O.3       1 RES1   0.0000
   341 H217     -1.1565    2.2151   -0.1062   H         1 RES1   0.0000
   342 H218     -2.0673    1.3905    0.8251   H         1 RES1   0.0000
@<TRIPOS>BOND
     1     1    20    1
     2     1    22    1
     3     1    25    1
     4     1    45    1
     5     1   189    1
     6     1   191    1
     7     1   194    1
     8     1   214    1
     9     1   340    1
    10     2     3    1
    11     2    63    1
    12     2    64    1
    13     2    65    1
    14     3     4    1
    15     3    66    1
    16     3    67    1
    17     4     5    1
    18     4    68    1
    19     4    69    1
    20     5     6    1
    21     5    70    1
    22     5    71    1
    23     6     7    1
    24     6     9    1
    25     6    72    1
    26     7     8    1
    27     7    73    1
    28     7    74    1
    29     8    75    1
    30     8    76    1
    31     8    77    1
    32     9    10    1
    33     9    78    1
    34     9    79    1
    35    10    11    1
    36    10    19    1
    37    11    12    1
    38    11    80    1
    39    11    81    1
    40    12    13    1
    41    12    15    1
    42    12    82    1
    43    13    14    1
    44    13    83    1
    45    13    84    1
    46    14    85    1
    47    14    86    1
    48    14    87    1
    49    15    16    1
    50    15    88    1
    51    15    89    1
    52    16    17    1
    53    16    90    1
    54    16    91    1
    55    17    18    1
    56    17    92    1
    57    17    93    1
    58    18    94    1
    59    18    95    1
    60    18    96    1
    61    19    20    2
    62    19    21    1
    63    21    22    1
    64    21    97    1
    65    21    98    1
    66    22    23    1
    67    22    43    1
    68    23    24    1
    69    23    99    1
    70    23   100    1
    71    24    25    2
    72    24    26    1
    73    26    27    1
    74    26    35    1
    75    27    28    1
    76    27   101    1
    77    27   102    1
    78    28    29    1
    79    28    31    1
    80    28   103    1
    81    29    30    1
    82    29   104    1
    83    29   105    1
    84    30   106    1
    85    30   107    1
    86    30   108    1
    87    31    32    1
    88    31   109    1
    89    31   110    1
    90    32    33    1
    91    32   111    1
    92    32   112    1
    93    33    34    1
    94    33   113    1
    95    33   114    1
    96    34   115    1
    97    34   116    1
    98    34   117    1
    99    35    36    1
   100    35   118    1
   101    35   119    1
   102    36    37    1
   103    36    39    1
   104    36   120    1
   105    37    38    1
   106    37   121    1
   107    37   122    1
   108    38   123    1
   109    38   124    1
   110    38   125    1
   111    39    40    1
   112    39   126    1
   113    39   127    1
   114    40    41    1
   115    40   128    1
   116    40   129    1
   117    41    42    1
   118    41   130    1
   119    41   131    1
   120    42   132    1
   121    42   133    1
   122    42   134    1
   123    43    44    1
   124    43   135    1
   125    43   136    1
   126    44    45    2
   127    44    46    1
   128    46    47    1
   129    46    55    1
   130    47    48    1
   131    47   137    1
   132    47   138    1
   133    48    49    1
   134    48    51    1
   135    48   139    1
   136    49    50    1
   137    49   140    1
   138    49   141    1
   139    50   142    1
   140    50   143    1
   141    50   144    1
   142    51    52    1
   143    51   145    1
   144    51   146    1
   145    52    53    1
   146    52   147    1
   147    52   148    1
   148    53    54    1
   149    53   149    1
   150    53   150    1
   151    54   151    1
   152    54   152    1
   153    54   153    1
   154    55    56    1
   155    55   154    1
   156    55   155    1
   157    56    57    1
   158    56    59    1
   159    56   156    1
   160    57    58    1
   161    57   157    1
   162    57   158    1
   163    58   159    1
   164    58   160    1
   165    58   161    1
   166    59    60    1
   167    59   162    1
   168    59   163    1
   169    60    61    1
   170    60   164    1
   171    60   165    1
   172    61    62    1
   173    61   166    1
   174    61   167    1
   175    62   168    1
   176    62   169    1
   177    62   170    1
   178   171   172    1
   179   171   232    1
   180   171   233    1
   181   171   234    1
   182   172   173    1
   183   172   235    1
   184   172   236    1
   185   173   174    1
   186   173   237    1
   187   173   238    1
   188   174   175    1
   189   174   239    1
   190   174   240    1
   191   175   176    1
   192   175   178    1
   193   175   241    1
   194   176   177    1
   195   176   242    1
   196   176   243    1
   197   177   244    1
   198   177   245    1
   199   177   246    1
   200   178   179    1
   201   178   247    1
   202   178   248    1
   203   179   180    1
   204   179   188    1
   205   180   181    1
   206   180   249    1
   207   180   250    1
   208   181   182    1
   209   181   184    1
   210   181   251    1
   211   182   183    1
   212   182   252    1
   213   182   253    1
   214   183   254    1
   215   183   255    1
   216   183   256    1
   217   184   185    1
   218   184   257    1
   219   184   258    1
   220   185   186    1
   221   185   259    1
   222   185   260    1
   223   186   187    1
   224   186   261    1
   225   186   262    1
   226   187   263    1
   227   187   264    1
   228   187   265    1
   229   188   189    2
   230   188   190    1
   231   190   191    1
   232   190   266    1
   233   190   267    1
   234   191   192    1
   235   191   212    1
   236   192   193    1
   237   192   268    1
   238   192   269    1
   239   193   194    2
   240   193   195    1
   241   195   196    1
   242   195   204    1
   243   196   197    1
   244   196   270    1
   245   196   271    1
   246   197   198    1
   247   197   200    1
   248   197   272    1
   249   198   199    1
   250   198   273    1
   251   198   274    1
   252   199   275    1
   253   199   276    1
   254   199   277    1
   255   200   201    1
   256   200   278    1
   257   200   279    1
   258   201   202    1
   259   201   280    1
   260   201   281    1
   261   202   203    1
   262   202   282    1
   263   202   283    1
   264   203   284    1
   265   203   285    1
   266   203   286    1
   267   204   205    1
   268   204   287    1
   269   204   288    1
   270   205   206    1
   271   205   208    1
   272   205   289    1
   273   206   207    1
   274   206   290    1
   275   206   291    1
   276   207   292    1
   277   207   293    1
   278   207   294    1
   279   208   209    1
   280   208   295    1
   281   208   296    1
   282   209   210    1
   283   209   297    1
   284   209   298    1
   285   210   211    1
   286   210   299    1
   287   210   300    1
   288   211   301    1
   289   211   302    1
   290   211   303    1
   291   212   213    1
   292   212   304    1
   293   212   305    1
   294   213   214    2
   295   213   215    1
   296   215   216    1
   297   215   224    1
   298   216   217    1
   299   216   306    1
   300   216   307    1
   301   217   218    1
   302   217   220    1
   303   217   308    1
   304   218   219    1
   305   218   309    1
   306   218   310    1
   307   219   311    1
   308   219   312    1
   309   219   313    1
   310   220   221    1
   311   220   314    1
   312   220   315    1
   313   221   222    1
   314   221   316    1
   315   221   317    1
   316   222   223    1
   317   222   318    1
   318   222   319    1
   319   223   320    1
   320   223   321    1
   321   223   322    1
   322   224   225    1
   323   224   323    1
   324   224   324    1
   325   225   226    1
   326   225   228    1
   327   225   325    1
   328   226   227    1
   329   226   326    1
   330   226   327    1
   331   227   328    1
   332   227   329    1
   333   227   330    1
   334   228   229    1
   335   228   331    1
   336   228   332    1
   337   229   230    1
   338   229   333    1
   339   229   334    1
   340   230   231    1
   341   230   335    1
   342   230   336    1
   343   231   337    1
   344   231   338    1
   345   231   339    1
   346   340   341    1
   347   340   342    1
@<TRIPOS>SUBSTRUCTURE
     1 RES1      342 GROUP             0 ****  ****    0  
