@<TRIPOS>MOLECULE
am_c3_9H2O_c0_0_nunpairedes_0_charge_3 Charge: 3 Unpaired_Electrons: 6 XTB_Unpaired_Electrons: 0 XTB_Charge: 3
   448   453     1     0     0
SMALL
NoCharges
****
Generated from Architector

@<TRIPOS>ATOM
     1 Eu1      -0.2156    0.1662   -0.2249   Eu        1 RES1   0.0000
     2 C1       -9.7545   -2.6140    7.2861   C.3       1 RES1   0.0000
     3 C2       -8.4830   -2.2435    6.5353   C.3       1 RES1   0.0000
     4 C3       -8.4096   -0.7529    6.2174   C.3       1 RES1   0.0000
     5 C4       -7.0947   -0.3350    5.5499   C.3       1 RES1   0.0000
     6 C5       -6.9264   -0.8651    4.1219   C.3       1 RES1   0.0000
     7 C6       -5.9839   -0.0101    3.2665   C.3       1 RES1   0.0000
     8 C7       -4.4814   -0.1258    3.6074   C.3       1 RES1   0.0000
     9 C8       -3.7991    1.2606    3.5525   C.3       1 RES1   0.0000
    10 N1       -2.4602    1.4310    2.9633   N.am      1 RES1   0.0000
    11 C9       -1.5034    2.2755    3.6991   C.3       1 RES1   0.0000
    12 C10      -0.0278    1.8379    3.7570   C.3       1 RES1   0.0000
    13 C11       0.4398    1.3212    5.1276   C.3       1 RES1   0.0000
    14 C12       1.5744    2.0963    5.8150   C.3       1 RES1   0.0000
    15 C13       2.9828    1.5276    5.5899   C.3       1 RES1   0.0000
    16 C14       3.1934    0.0877    6.0609   C.3       1 RES1   0.0000
    17 C15       4.6337   -0.4115    5.9177   C.3       1 RES1   0.0000
    18 C16       5.1304   -0.5250    4.4788   C.3       1 RES1   0.0000
    19 C17      -2.2740    1.3245    1.6600   C.2       1 RES1   0.0000
    20 O1       -1.2121    1.6856    1.0953   O.2       1 RES1   0.0000
    21 C18      -3.3498    0.6962    0.7869   C.3       1 RES1   0.0000
    22 O2       -2.6627   -0.3328    0.0813   O.3       1 RES1   0.0000
    23 C19      -3.4469   -1.3748   -0.4980   C.3       1 RES1   0.0000
    24 C20      -2.6130   -1.8118   -1.6910   C.2       1 RES1   0.0000
    25 O3       -1.6401   -1.0650   -1.9668   O.2       1 RES1   0.0000
    26 N2       -2.8893   -2.8877   -2.4070   N.am      1 RES1   0.0000
    27 C21      -3.7654   -4.0199   -2.1194   C.3       1 RES1   0.0000
    28 C22      -3.1754   -5.3432   -2.6820   C.3       1 RES1   0.0000
    29 C23      -2.9266   -6.3905   -1.5835   C.3       1 RES1   0.0000
    30 C24      -1.9167   -7.4844   -1.9604   C.3       1 RES1   0.0000
    31 C25      -0.4390   -7.0697   -1.8624   C.3       1 RES1   0.0000
    32 C26       0.3270   -7.5594   -0.6140   C.3       1 RES1   0.0000
    33 C27       1.1475   -6.4531    0.0464   C.3       1 RES1   0.0000
    34 N3        1.7133   -6.8559    1.3280   N.am      1 RES1   0.0000
    35 C28       2.0475   -5.9766    2.2861   C.2       1 RES1   0.0000
    36 O4        1.8318   -4.7736    2.1842   O.2       1 RES1   0.0000
    37 C29       2.7174   -6.5953    3.5293   C.3       1 RES1   0.0000
    38 O5        2.4490   -5.8766    4.7120   O.3       1 RES1   0.0000
    39 C30       3.3866   -4.8975    5.1135   C.3       1 RES1   0.0000
    40 C31       3.8618   -4.7750    6.5800   C.2       1 RES1   0.0000
    41 O6        4.2305   -3.6515    6.8897   O.2       1 RES1   0.0000
    42 N4        4.0422   -5.8512    7.3579   N.am      1 RES1   0.0000
    43 C32       3.2672   -7.0744    7.2762   C.3       1 RES1   0.0000
    44 C33       2.4074   -7.3166    8.5263   C.3       1 RES1   0.0000
    45 C34       1.0559   -6.6060    8.5106   C.3       1 RES1   0.0000
    46 C35       0.0355   -7.2618    7.5760   C.3       1 RES1   0.0000
    47 C36      -1.4069   -7.0257    8.0300   C.3       1 RES1   0.0000
    48 C37      -2.4362   -7.7771    7.1815   C.3       1 RES1   0.0000
    49 C38      -3.8187   -7.7995    7.8378   C.3       1 RES1   0.0000
    50 C39      -4.9044   -8.3210    6.9017   C.3       1 RES1   0.0000
    51 C40       5.0178   -5.7983    8.4497   C.3       1 RES1   0.0000
    52 C41       6.3860   -5.2349    8.0355   C.3       1 RES1   0.0000
    53 C42       6.9119   -5.7499    6.6862   C.3       1 RES1   0.0000
    54 C43       7.5043   -4.6142    5.8476   C.3       1 RES1   0.0000
    55 C44       7.5313   -4.9055    4.3485   C.3       1 RES1   0.0000
    56 C45       8.1770   -3.7490    3.5873   C.3       1 RES1   0.0000
    57 C46       7.9634   -3.8345    2.0778   C.3       1 RES1   0.0000
    58 C47       8.6625   -2.6855    1.3611   C.3       1 RES1   0.0000
    59 H1       -9.7740   -3.6794    7.5041   H         1 RES1   0.0000
    60 H2      -10.6375   -2.3649    6.7039   H         1 RES1   0.0000
    61 H3       -9.8092   -2.0753    8.2282   H         1 RES1   0.0000
    62 H4       -8.4280   -2.8211    5.6109   H         1 RES1   0.0000
    63 H5       -7.6263   -2.5081    7.1556   H         1 RES1   0.0000
    64 H6       -8.5070   -0.1966    7.1526   H         1 RES1   0.0000
    65 H7       -9.2545   -0.4733    5.5839   H         1 RES1   0.0000
    66 H8       -6.2692   -0.6717    6.1821   H         1 RES1   0.0000
    67 H9       -7.0652    0.7562    5.5203   H         1 RES1   0.0000
    68 H10      -7.9059   -0.8428    3.6377   H         1 RES1   0.0000
    69 H11      -6.5896   -1.9035    4.1289   H         1 RES1   0.0000
    70 H12      -6.2975    1.0292    3.3770   H         1 RES1   0.0000
    71 H13      -6.1465   -0.2878    2.2238   H         1 RES1   0.0000
    72 H14      -4.0011   -0.8679    2.9681   H         1 RES1   0.0000
    73 H15      -4.3994   -0.4924    4.6259   H         1 RES1   0.0000
    74 H16      -3.7170    1.5955    4.5767   H         1 RES1   0.0000
    75 H17      -4.4588    1.9681    3.0428   H         1 RES1   0.0000
    76 H18      -1.8922    2.3876    4.7077   H         1 RES1   0.0000
    77 H19      -1.5311    3.2527    3.2128   H         1 RES1   0.0000
    78 H20       0.5669    2.7152    3.4934   H         1 RES1   0.0000
    79 H21       0.1313    1.0897    2.9839   H         1 RES1   0.0000
    80 H22       0.7840    0.2996    5.0166   H         1 RES1   0.0000
    81 H23      -0.4068    1.2965    5.8077   H         1 RES1   0.0000
    82 H24       1.3940    2.0957    6.8908   H         1 RES1   0.0000
    83 H25       1.5729    3.1390    5.4876   H         1 RES1   0.0000
    84 H26       3.6856    2.1585    6.1372   H         1 RES1   0.0000
    85 H27       3.2446    1.6037    4.5328   H         1 RES1   0.0000
    86 H28       2.5443   -0.6038    5.5182   H         1 RES1   0.0000
    87 H29       2.9173    0.0209    7.1135   H         1 RES1   0.0000
    88 H30       4.6825   -1.3998    6.3780   H         1 RES1   0.0000
    89 H31       5.2962    0.2521    6.4735   H         1 RES1   0.0000
    90 H32       4.5112   -1.2085    3.8980   H         1 RES1   0.0000
    91 H33       6.1421   -0.9200    4.4839   H         1 RES1   0.0000
    92 H34       5.1546    0.4424    3.9781   H         1 RES1   0.0000
    93 H35      -3.6993    1.4740    0.0955   H         1 RES1   0.0000
    94 H36      -4.1954    0.3214    1.3501   H         1 RES1   0.0000
    95 H37      -4.4124   -1.0092   -0.8630   H         1 RES1   0.0000
    96 H38      -3.6238   -2.1670    0.2464   H         1 RES1   0.0000
    97 H39      -2.3300   -3.0106   -3.2445   H         1 RES1   0.0000
    98 H40      -4.7492   -3.7975   -2.5498   H         1 RES1   0.0000
    99 H41      -3.8775   -4.0957   -1.0341   H         1 RES1   0.0000
   100 H42      -2.2211   -5.1542   -3.1777   H         1 RES1   0.0000
   101 H43      -3.8473   -5.7618   -3.4333   H         1 RES1   0.0000
   102 H44      -3.8777   -6.8588   -1.3205   H         1 RES1   0.0000
   103 H45      -2.5514   -5.8688   -0.7100   H         1 RES1   0.0000
   104 H46      -2.1174   -7.8082   -2.9775   H         1 RES1   0.0000
   105 H47      -2.0840   -8.3466   -1.3235   H         1 RES1   0.0000
   106 H48      -0.3984   -5.9911   -1.8936   H         1 RES1   0.0000
   107 H49       0.0616   -7.4337   -2.7590   H         1 RES1   0.0000
   108 H50       1.0113   -8.3612   -0.8958   H         1 RES1   0.0000
   109 H51      -0.3757   -7.9608    0.1150   H         1 RES1   0.0000
   110 H52       1.9515   -6.1465   -0.6241   H         1 RES1   0.0000
   111 H53       0.5241   -5.5839    0.2253   H         1 RES1   0.0000
   112 H54       1.9428   -7.8334    1.4346   H         1 RES1   0.0000
   113 H55       3.8026   -6.6702    3.3356   H         1 RES1   0.0000
   114 H56       2.3366   -7.6151    3.6854   H         1 RES1   0.0000
   115 H57       3.0138   -3.9035    4.8417   H         1 RES1   0.0000
   116 H58       4.3339   -5.0405    4.5784   H         1 RES1   0.0000
   117 H59       3.9612   -7.9145    7.1573   H         1 RES1   0.0000
   118 H60       2.6197   -7.0071    6.4069   H         1 RES1   0.0000
   119 H61       2.9504   -6.9911    9.4117   H         1 RES1   0.0000
   120 H62       2.2605   -8.3936    8.6096   H         1 RES1   0.0000
   121 H63       1.2099   -5.5569    8.2507   H         1 RES1   0.0000
   122 H64       0.6546   -6.6333    9.5239   H         1 RES1   0.0000
   123 H65       0.2084   -8.3389    7.5711   H         1 RES1   0.0000
   124 H66       0.1650   -6.9024    6.5523   H         1 RES1   0.0000
   125 H67      -1.6305   -5.9561    8.0092   H         1 RES1   0.0000
   126 H68      -1.5096   -7.3555    9.0647   H         1 RES1   0.0000
   127 H69      -2.5025   -7.3039    6.1977   H         1 RES1   0.0000
   128 H70      -2.1028   -8.8055    7.0307   H         1 RES1   0.0000
   129 H71      -4.0730   -6.7903    8.1647   H         1 RES1   0.0000
   130 H72      -3.7826   -8.4324    8.7259   H         1 RES1   0.0000
   131 H73      -4.9554   -7.7208    5.9931   H         1 RES1   0.0000
   132 H74      -5.8757   -8.2775    7.3896   H         1 RES1   0.0000
   133 H75      -4.7059   -9.3522    6.6179   H         1 RES1   0.0000
   134 H76       5.1447   -6.8264    8.7922   H         1 RES1   0.0000
   135 H77       4.6364   -5.1980    9.2837   H         1 RES1   0.0000
   136 H78       7.0895   -5.4709    8.8365   H         1 RES1   0.0000
   137 H79       6.2942   -4.1520    7.9798   H         1 RES1   0.0000
   138 H80       6.0950   -6.2020    6.1215   H         1 RES1   0.0000
   139 H81       7.6685   -6.5193    6.8404   H         1 RES1   0.0000
   140 H82       8.5199   -4.4058    6.1849   H         1 RES1   0.0000
   141 H83       6.9108   -3.7099    6.0039   H         1 RES1   0.0000
   142 H84       6.5087   -5.0518    3.9843   H         1 RES1   0.0000
   143 H85       8.0797   -5.8291    4.1553   H         1 RES1   0.0000
   144 H86       9.2463   -3.7468    3.8042   H         1 RES1   0.0000
   145 H87       7.7651   -2.8045    3.9561   H         1 RES1   0.0000
   146 H88       6.8892   -3.8080    1.8594   H         1 RES1   0.0000
   147 H89       8.3549   -4.7869    1.7136   H         1 RES1   0.0000
   148 H90       8.2787   -1.7258    1.7048   H         1 RES1   0.0000
   149 H91       8.5215   -2.7463    0.2839   H         1 RES1   0.0000
   150 H92       9.7291   -2.7143    1.5670   H         1 RES1   0.0000
   151 C48       9.4127   -6.9510   -1.6590   C.3       1 RES1   0.0000
   152 C49       8.7613   -5.6294   -2.0433   C.3       1 RES1   0.0000
   153 C50       7.8894   -5.7372   -3.2958   C.3       1 RES1   0.0000
   154 C51       7.2325   -4.3963   -3.6251   C.3       1 RES1   0.0000
   155 C52       6.1251   -4.5067   -4.6741   C.3       1 RES1   0.0000
   156 C53       5.4440   -3.1799   -5.0497   C.3       1 RES1   0.0000
   157 C54       4.2820   -2.7375   -4.1504   C.3       1 RES1   0.0000
   158 C55       4.7357   -2.0948   -2.8305   C.3       1 RES1   0.0000
   159 N5        3.7527   -2.1888   -1.7570   N.am      1 RES1   0.0000
   160 C56       3.9610   -3.2884   -0.8099   C.3       1 RES1   0.0000
   161 C57       4.0332   -4.6745   -1.4647   C.3       1 RES1   0.0000
   162 C58       4.5876   -5.7291   -0.4964   C.3       1 RES1   0.0000
   163 C59       4.4722   -7.1532   -1.0574   C.3       1 RES1   0.0000
   164 C60       4.7256   -8.2414   -0.0047   C.3       1 RES1   0.0000
   165 C61       4.0419   -9.5682   -0.3583   C.3       1 RES1   0.0000
   166 C62       3.8830  -10.4977    0.8462   C.3       1 RES1   0.0000
   167 C63       3.0825  -11.7487    0.4989   C.3       1 RES1   0.0000
   168 C64       2.7672   -1.3153   -1.5970   C.2       1 RES1   0.0000
   169 O7        1.8942   -1.3836   -0.7119   O.2       1 RES1   0.0000
   170 C65       2.7070   -0.1124   -2.5551   C.3       1 RES1   0.0000
   171 O8        1.4942    0.5692   -2.2703   O.3       1 RES1   0.0000
   172 C66       1.4373    1.8655   -2.8441   C.3       1 RES1   0.0000
   173 C67       0.0651    2.4522   -2.4870   C.2       1 RES1   0.0000
   174 O9       -0.6952    1.8376   -1.7317   O.2       1 RES1   0.0000
   175 N6       -0.2571    3.6335   -3.0070   N.am      1 RES1   0.0000
   176 C68       0.4082    4.3441   -4.0879   C.3       1 RES1   0.0000
   177 C69      -0.2287    4.0635   -5.4554   C.3       1 RES1   0.0000
   178 C70       0.1361    2.7119   -6.0742   C.3       1 RES1   0.0000
   179 C71      -0.6044    1.5225   -5.4612   C.3       1 RES1   0.0000
   180 C72       0.0521    0.1773   -5.7739   C.3       1 RES1   0.0000
   181 C73      -0.6067   -0.9642   -4.9819   C.3       1 RES1   0.0000
   182 C74       0.3563   -2.1063   -4.5973   C.3       1 RES1   0.0000
   183 N7        0.4308   -2.2970   -3.1483   N.am      1 RES1   0.0000
   184 C75      -0.0394   -3.4176   -2.5549   C.2       1 RES1   0.0000
   185 O10      -0.3149   -4.4071   -3.1949   O.2       1 RES1   0.0000
   186 C76      -0.1114   -3.3750   -1.0035   C.3       1 RES1   0.0000
   187 O11      -1.1750   -4.1342   -0.4525   O.3       1 RES1   0.0000
   188 C77      -1.2808   -3.9388    0.9561   C.3       1 RES1   0.0000
   189 C78      -2.6067   -4.1944    1.7283   C.2       1 RES1   0.0000
   190 O12      -3.3048   -3.2038    1.9274   O.2       1 RES1   0.0000
   191 N8       -2.8183   -5.3680    2.3391   N.am      1 RES1   0.0000
   192 C79      -3.3639   -5.4533    3.7037   C.3       1 RES1   0.0000
   193 C80      -4.2922   -4.3984    4.3018   C.3       1 RES1   0.0000
   194 C81      -4.3235   -4.6917    5.8105   C.3       1 RES1   0.0000
   195 C82      -5.0132   -3.6469    6.6774   C.3       1 RES1   0.0000
   196 C83      -4.7468   -3.8967    8.1622   C.3       1 RES1   0.0000
   197 C84      -5.2806   -2.7569    9.0363   C.3       1 RES1   0.0000
   198 C85      -4.3038   -2.4028   10.1584   C.3       1 RES1   0.0000
   199 C86      -4.7514   -1.1921   10.9723   C.3       1 RES1   0.0000
   200 C87      -2.1730   -6.6183    1.9516   C.3       1 RES1   0.0000
   201 C88      -3.1908   -7.7602    1.7686   C.3       1 RES1   0.0000
   202 C89      -2.5862   -9.1290    1.4229   C.3       1 RES1   0.0000
   203 C90      -3.4825   -9.8706    0.4258   C.3       1 RES1   0.0000
   204 C91      -2.9406  -11.2316   -0.0236   C.3       1 RES1   0.0000
   205 C92      -1.8177  -11.1447   -1.0629   C.3       1 RES1   0.0000
   206 C93      -2.3390  -10.8857   -2.4762   C.3       1 RES1   0.0000
   207 C94      -1.2036  -10.6359   -3.4610   C.3       1 RES1   0.0000
   208 H93       9.9994   -6.8300   -0.7505   H         1 RES1   0.0000
   209 H94      10.0780   -7.2908   -2.4487   H         1 RES1   0.0000
   210 H95       8.6564   -7.7152   -1.4884   H         1 RES1   0.0000
   211 H96       9.5402   -4.8844   -2.2124   H         1 RES1   0.0000
   212 H97       8.1486   -5.2729   -1.2091   H         1 RES1   0.0000
   213 H98       7.1151   -6.4920   -3.1402   H         1 RES1   0.0000
   214 H99       8.4942   -6.0628   -4.1409   H         1 RES1   0.0000
   215 H100      7.9926   -3.7051   -3.9902   H         1 RES1   0.0000
   216 H101      6.8501   -3.9924   -2.6874   H         1 RES1   0.0000
   217 H102      5.3761   -5.2362   -4.3532   H         1 RES1   0.0000
   218 H103      6.5834   -4.9112   -5.5774   H         1 RES1   0.0000
   219 H104      5.0315   -3.3005   -6.0533   H         1 RES1   0.0000
   220 H105      6.1845   -2.3784   -5.0879   H         1 RES1   0.0000
   221 H106      3.6349   -3.5886   -3.9503   H         1 RES1   0.0000
   222 H107      3.6874   -2.0117   -4.7057   H         1 RES1   0.0000
   223 H108      4.9996   -1.0519   -3.0060   H         1 RES1   0.0000
   224 H109      5.6332   -2.5931   -2.4731   H         1 RES1   0.0000
   225 H110      3.1534   -3.2523   -0.0747   H         1 RES1   0.0000
   226 H111      4.9050   -3.0910   -0.2891   H         1 RES1   0.0000
   227 H112      4.6866   -4.6537   -2.3335   H         1 RES1   0.0000
   228 H113      3.0337   -4.9604   -1.8001   H         1 RES1   0.0000
   229 H114      4.0630   -5.6720    0.4610   H         1 RES1   0.0000
   230 H115      5.6388   -5.5095   -0.3044   H         1 RES1   0.0000
   231 H116      5.1697   -7.2742   -1.8869   H         1 RES1   0.0000
   232 H117      3.4723   -7.3059   -1.4671   H         1 RES1   0.0000
   233 H118      4.3466   -7.8968    0.9629   H         1 RES1   0.0000
   234 H119      5.7983   -8.4029    0.1058   H         1 RES1   0.0000
   235 H120      4.6203  -10.0846   -1.1245   H         1 RES1   0.0000
   236 H121      3.0506   -9.3636   -0.7771   H         1 RES1   0.0000
   237 H122      3.3823   -9.9604    1.6588   H         1 RES1   0.0000
   238 H123      4.8642  -10.7970    1.2164   H         1 RES1   0.0000
   239 H124      2.0956  -11.4820    0.1222   H         1 RES1   0.0000
   240 H125      2.9595  -12.3791    1.3772   H         1 RES1   0.0000
   241 H126      3.5943  -12.3308   -0.2640   H         1 RES1   0.0000
   242 H127      2.7271   -0.4226   -3.6104   H         1 RES1   0.0000
   243 H128      3.5565    0.5589   -2.3548   H         1 RES1   0.0000
   244 H129      1.5571    1.8023   -3.9319   H         1 RES1   0.0000
   245 H130      2.2352    2.5040   -2.4359   H         1 RES1   0.0000
   246 H131     -1.2037    3.9446   -2.8055   H         1 RES1   0.0000
   247 H132      1.4694    4.0926   -4.0926   H         1 RES1   0.0000
   248 H133      0.3323    5.4100   -3.8610   H         1 RES1   0.0000
   249 H134      0.1267    4.8439   -6.1260   H         1 RES1   0.0000
   250 H135     -1.3143    4.1517   -5.3803   H         1 RES1   0.0000
   251 H136      1.2157    2.5650   -5.9990   H         1 RES1   0.0000
   252 H137     -0.0968    2.7494   -7.1375   H         1 RES1   0.0000
   253 H138     -1.6302    1.5227   -5.8189   H         1 RES1   0.0000
   254 H139     -0.6632    1.6212   -4.3809   H         1 RES1   0.0000
   255 H140      1.1178    0.2422   -5.5290   H         1 RES1   0.0000
   256 H141     -0.0197   -0.0189   -6.8431   H         1 RES1   0.0000
   257 H142     -1.4410   -1.3540   -5.5653   H         1 RES1   0.0000
   258 H143     -1.0229   -0.5488   -4.0593   H         1 RES1   0.0000
   259 H144      1.3603   -1.8786   -4.9675   H         1 RES1   0.0000
   260 H145      0.0573   -3.0605   -5.0394   H         1 RES1   0.0000
   261 H146      0.4714   -1.4412   -2.6043   H         1 RES1   0.0000
   262 H147     -0.2089   -2.3251   -0.6473   H         1 RES1   0.0000
   263 H148      0.8642   -3.7301   -0.6336   H         1 RES1   0.0000
   264 H149     -1.1574   -2.8618    1.1156   H         1 RES1   0.0000
   265 H150     -0.4811   -4.4745    1.4893   H         1 RES1   0.0000
   266 H151     -3.8808   -6.4062    3.8091   H         1 RES1   0.0000
   267 H152     -2.4726   -5.5057    4.3452   H         1 RES1   0.0000
   268 H153     -5.2920   -4.4717    3.8707   H         1 RES1   0.0000
   269 H154     -3.9365   -3.3839    4.1278   H         1 RES1   0.0000
   270 H155     -3.2912   -4.7841    6.1661   H         1 RES1   0.0000
   271 H156     -4.8097   -5.6515    5.9791   H         1 RES1   0.0000
   272 H157     -4.6297   -2.6536    6.4319   H         1 RES1   0.0000
   273 H158     -6.0874   -3.6545    6.5018   H         1 RES1   0.0000
   274 H159     -3.6686   -3.9854    8.3221   H         1 RES1   0.0000
   275 H160     -5.1901   -4.8421    8.4744   H         1 RES1   0.0000
   276 H161     -6.2522   -3.0230    9.4553   H         1 RES1   0.0000
   277 H162     -5.4253   -1.8705    8.4153   H         1 RES1   0.0000
   278 H163     -3.3189   -2.1875    9.7275   H         1 RES1   0.0000
   279 H164     -4.1850   -3.2576   10.8246   H         1 RES1   0.0000
   280 H165     -4.9927   -0.3579   10.3132   H         1 RES1   0.0000
   281 H166     -3.9601   -0.8770   11.6534   H         1 RES1   0.0000
   282 H167     -5.6365   -1.4193   11.5630   H         1 RES1   0.0000
   283 H168     -1.4475   -6.8990    2.7250   H         1 RES1   0.0000
   284 H169     -1.6563   -6.4461    1.0109   H         1 RES1   0.0000
   285 H170     -3.8873   -7.4852    0.9772   H         1 RES1   0.0000
   286 H171     -3.7684   -7.9006    2.6779   H         1 RES1   0.0000
   287 H172     -2.4640   -9.7265    2.3284   H         1 RES1   0.0000
   288 H173     -1.5951   -9.0041    0.9964   H         1 RES1   0.0000
   289 H174     -3.6237   -9.2454   -0.4588   H         1 RES1   0.0000
   290 H175     -4.4640  -10.0175    0.8818   H         1 RES1   0.0000
   291 H176     -3.7714  -11.7926   -0.4566   H         1 RES1   0.0000
   292 H177     -2.5855  -11.7849    0.8477   H         1 RES1   0.0000
   293 H178     -1.2618  -12.0839   -1.0729   H         1 RES1   0.0000
   294 H179     -1.1121  -10.3595   -0.7789   H         1 RES1   0.0000
   295 H180     -3.0082  -10.0250   -2.4789   H         1 RES1   0.0000
   296 H181     -2.9209  -11.7458   -2.8086   H         1 RES1   0.0000
   297 H182     -0.6555   -9.7338   -3.1946   H         1 RES1   0.0000
   298 H183     -1.5950  -10.5246   -4.4694   H         1 RES1   0.0000
   299 H184     -0.5070  -11.4705   -3.4597   H         1 RES1   0.0000
   300 C95       9.5271    7.5070    1.0106   C.3       1 RES1   0.0000
   301 C96       8.4774    6.4131    1.1454   C.3       1 RES1   0.0000
   302 C97       7.6673    6.5489    2.4333   C.3       1 RES1   0.0000
   303 C98       6.6008    5.4603    2.5359   C.3       1 RES1   0.0000
   304 C99       5.8128    5.5355    3.8424   C.3       1 RES1   0.0000
   305 C100      4.9618    4.3016    4.1535   C.3       1 RES1   0.0000
   306 C101      3.8016    4.0915    3.1786   C.3       1 RES1   0.0000
   307 C102      4.2030    3.2758    1.9459   C.3       1 RES1   0.0000
   308 N9        3.1017    3.0459    1.0195   N.am      1 RES1   0.0000
   309 C103      2.8300    4.0999    0.0354   C.3       1 RES1   0.0000
   310 C104      2.5662    5.4935    0.6035   C.3       1 RES1   0.0000
   311 C105      2.0702    6.4564   -0.4773   C.3       1 RES1   0.0000
   312 C106      1.8272    7.8490    0.1072   C.3       1 RES1   0.0000
   313 C107      1.4082    8.8639   -0.9541   C.3       1 RES1   0.0000
   314 C108      1.1010   10.2274   -0.3361   C.3       1 RES1   0.0000
   315 C109      0.7332   11.2679   -1.3913   C.3       1 RES1   0.0000
   316 C110      0.3397   12.5958   -0.7585   C.3       1 RES1   0.0000
   317 C111      2.3928    1.9248    0.9337   C.2       1 RES1   0.0000
   318 O13       1.4793    1.7810    0.1000   O.2       1 RES1   0.0000
   319 C112      2.7180    0.7250    1.8310   C.3       1 RES1   0.0000
   320 O14       1.6592   -0.1959    1.6344   O.3       1 RES1   0.0000
   321 C113      1.5406   -1.2588    2.5777   C.3       1 RES1   0.0000
   322 C114      0.0365   -1.4971    2.6978   C.2       1 RES1   0.0000
   323 O15      -0.6837   -0.9576    1.8303   O.2       1 RES1   0.0000
   324 N10      -0.4999   -2.2347    3.6531   N.am      1 RES1   0.0000
   325 C115      0.1522   -3.1759    4.5442   C.3       1 RES1   0.0000
   326 C116     -0.4292   -3.1311    5.9543   C.3       1 RES1   0.0000
   327 C117     -0.1070   -1.8084    6.6512   C.3       1 RES1   0.0000
   328 C118     -1.2707   -1.1399    7.3788   C.3       1 RES1   0.0000
   329 C119     -2.3928   -0.6415    6.4662   C.3       1 RES1   0.0000
   330 C120     -3.4050    0.2208    7.2272   C.3       1 RES1   0.0000
   331 C121     -2.9274    1.6052    7.6828   C.3       1 RES1   0.0000
   332 N11      -2.9013    2.6637    6.6664   N.am      1 RES1   0.0000
   333 C122     -4.0575    3.2068    6.1754   C.2       1 RES1   0.0000
   334 O16      -5.1458    2.7236    6.3628   O.2       1 RES1   0.0000
   335 C123     -3.8567    4.4622    5.2878   C.3       1 RES1   0.0000
   336 O17      -3.5816    4.0598    3.9506   O.3       1 RES1   0.0000
   337 C124     -3.7852    5.0230    2.9355   C.3       1 RES1   0.0000
   338 C125     -4.2164    4.3399    1.6251   C.2       1 RES1   0.0000
   339 O18      -4.9417    3.3613    1.6473   O.2       1 RES1   0.0000
   340 N12      -3.8421    4.8910    0.4455   N.am      1 RES1   0.0000
   341 C126     -4.6363    4.6127   -0.7478   C.3       1 RES1   0.0000
   342 C127     -4.0725    3.5033   -1.6563   C.3       1 RES1   0.0000
   343 C128     -4.4293    3.7327   -3.1299   C.3       1 RES1   0.0000
   344 C129     -4.3978    2.4578   -3.9804   C.3       1 RES1   0.0000
   345 C130     -4.7167    2.7819   -5.4452   C.3       1 RES1   0.0000
   346 C131     -5.1887    1.5933   -6.2870   C.3       1 RES1   0.0000
   347 C132     -4.1344    0.5127   -6.5216   C.3       1 RES1   0.0000
   348 C133     -4.5757   -0.4600   -7.6097   C.3       1 RES1   0.0000
   349 C134     -2.7908    5.8758    0.3004   C.3       1 RES1   0.0000
   350 C135     -3.2538    7.3099    0.6093   C.3       1 RES1   0.0000
   351 C136     -2.2169    8.1302    1.3812   C.3       1 RES1   0.0000
   352 C137     -2.8889    9.0837    2.3668   C.3       1 RES1   0.0000
   353 C138     -1.9060    9.8236    3.2779   C.3       1 RES1   0.0000
   354 C139     -0.9368    8.9357    4.0661   C.3       1 RES1   0.0000
   355 C140     -1.6326    7.9183    4.9696   C.3       1 RES1   0.0000
   356 C141     -0.6330    7.0454    5.7226   C.3       1 RES1   0.0000
   357 H185     10.1038    7.3728    0.0988   H         1 RES1   0.0000
   358 H186     10.2140    7.4833    1.8527   H         1 RES1   0.0000
   359 H187      9.0532    8.4852    0.9812   H         1 RES1   0.0000
   360 H188      8.9680    5.4373    1.1356   H         1 RES1   0.0000
   361 H189      7.8002    6.4508    0.2874   H         1 RES1   0.0000
   362 H190      7.1946    7.5320    2.4691   H         1 RES1   0.0000
   363 H191      8.3366    6.4801    3.2910   H         1 RES1   0.0000
   364 H192      7.0904    4.4859    2.4681   H         1 RES1   0.0000
   365 H193      5.9349    5.5654    1.6750   H         1 RES1   0.0000
   366 H194      5.1810    6.4266    3.8322   H         1 RES1   0.0000
   367 H195      6.5252    5.6574    4.6589   H         1 RES1   0.0000
   368 H196      4.5373    4.4415    5.1480   H         1 RES1   0.0000
   369 H197      5.5963    3.4132    4.1844   H         1 RES1   0.0000
   370 H198      3.4285    5.0670    2.8865   H         1 RES1   0.0000
   371 H199      2.9854    3.5704    3.6762   H         1 RES1   0.0000
   372 H200      4.6185    2.3216    2.2719   H         1 RES1   0.0000
   373 H201      4.9781    3.7908    1.3806   H         1 RES1   0.0000
   374 H202      1.9430    3.7796   -0.5175   H         1 RES1   0.0000
   375 H203      3.6843    4.1473   -0.6493   H         1 RES1   0.0000
   376 H204      3.4777    5.9148    1.0301   H         1 RES1   0.0000
   377 H205      1.8066    5.4222    1.3832   H         1 RES1   0.0000
   378 H206      1.1435    6.0820   -0.9219   H         1 RES1   0.0000
   379 H207      2.8135    6.5325   -1.2734   H         1 RES1   0.0000
   380 H208      2.7395    8.2048    0.5906   H         1 RES1   0.0000
   381 H209      1.0508    7.7976    0.8734   H         1 RES1   0.0000
   382 H210      0.5259    8.4969   -1.4876   H         1 RES1   0.0000
   383 H211      2.2139    8.9713   -1.6832   H         1 RES1   0.0000
   384 H212      1.9759   10.5760    0.2160   H         1 RES1   0.0000
   385 H213      0.2803   10.1227    0.3800   H         1 RES1   0.0000
   386 H214     -0.0945   10.8911   -1.9966   H         1 RES1   0.0000
   387 H215      1.5838   11.4247   -2.0575   H         1 RES1   0.0000
   388 H216     -0.5334   12.4724   -0.1218   H         1 RES1   0.0000
   389 H217      0.1048   13.3299   -1.5239   H         1 RES1   0.0000
   390 H218      1.1513   12.9895   -0.1516   H         1 RES1   0.0000
   391 H219      2.7826    1.0260    2.8828   H         1 RES1   0.0000
   392 H220      3.6670    0.2685    1.5097   H         1 RES1   0.0000
   393 H221      2.0006   -0.9913    3.5337   H         1 RES1   0.0000
   394 H222      2.0240   -2.1649    2.1869   H         1 RES1   0.0000
   395 H223     -1.5170   -2.2795    3.6249   H         1 RES1   0.0000
   396 H224      1.2177   -2.9542    4.5571   H         1 RES1   0.0000
   397 H225      0.0374   -4.1814    4.1280   H         1 RES1   0.0000
   398 H226      0.0024   -3.9641    6.5075   H         1 RES1   0.0000
   399 H227     -1.5073   -3.2751    5.9091   H         1 RES1   0.0000
   400 H228      0.2456   -1.1136    5.8984   H         1 RES1   0.0000
   401 H229      0.7091   -1.9524    7.3582   H         1 RES1   0.0000
   402 H230     -0.8482   -0.2923    7.9198   H         1 RES1   0.0000
   403 H231     -1.6867   -1.8215    8.1191   H         1 RES1   0.0000
   404 H232     -2.9381   -1.4957    6.0592   H         1 RES1   0.0000
   405 H233     -1.9787   -0.0895    5.6219   H         1 RES1   0.0000
   406 H234     -3.6862   -0.3146    8.1344   H         1 RES1   0.0000
   407 H235     -4.3100    0.3380    6.6356   H         1 RES1   0.0000
   408 H236     -1.9183    1.5330    8.0862   H         1 RES1   0.0000
   409 H237     -3.5886    1.9321    8.4885   H         1 RES1   0.0000
   410 H238     -2.0873    3.2587    6.7076   H         1 RES1   0.0000
   411 H239     -3.0326    5.0707    5.6952   H         1 RES1   0.0000
   412 H240     -4.7889    5.0406    5.3280   H         1 RES1   0.0000
   413 H241     -2.8980    5.6599    2.8198   H         1 RES1   0.0000
   414 H242     -4.6314    5.6721    3.2004   H         1 RES1   0.0000
   415 H243     -4.7104    5.5493   -1.3070   H         1 RES1   0.0000
   416 H244     -5.6419    4.3341   -0.4238   H         1 RES1   0.0000
   417 H245     -4.5044    2.5504   -1.3474   H         1 RES1   0.0000
   418 H246     -2.9877    3.4364   -1.5257   H         1 RES1   0.0000
   419 H247     -3.7605    4.4792   -3.5671   H         1 RES1   0.0000
   420 H248     -5.4417    4.1375   -3.1798   H         1 RES1   0.0000
   421 H249     -5.1555    1.7705   -3.5992   H         1 RES1   0.0000
   422 H250     -3.4271    1.9595   -3.8929   H         1 RES1   0.0000
   423 H251     -3.8447    3.2391   -5.9223   H         1 RES1   0.0000
   424 H252     -5.5182    3.5248   -5.4555   H         1 RES1   0.0000
   425 H253     -5.5000    1.9851   -7.2580   H         1 RES1   0.0000
   426 H254     -6.0679    1.1479   -5.8155   H         1 RES1   0.0000
   427 H255     -3.9431   -0.0269   -5.5895   H         1 RES1   0.0000
   428 H256     -3.2013    0.9829   -6.8429   H         1 RES1   0.0000
   429 H257     -5.5236   -0.9277   -7.3530   H         1 RES1   0.0000
   430 H258     -3.8336   -1.2417   -7.7588   H         1 RES1   0.0000
   431 H259     -4.7025    0.0693   -8.5517   H         1 RES1   0.0000
   432 H260     -2.4222    5.8109   -0.7253   H         1 RES1   0.0000
   433 H261     -1.9657    5.5859    0.9563   H         1 RES1   0.0000
   434 H262     -4.1685    7.2453    1.2007   H         1 RES1   0.0000
   435 H263     -3.5079    7.8248   -0.3157   H         1 RES1   0.0000
   436 H264     -1.6037    8.7019    0.6848   H         1 RES1   0.0000
   437 H265     -1.5569    7.4570    1.9327   H         1 RES1   0.0000
   438 H266     -3.5952    8.5226    2.9823   H         1 RES1   0.0000
   439 H267     -3.4681    9.8244    1.8115   H         1 RES1   0.0000
   440 H268     -2.4905   10.4146    3.9865   H         1 RES1   0.0000
   441 H269     -1.3156   10.5186    2.6765   H         1 RES1   0.0000
   442 H270     -0.3206    9.5891    4.6874   H         1 RES1   0.0000
   443 H271     -0.2578    8.4215    3.3790   H         1 RES1   0.0000
   444 H272     -2.2840    7.2757    4.3721   H         1 RES1   0.0000
   445 H273     -2.2568    8.4512    5.6890   H         1 RES1   0.0000
   446 H274     -0.0537    6.4333    5.0297   H         1 RES1   0.0000
   447 H275     -1.1488    6.3850    6.4188   H         1 RES1   0.0000
   448 H276      0.0577    7.6589    6.2966   H         1 RES1   0.0000
@<TRIPOS>BOND
     1     1    20    1
     2     1    22    1
     3     1    25    1
     4     1   169    1
     5     1   171    1
     6     1   174    1
     7     1   318    1
     8     1   320    1
     9     1   323    1
    10     2     3    1
    11     2    59    1
    12     2    60    1
    13     2    61    1
    14     3     4    1
    15     3    62    1
    16     3    63    1
    17     4     5    1
    18     4    64    1
    19     4    65    1
    20     5     6    1
    21     5    66    1
    22     5    67    1
    23     6     7    1
    24     6    68    1
    25     6    69    1
    26     7     8    1
    27     7    70    1
    28     7    71    1
    29     8     9    1
    30     8    72    1
    31     8    73    1
    32     9    10    1
    33     9    74    1
    34     9    75    1
    35    10    11    1
    36    10    19    1
    37    11    12    1
    38    11    76    1
    39    11    77    1
    40    12    13    1
    41    12    78    1
    42    12    79    1
    43    13    14    1
    44    13    80    1
    45    13    81    1
    46    14    15    1
    47    14    82    1
    48    14    83    1
    49    15    16    1
    50    15    84    1
    51    15    85    1
    52    16    17    1
    53    16    86    1
    54    16    87    1
    55    17    18    1
    56    17    88    1
    57    17    89    1
    58    18    90    1
    59    18    91    1
    60    18    92    1
    61    19    20    2
    62    19    21    1
    63    21    22    1
    64    21    93    1
    65    21    94    1
    66    22    23    1
    67    23    24    1
    68    23    95    1
    69    23    96    1
    70    24    25    2
    71    24    26    1
    72    26    27    1
    73    26    97    1
    74    27    28    1
    75    27    98    1
    76    27    99    1
    77    28    29    1
    78    28   100    1
    79    28   101    1
    80    29    30    1
    81    29   102    1
    82    29   103    1
    83    30    31    1
    84    30   104    1
    85    30   105    1
    86    31    32    1
    87    31   106    1
    88    31   107    1
    89    32    33    1
    90    32   108    1
    91    32   109    1
    92    33    34    1
    93    33   110    1
    94    33   111    1
    95    34    35    1
    96    34   112    1
    97    35    36    2
    98    35    37    1
    99    37    38    1
   100    37   113    1
   101    37   114    1
   102    38    39    1
   103    39    40    1
   104    39   115    1
   105    39   116    1
   106    40    41    2
   107    40    42    1
   108    42    43    1
   109    42    51    1
   110    43    44    1
   111    43   117    1
   112    43   118    1
   113    44    45    1
   114    44   119    1
   115    44   120    1
   116    45    46    1
   117    45   121    1
   118    45   122    1
   119    46    47    1
   120    46   123    1
   121    46   124    1
   122    47    48    1
   123    47   125    1
   124    47   126    1
   125    48    49    1
   126    48   127    1
   127    48   128    1
   128    49    50    1
   129    49   129    1
   130    49   130    1
   131    50   131    1
   132    50   132    1
   133    50   133    1
   134    51    52    1
   135    51   134    1
   136    51   135    1
   137    52    53    1
   138    52   136    1
   139    52   137    1
   140    53    54    1
   141    53   138    1
   142    53   139    1
   143    54    55    1
   144    54   140    1
   145    54   141    1
   146    55    56    1
   147    55   142    1
   148    55   143    1
   149    56    57    1
   150    56   144    1
   151    56   145    1
   152    57    58    1
   153    57   146    1
   154    57   147    1
   155    58   148    1
   156    58   149    1
   157    58   150    1
   158   151   152    1
   159   151   208    1
   160   151   209    1
   161   151   210    1
   162   152   153    1
   163   152   211    1
   164   152   212    1
   165   153   154    1
   166   153   213    1
   167   153   214    1
   168   154   155    1
   169   154   215    1
   170   154   216    1
   171   155   156    1
   172   155   217    1
   173   155   218    1
   174   156   157    1
   175   156   219    1
   176   156   220    1
   177   157   158    1
   178   157   221    1
   179   157   222    1
   180   158   159    1
   181   158   223    1
   182   158   224    1
   183   159   160    1
   184   159   168    1
   185   160   161    1
   186   160   225    1
   187   160   226    1
   188   161   162    1
   189   161   227    1
   190   161   228    1
   191   162   163    1
   192   162   229    1
   193   162   230    1
   194   163   164    1
   195   163   231    1
   196   163   232    1
   197   164   165    1
   198   164   233    1
   199   164   234    1
   200   165   166    1
   201   165   235    1
   202   165   236    1
   203   166   167    1
   204   166   237    1
   205   166   238    1
   206   167   239    1
   207   167   240    1
   208   167   241    1
   209   168   169    2
   210   168   170    1
   211   170   171    1
   212   170   242    1
   213   170   243    1
   214   171   172    1
   215   172   173    1
   216   172   244    1
   217   172   245    1
   218   173   174    2
   219   173   175    1
   220   175   176    1
   221   175   246    1
   222   176   177    1
   223   176   247    1
   224   176   248    1
   225   177   178    1
   226   177   249    1
   227   177   250    1
   228   178   179    1
   229   178   251    1
   230   178   252    1
   231   179   180    1
   232   179   253    1
   233   179   254    1
   234   180   181    1
   235   180   255    1
   236   180   256    1
   237   181   182    1
   238   181   257    1
   239   181   258    1
   240   182   183    1
   241   182   259    1
   242   182   260    1
   243   183   184    1
   244   183   261    1
   245   184   185    2
   246   184   186    1
   247   186   187    1
   248   186   262    1
   249   186   263    1
   250   187   188    1
   251   188   189    1
   252   188   264    1
   253   188   265    1
   254   189   190    2
   255   189   191    1
   256   191   192    1
   257   191   200    1
   258   192   193    1
   259   192   266    1
   260   192   267    1
   261   193   194    1
   262   193   268    1
   263   193   269    1
   264   194   195    1
   265   194   270    1
   266   194   271    1
   267   195   196    1
   268   195   272    1
   269   195   273    1
   270   196   197    1
   271   196   274    1
   272   196   275    1
   273   197   198    1
   274   197   276    1
   275   197   277    1
   276   198   199    1
   277   198   278    1
   278   198   279    1
   279   199   280    1
   280   199   281    1
   281   199   282    1
   282   200   201    1
   283   200   283    1
   284   200   284    1
   285   201   202    1
   286   201   285    1
   287   201   286    1
   288   202   203    1
   289   202   287    1
   290   202   288    1
   291   203   204    1
   292   203   289    1
   293   203   290    1
   294   204   205    1
   295   204   291    1
   296   204   292    1
   297   205   206    1
   298   205   293    1
   299   205   294    1
   300   206   207    1
   301   206   295    1
   302   206   296    1
   303   207   297    1
   304   207   298    1
   305   207   299    1
   306   300   301    1
   307   300   357    1
   308   300   358    1
   309   300   359    1
   310   301   302    1
   311   301   360    1
   312   301   361    1
   313   302   303    1
   314   302   362    1
   315   302   363    1
   316   303   304    1
   317   303   364    1
   318   303   365    1
   319   304   305    1
   320   304   366    1
   321   304   367    1
   322   305   306    1
   323   305   368    1
   324   305   369    1
   325   306   307    1
   326   306   370    1
   327   306   371    1
   328   307   308    1
   329   307   372    1
   330   307   373    1
   331   308   309    1
   332   308   317    1
   333   309   310    1
   334   309   374    1
   335   309   375    1
   336   310   311    1
   337   310   376    1
   338   310   377    1
   339   311   312    1
   340   311   378    1
   341   311   379    1
   342   312   313    1
   343   312   380    1
   344   312   381    1
   345   313   314    1
   346   313   382    1
   347   313   383    1
   348   314   315    1
   349   314   384    1
   350   314   385    1
   351   315   316    1
   352   315   386    1
   353   315   387    1
   354   316   388    1
   355   316   389    1
   356   316   390    1
   357   317   318    2
   358   317   319    1
   359   319   320    1
   360   319   391    1
   361   319   392    1
   362   320   321    1
   363   321   322    1
   364   321   393    1
   365   321   394    1
   366   322   323    2
   367   322   324    1
   368   324   325    1
   369   324   395    1
   370   325   326    1
   371   325   396    1
   372   325   397    1
   373   326   327    1
   374   326   398    1
   375   326   399    1
   376   327   328    1
   377   327   400    1
   378   327   401    1
   379   328   329    1
   380   328   402    1
   381   328   403    1
   382   329   330    1
   383   329   404    1
   384   329   405    1
   385   330   331    1
   386   330   406    1
   387   330   407    1
   388   331   332    1
   389   331   408    1
   390   331   409    1
   391   332   333    1
   392   332   410    1
   393   333   334    2
   394   333   335    1
   395   335   336    1
   396   335   411    1
   397   335   412    1
   398   336   337    1
   399   337   338    1
   400   337   413    1
   401   337   414    1
   402   338   339    2
   403   338   340    1
   404   340   341    1
   405   340   349    1
   406   341   342    1
   407   341   415    1
   408   341   416    1
   409   342   343    1
   410   342   417    1
   411   342   418    1
   412   343   344    1
   413   343   419    1
   414   343   420    1
   415   344   345    1
   416   344   421    1
   417   344   422    1
   418   345   346    1
   419   345   423    1
   420   345   424    1
   421   346   347    1
   422   346   425    1
   423   346   426    1
   424   347   348    1
   425   347   427    1
   426   347   428    1
   427   348   429    1
   428   348   430    1
   429   348   431    1
   430   349   350    1
   431   349   432    1
   432   349   433    1
   433   350   351    1
   434   350   434    1
   435   350   435    1
   436   351   352    1
   437   351   436    1
   438   351   437    1
   439   352   353    1
   440   352   438    1
   441   352   439    1
   442   353   354    1
   443   353   440    1
   444   353   441    1
   445   354   355    1
   446   354   442    1
   447   354   443    1
   448   355   356    1
   449   355   444    1
   450   355   445    1
   451   356   446    1
   452   356   447    1
   453   356   448    1
@<TRIPOS>SUBSTRUCTURE
     1 RES1      448 GROUP             0 ****  ****    0  
