@<TRIPOS>MOLECULE
am_c3_9H2O_c0_0_nunpairedes_0_charge_3 Charge: 3 Unpaired_Electrons: 6 XTB_Unpaired_Electrons: 0 XTB_Charge: 3
   379   387     1     0     0
SMALL
NoCharges
****
Generated from Architector

@<TRIPOS>ATOM
     1 Eu1      -0.1309    0.0955   -0.0000   Eu        1 RES1   0.0000
     2 C1      -11.8407    1.0485    2.2758   C.3       1 RES1   0.0000
     3 C2      -11.0399    2.1527    2.9596   C.3       1 RES1   0.0000
     4 C3       -9.5401    1.9265    2.7906   C.3       1 RES1   0.0000
     5 C4       -8.6682    2.9907    3.4560   C.3       1 RES1   0.0000
     6 C5       -7.2117    2.7736    3.0571   C.3       1 RES1   0.0000
     7 C6       -6.2569    3.8140    3.6295   C.3       1 RES1   0.0000
     8 C7       -4.7925    3.4639    3.3749   C.3       1 RES1   0.0000
     9 C8       -4.4866    3.2953    1.8845   C.3       1 RES1   0.0000
    10 N1       -3.0866    3.0179    1.6696   N.am      1 RES1   0.0000
    11 C9       -2.1112    4.1201    1.7638   C.3       1 RES1   0.0000
    12 C10      -2.4629    5.5236    2.3000   C.3       1 RES1   0.0000
    13 C11      -3.4488    6.4189    1.5361   C.3       1 RES1   0.0000
    14 C12      -3.3870    7.8968    1.9717   C.3       1 RES1   0.0000
    15 C13      -2.6043    8.8226    1.0360   C.3       1 RES1   0.0000
    16 C14      -3.2816    9.0573   -0.3179   C.3       1 RES1   0.0000
    17 C15      -2.7404   10.2984   -1.0310   C.3       1 RES1   0.0000
    18 C16      -3.3807   10.5177   -2.3987   C.3       1 RES1   0.0000
    19 C17      -2.5798    1.8119    1.4202   C.2       1 RES1   0.0000
    20 O1       -1.3475    1.6066    1.4422   O.2       1 RES1   0.0000
    21 C18      -3.4477    0.6081    1.0139   C.3       1 RES1   0.0000
    22 C19      -3.6049   -0.3635    2.1726   C.3       1 RES1   0.0000
    23 O2       -2.6627    0.0127   -0.0299   O.3       1 RES1   0.0000
    24 C20      -3.2544   -1.0076   -0.8890   C.3       1 RES1   0.0000
    25 C21      -2.2503   -0.9522   -2.0730   C.2       1 RES1   0.0000
    26 O3       -1.0604   -0.8462   -1.7303   O.2       1 RES1   0.0000
    27 N2       -2.5929   -0.9793   -3.3592   N.am      1 RES1   0.0000
    28 C22      -3.7498   -1.7253   -3.8356   C.3       1 RES1   0.0000
    29 C23      -4.4853   -1.0935   -5.0116   C.3       1 RES1   0.0000
    30 C24      -5.7935   -1.8250   -5.3076   C.3       1 RES1   0.0000
    31 C25      -6.9132   -1.4520   -4.3442   C.3       1 RES1   0.0000
    32 C26      -8.2617   -1.9694   -4.8382   C.3       1 RES1   0.0000
    33 C27      -9.4163   -1.5971   -3.9097   C.3       1 RES1   0.0000
    34 C28      -9.7530   -0.1069   -3.9453   C.3       1 RES1   0.0000
    35 C29     -10.9669    0.2117   -3.0806   C.3       1 RES1   0.0000
    36 C30      -1.5169   -0.7376   -4.3325   C.3       1 RES1   0.0000
    37 C31      -1.7396    0.4566   -5.2733   C.3       1 RES1   0.0000
    38 C32      -0.4235    1.0931   -5.7634   C.3       1 RES1   0.0000
    39 C33      -0.2908    2.5456   -5.3087   C.3       1 RES1   0.0000
    40 C34       1.0139    3.2056   -5.7623   C.3       1 RES1   0.0000
    41 C35       0.9903    4.7167   -5.5243   C.3       1 RES1   0.0000
    42 C36       2.3214    5.4205   -5.8028   C.3       1 RES1   0.0000
    43 C37       3.2697    5.3916   -4.6082   C.3       1 RES1   0.0000
    44 C38      -4.7373   -0.7883   -1.0407   C.ar      1 RES1   0.0000
    45 C39      -5.6033   -1.6552   -0.3761   C.ar      1 RES1   0.0000
    46 C40      -6.9541   -1.3670   -0.2786   C.ar      1 RES1   0.0000
    47 C41      -7.4573   -0.2014   -0.8358   C.ar      1 RES1   0.0000
    48 C42      -6.6051    0.6512   -1.5245   C.ar      1 RES1   0.0000
    49 C43      -5.2554    0.3609   -1.6321   C.ar      1 RES1   0.0000
    50 H1      -12.9075    1.2128    2.4030   H         1 RES1   0.0000
    51 H2      -11.5917    0.0777    2.7005   H         1 RES1   0.0000
    52 H3      -11.6251    1.0200    1.2082   H         1 RES1   0.0000
    53 H4      -11.2922    2.1813    4.0211   H         1 RES1   0.0000
    54 H5      -11.3126    3.1162    2.5247   H         1 RES1   0.0000
    55 H6       -9.3078    1.9088    1.7212   H         1 RES1   0.0000
    56 H7       -9.2796    0.9455    3.1974   H         1 RES1   0.0000
    57 H8       -8.7685    2.9306    4.5399   H         1 RES1   0.0000
    58 H9       -8.9890    3.9874    3.1450   H         1 RES1   0.0000
    59 H10      -7.1627    2.7878    1.9651   H         1 RES1   0.0000
    60 H11      -6.8902    1.7859    3.3956   H         1 RES1   0.0000
    61 H12      -6.4003    3.8991    4.7082   H         1 RES1   0.0000
    62 H13      -6.4791    4.7905    3.1970   H         1 RES1   0.0000
    63 H14      -4.5332    2.5342    3.8825   H         1 RES1   0.0000
    64 H15      -4.1735    4.2488    3.7997   H         1 RES1   0.0000
    65 H16      -4.7371    4.2040    1.3390   H         1 RES1   0.0000
    66 H17      -5.0941    2.4835    1.4869   H         1 RES1   0.0000
    67 H18      -1.6961    4.2285    0.7569   H         1 RES1   0.0000
    68 H19      -1.3056    3.7426    2.3983   H         1 RES1   0.0000
    69 H20      -1.4971    6.0365    2.2808   H         1 RES1   0.0000
    70 H21      -2.7662    5.4743    3.3463   H         1 RES1   0.0000
    71 H22      -4.4728    6.0888    1.7000   H         1 RES1   0.0000
    72 H23      -3.2334    6.3602    0.4713   H         1 RES1   0.0000
    73 H24      -2.9575    7.9703    2.9722   H         1 RES1   0.0000
    74 H25      -4.4070    8.2759    2.0340   H         1 RES1   0.0000
    75 H26      -1.5921    8.4375    0.8872   H         1 RES1   0.0000
    76 H27      -2.5159    9.7884    1.5359   H         1 RES1   0.0000
    77 H28      -4.3541    9.1885   -0.1659   H         1 RES1   0.0000
    78 H29      -3.1474    8.1882   -0.9671   H         1 RES1   0.0000
    79 H30      -1.6574   10.2135   -1.1459   H         1 RES1   0.0000
    80 H31      -2.9363   11.1765   -0.4138   H         1 RES1   0.0000
    81 H32      -3.1845    9.6827   -3.0695   H         1 RES1   0.0000
    82 H33      -2.9841   11.4185   -2.8615   H         1 RES1   0.0000
    83 H34      -4.4584   10.6299   -2.3061   H         1 RES1   0.0000
    84 H35      -4.4181    0.9097    0.6096   H         1 RES1   0.0000
    85 H36      -2.6166   -0.6954    2.4859   H         1 RES1   0.0000
    86 H37      -4.1682   -1.2291    1.8383   H         1 RES1   0.0000
    87 H38      -4.1277    0.1082    2.9964   H         1 RES1   0.0000
    88 H39      -3.0950   -1.9942   -0.4149   H         1 RES1   0.0000
    89 H40      -4.4378   -1.8792   -3.0053   H         1 RES1   0.0000
    90 H41      -3.3798   -2.7061   -4.1552   H         1 RES1   0.0000
    91 H42      -3.8561   -1.1515   -5.8956   H         1 RES1   0.0000
    92 H43      -4.6986   -0.0433   -4.8139   H         1 RES1   0.0000
    93 H44      -5.6244   -2.9020   -5.2896   H         1 RES1   0.0000
    94 H45      -6.1098   -1.5600   -6.3163   H         1 RES1   0.0000
    95 H46      -6.9517   -0.3642   -4.2652   H         1 RES1   0.0000
    96 H47      -6.7176   -1.8552   -3.3476   H         1 RES1   0.0000
    97 H48      -8.2165   -3.0559   -4.9326   H         1 RES1   0.0000
    98 H49      -8.4563   -1.5621   -5.8319   H         1 RES1   0.0000
    99 H50      -9.1662   -1.8936   -2.8870   H         1 RES1   0.0000
   100 H51     -10.3025   -2.1609   -4.2079   H         1 RES1   0.0000
   101 H52      -9.9618    0.1855   -4.9764   H         1 RES1   0.0000
   102 H53      -8.8975    0.4779   -3.5963   H         1 RES1   0.0000
   103 H54     -11.8438   -0.3116   -3.4538   H         1 RES1   0.0000
   104 H55     -11.1798    1.2788   -3.0876   H         1 RES1   0.0000
   105 H56     -10.7989   -0.1019   -2.0510   H         1 RES1   0.0000
   106 H57      -1.3780   -1.6507   -4.9118   H         1 RES1   0.0000
   107 H58      -0.6065   -0.5693   -3.7529   H         1 RES1   0.0000
   108 H59      -2.3371    1.2093   -4.7575   H         1 RES1   0.0000
   109 H60      -2.2963    0.1362   -6.1488   H         1 RES1   0.0000
   110 H61      -0.3908    1.0753   -6.8532   H         1 RES1   0.0000
   111 H62       0.4254    0.5087   -5.4073   H         1 RES1   0.0000
   112 H63      -0.3633    2.5854   -4.2169   H         1 RES1   0.0000
   113 H64      -1.1298    3.1089   -5.7267   H         1 RES1   0.0000
   114 H65       1.1547    3.0214   -6.8287   H         1 RES1   0.0000
   115 H66       1.8564    2.7588   -5.2330   H         1 RES1   0.0000
   116 H67       0.7082    4.9113   -4.4869   H         1 RES1   0.0000
   117 H68       0.2169    5.1531   -6.1590   H         1 RES1   0.0000
   118 H69       2.1178    6.4615   -6.0606   H         1 RES1   0.0000
   119 H70       2.8003    4.9550   -6.6649   H         1 RES1   0.0000
   120 H71       2.8045    5.8504   -3.7361   H         1 RES1   0.0000
   121 H72       4.1719    5.9490   -4.8408   H         1 RES1   0.0000
   122 H73       3.5542    4.3748   -4.3495   H         1 RES1   0.0000
   123 H74      -5.2194   -2.5624    0.0659   H         1 RES1   0.0000
   124 H75      -7.6141   -2.0405    0.2420   H         1 RES1   0.0000
   125 H76      -8.5044    0.0345   -0.7330   H         1 RES1   0.0000
   126 H77      -6.9912    1.5532   -1.9776   H         1 RES1   0.0000
   127 H78      -4.5941    1.0200   -2.1779   H         1 RES1   0.0000
   128 C44       3.4554   11.0970   -1.9726   C.3       1 RES1   0.0000
   129 C45       2.2236   10.8041   -2.8256   C.3       1 RES1   0.0000
   130 C46       1.7421    9.3721   -2.6038   C.3       1 RES1   0.0000
   131 C47       0.4824    9.0030   -3.3868   C.3       1 RES1   0.0000
   132 C48       0.0220    7.6017   -2.9893   C.3       1 RES1   0.0000
   133 C49      -1.3240    7.2219   -3.5956   C.3       1 RES1   0.0000
   134 C50      -1.7506    5.7653   -3.3700   C.3       1 RES1   0.0000
   135 C51      -1.4690    5.2771   -1.9462   C.3       1 RES1   0.0000
   136 N3       -1.6803    3.8519   -1.7786   N.am      1 RES1   0.0000
   137 C52      -2.9924    3.2099   -2.0021   C.3       1 RES1   0.0000
   138 C53      -4.2260    3.9837   -2.4898   C.3       1 RES1   0.0000
   139 C54      -4.6940    5.1852   -1.6671   C.3       1 RES1   0.0000
   140 C55      -6.0282    5.7758   -2.1571   C.3       1 RES1   0.0000
   141 C56      -7.2160    5.4474   -1.2530   C.3       1 RES1   0.0000
   142 C57      -7.1918    6.2080    0.0742   C.3       1 RES1   0.0000
   143 C58      -8.5636    6.2269    0.7447   C.3       1 RES1   0.0000
   144 C59      -8.5448    6.9446    2.0887   C.3       1 RES1   0.0000
   145 C60      -0.7296    2.9939   -1.4046   C.2       1 RES1   0.0000
   146 O4       -0.9579    1.7680   -1.4034   O.2       1 RES1   0.0000
   147 C61       0.6731    3.3925   -0.8982   C.3       1 RES1   0.0000
   148 C62       1.7109    3.1110   -1.9779   C.3       1 RES1   0.0000
   149 O5        0.8552    2.4873    0.1993   O.3       1 RES1   0.0000
   150 C63       1.9849    2.6767    1.0947   C.3       1 RES1   0.0000
   151 C64       1.6158    1.6138    2.1701   C.2       1 RES1   0.0000
   152 O6        1.1958    0.5245    1.7228   O.2       1 RES1   0.0000
   153 N4        1.6684    1.8270    3.4803   N.am      1 RES1   0.0000
   154 C65       2.6475    2.6825    4.1314   C.3       1 RES1   0.0000
   155 C66       2.1296    3.4078    5.3710   C.3       1 RES1   0.0000
   156 C67       3.2112    4.3240    5.9367   C.3       1 RES1   0.0000
   157 C68       3.3702    5.5734    5.0830   C.3       1 RES1   0.0000
   158 C69       4.3560    6.5599    5.6952   C.3       1 RES1   0.0000
   159 C70       4.5815    7.7760    4.7995   C.3       1 RES1   0.0000
   160 C71       3.3646    8.6964    4.7270   C.3       1 RES1   0.0000
   161 C72       3.6147    9.8772    3.7966   C.3       1 RES1   0.0000
   162 C73       0.9461    0.8973    4.3550   C.3       1 RES1   0.0000
   163 C74      -0.4629    1.4258    4.6793   C.3       1 RES1   0.0000
   164 C75      -1.2751    0.4569    5.5478   C.3       1 RES1   0.0000
   165 C76      -2.7029    0.9647    5.8205   C.3       1 RES1   0.0000
   166 C77      -3.7472   -0.1608    5.8590   C.3       1 RES1   0.0000
   167 C78      -5.1892    0.3618    5.9136   C.3       1 RES1   0.0000
   168 C79      -6.2519   -0.7146    5.6588   C.3       1 RES1   0.0000
   169 C80      -6.3896   -1.1285    4.1966   C.3       1 RES1   0.0000
   170 C81       2.1534    4.1450    1.4257   C.ar      1 RES1   0.0000
   171 C82       3.1562    4.8752    0.7860   C.ar      1 RES1   0.0000
   172 C83       3.2054    6.2560    0.8969   C.ar      1 RES1   0.0000
   173 C84       2.2518    6.9300    1.6421   C.ar      1 RES1   0.0000
   174 C85       1.2755    6.2092    2.3133   C.ar      1 RES1   0.0000
   175 C86       1.2284    4.8291    2.2094   C.ar      1 RES1   0.0000
   176 H79       3.8064   12.1134   -2.1348   H         1 RES1   0.0000
   177 H80       4.2647   10.4122   -2.2238   H         1 RES1   0.0000
   178 H81       3.2216   10.9781   -0.9145   H         1 RES1   0.0000
   179 H82       2.4652   10.9546   -3.8791   H         1 RES1   0.0000
   180 H83       1.4274   11.5040   -2.5637   H         1 RES1   0.0000
   181 H84       1.5429    9.2373   -1.5355   H         1 RES1   0.0000
   182 H85       2.5457    8.6827   -2.8782   H         1 RES1   0.0000
   183 H86       0.6831    9.0395   -4.4581   H         1 RES1   0.0000
   184 H87      -0.3103    9.7215   -3.1705   H         1 RES1   0.0000
   185 H88      -0.0527    7.5795   -1.8988   H         1 RES1   0.0000
   186 H89       0.7804    6.8776   -3.2918   H         1 RES1   0.0000
   187 H90      -1.3050    7.3910   -4.6729   H         1 RES1   0.0000
   188 H91      -2.0813    7.8849   -3.1774   H         1 RES1   0.0000
   189 H92      -1.2327    5.1041   -4.0620   H         1 RES1   0.0000
   190 H93      -2.8085    5.7086   -3.6033   H         1 RES1   0.0000
   191 H94      -2.0757    5.8180   -1.2152   H         1 RES1   0.0000
   192 H95      -0.4244    5.4834   -1.7275   H         1 RES1   0.0000
   193 H96      -3.2420    2.7117   -1.0565   H         1 RES1   0.0000
   194 H97      -2.8127    2.4117   -2.7307   H         1 RES1   0.0000
   195 H98      -5.0298    3.2411   -2.4742   H         1 RES1   0.0000
   196 H99      -4.1079    4.2725   -3.5337   H         1 RES1   0.0000
   197 H100     -3.9573    5.9812   -1.7111   H         1 RES1   0.0000
   198 H101     -4.8015    4.8755   -0.6293   H         1 RES1   0.0000
   199 H102     -6.2450    5.4214   -3.1659   H         1 RES1   0.0000
   200 H103     -5.9310    6.8618   -2.2063   H         1 RES1   0.0000
   201 H104     -7.2533    4.3703   -1.0672   H         1 RES1   0.0000
   202 H105     -8.1300    5.7194   -1.7817   H         1 RES1   0.0000
   203 H106     -6.8741    7.2370   -0.1035   H         1 RES1   0.0000
   204 H107     -6.4686    5.7554    0.7566   H         1 RES1   0.0000
   205 H108     -8.9155    5.2022    0.8812   H         1 RES1   0.0000
   206 H109     -9.2703    6.7337    0.0864   H         1 RES1   0.0000
   207 H110     -7.8704    6.4556    2.7897   H         1 RES1   0.0000
   208 H111     -9.5396    6.9517    2.5263   H         1 RES1   0.0000
   209 H112     -8.2182    7.9744    1.9680   H         1 RES1   0.0000
   210 H113      0.7350    4.4222   -0.5322   H         1 RES1   0.0000
   211 H114      1.6781    2.0438   -2.2155   H         1 RES1   0.0000
   212 H115      2.7005    3.3768   -1.6152   H         1 RES1   0.0000
   213 H116      1.5058    3.6949   -2.8675   H         1 RES1   0.0000
   214 H117      2.8997    2.3163    0.5917   H         1 RES1   0.0000
   215 H118      3.0334    3.3919    3.4017   H         1 RES1   0.0000
   216 H119      3.4794    2.0411    4.4446   H         1 RES1   0.0000
   217 H120      1.8404    2.6906    6.1379   H         1 RES1   0.0000
   218 H121      1.2586    4.0167    5.1288   H         1 RES1   0.0000
   219 H122      4.1584    3.7877    5.9986   H         1 RES1   0.0000
   220 H123      2.9331    4.6217    6.9480   H         1 RES1   0.0000
   221 H124      2.3912    6.0443    4.9820   H         1 RES1   0.0000
   222 H125      3.7171    5.3082    4.0818   H         1 RES1   0.0000
   223 H126      5.3098    6.0542    5.8564   H         1 RES1   0.0000
   224 H127      3.9827    6.8834    6.6678   H         1 RES1   0.0000
   225 H128      4.8396    7.4347    3.7923   H         1 RES1   0.0000
   226 H129      5.4300    8.3462    5.1808   H         1 RES1   0.0000
   227 H130      3.1365    9.0673    5.7275   H         1 RES1   0.0000
   228 H131      2.4952    8.1378    4.3716   H         1 RES1   0.0000
   229 H132      4.4235   10.4946    4.1789   H         1 RES1   0.0000
   230 H133      2.7252   10.4982    3.7071   H         1 RES1   0.0000
   231 H134      3.8977    9.5276    2.8040   H         1 RES1   0.0000
   232 H135      1.5256    0.7569    5.2656   H         1 RES1   0.0000
   233 H136      0.8705   -0.0675    3.8484   H         1 RES1   0.0000
   234 H137     -0.9897    1.5742    3.7337   H         1 RES1   0.0000
   235 H138     -0.3914    2.3898    5.1849   H         1 RES1   0.0000
   236 H139     -0.7537    0.2737    6.4869   H         1 RES1   0.0000
   237 H140     -1.3436   -0.4929    5.0232   H         1 RES1   0.0000
   238 H141     -2.9751    1.6580    5.0211   H         1 RES1   0.0000
   239 H142     -2.7369    1.5256    6.7543   H         1 RES1   0.0000
   240 H143     -3.5766   -0.8102    6.7198   H         1 RES1   0.0000
   241 H144     -3.6225   -0.7685    4.9617   H         1 RES1   0.0000
   242 H145     -5.3247    1.1557    5.1749   H         1 RES1   0.0000
   243 H146     -5.3760    0.8020    6.8949   H         1 RES1   0.0000
   244 H147     -7.2136   -0.3215    5.9907   H         1 RES1   0.0000
   245 H148     -6.0250   -1.5959    6.2597   H         1 RES1   0.0000
   246 H149     -6.5586   -0.2646    3.5556   H         1 RES1   0.0000
   247 H150     -7.2375   -1.7983    4.0763   H         1 RES1   0.0000
   248 H151     -5.4986   -1.6423    3.8487   H         1 RES1   0.0000
   249 H152      3.9030    4.3670    0.1915   H         1 RES1   0.0000
   250 H153      3.9817    6.8182    0.4035   H         1 RES1   0.0000
   251 H154      2.2694    8.0068    1.6973   H         1 RES1   0.0000
   252 H155      0.5566    6.7235    2.9324   H         1 RES1   0.0000
   253 H156      0.4895    4.2668    2.7587   H         1 RES1   0.0000
   254 C87      -7.5520   -6.6835    3.0113   C.3       1 RES1   0.0000
   255 C88      -6.6238   -5.7968    2.1932   C.3       1 RES1   0.0000
   256 C89      -5.2269   -5.6631    2.8015   C.3       1 RES1   0.0000
   257 C90      -5.2357   -4.8802    4.1127   C.3       1 RES1   0.0000
   258 C91      -3.8492   -4.6820    4.7278   C.3       1 RES1   0.0000
   259 C92      -2.9384   -3.7520    3.9209   C.3       1 RES1   0.0000
   260 C93      -1.6566   -3.4323    4.6901   C.3       1 RES1   0.0000
   261 C94      -0.5787   -2.7342    3.8617   C.3       1 RES1   0.0000
   262 N5       -0.0113   -3.4857    2.7419   N.am      1 RES1   0.0000
   263 C95       0.5416   -4.7914    3.0827   C.3       1 RES1   0.0000
   264 C96      -0.5088   -5.9024    2.8895   C.3       1 RES1   0.0000
   265 C97       0.0253   -7.3080    2.6047   C.3       1 RES1   0.0000
   266 C98      -1.1309   -8.2484    2.2351   C.3       1 RES1   0.0000
   267 C99      -1.8247   -7.8748    0.9237   C.3       1 RES1   0.0000
   268 C100     -2.9642   -8.8284    0.5657   C.3       1 RES1   0.0000
   269 C101     -3.7045   -8.3753   -0.6937   C.3       1 RES1   0.0000
   270 C102     -4.8533   -9.3113   -1.0469   C.3       1 RES1   0.0000
   271 C103      0.0360   -2.8887    1.5536   C.2       1 RES1   0.0000
   272 O7       -0.5864   -1.8285    1.3238   O.2       1 RES1   0.0000
   273 C104      0.9411   -3.4306    0.4339   C.3       1 RES1   0.0000
   274 C105      0.5768   -4.8172   -0.0819   C.3       1 RES1   0.0000
   275 O8        0.8435   -2.4522   -0.6097   O.3       1 RES1   0.0000
   276 C106      1.8982   -2.4681   -1.5761   C.3       1 RES1   0.0000
   277 C107      2.6602   -1.1413   -1.4483   C.2       1 RES1   0.0000
   278 O9        2.0494   -0.1466   -0.9989   O.2       1 RES1   0.0000
   279 N6        3.9200   -1.0921   -1.8581   N.am      1 RES1   0.0000
   280 C108      4.6673    0.1602   -1.8289   C.3       1 RES1   0.0000
   281 C109      5.1245    0.6075   -3.2243   C.3       1 RES1   0.0000
   282 C110      4.1087    1.4602   -3.9776   C.3       1 RES1   0.0000
   283 C111      4.4929    1.6596   -5.4511   C.3       1 RES1   0.0000
   284 C112      3.9670    0.5588   -6.3720   C.3       1 RES1   0.0000
   285 C113      4.1501    0.9023   -7.8512   C.3       1 RES1   0.0000
   286 C114      3.5223   -0.1259   -8.7966   C.3       1 RES1   0.0000
   287 C115      4.2646   -1.4570   -8.8277   C.3       1 RES1   0.0000
   288 C116      4.6841   -2.2625   -2.2616   C.3       1 RES1   0.0000
   289 C117      5.3923   -2.9502   -1.0964   C.3       1 RES1   0.0000
   290 C118      6.1443   -4.1742   -1.6261   C.3       1 RES1   0.0000
   291 C119      6.5060   -5.1727   -0.5279   C.3       1 RES1   0.0000
   292 C120      5.3122   -5.9330    0.0636   C.3       1 RES1   0.0000
   293 C121      4.9224   -7.2271   -0.6553   C.3       1 RES1   0.0000
   294 C122      4.2205   -7.0438   -2.0101   C.3       1 RES1   0.0000
   295 C123      5.1251   -7.3467   -3.2004   C.3       1 RES1   0.0000
   296 C124      1.3678   -2.6492   -3.0002   C.ar      1 RES1   0.0000
   297 C125      1.9285   -1.9943   -4.0924   C.ar      1 RES1   0.0000
   298 C126      1.5205   -2.3032   -5.3809   C.ar      1 RES1   0.0000
   299 C127      0.5520   -3.2688   -5.5992   C.ar      1 RES1   0.0000
   300 C128     -0.0416   -3.8920   -4.5141   C.ar      1 RES1   0.0000
   301 C129      0.3557   -3.5744   -3.2263   C.ar      1 RES1   0.0000
   302 H157     -8.4844   -6.8446    2.4788   H         1 RES1   0.0000
   303 H158     -7.7905   -6.2316    3.9690   H         1 RES1   0.0000
   304 H159     -7.0930   -7.6516    3.1900   H         1 RES1   0.0000
   305 H160     -7.0687   -4.8040    2.0899   H         1 RES1   0.0000
   306 H161     -6.5262   -6.2199    1.1918   H         1 RES1   0.0000
   307 H162     -4.5763   -5.1599    2.0795   H         1 RES1   0.0000
   308 H163     -4.8165   -6.6593    2.9751   H         1 RES1   0.0000
   309 H164     -5.8457   -5.4155    4.8392   H         1 RES1   0.0000
   310 H165     -5.7014   -3.9073    3.9472   H         1 RES1   0.0000
   311 H166     -3.3686   -5.6569    4.8406   H         1 RES1   0.0000
   312 H167     -3.9688   -4.2596    5.7284   H         1 RES1   0.0000
   313 H168     -3.4677   -2.8217    3.7054   H         1 RES1   0.0000
   314 H169     -2.6875   -4.2129    2.9662   H         1 RES1   0.0000
   315 H170     -1.2536   -4.3445    5.1284   H         1 RES1   0.0000
   316 H171     -1.9043   -2.7633    5.5192   H         1 RES1   0.0000
   317 H172      0.2493   -2.4851    4.5350   H         1 RES1   0.0000
   318 H173     -0.9780   -1.8107    3.4423   H         1 RES1   0.0000
   319 H174      0.8543   -4.7358    4.1267   H         1 RES1   0.0000
   320 H175      1.4336   -4.9961    2.4910   H         1 RES1   0.0000
   321 H176     -1.1510   -5.6106    2.0586   H         1 RES1   0.0000
   322 H177     -1.1308   -5.9722    3.7791   H         1 RES1   0.0000
   323 H178      0.5247   -7.7023    3.4897   H         1 RES1   0.0000
   324 H179      0.7588   -7.2999    1.7943   H         1 RES1   0.0000
   325 H180     -1.8679   -8.2432    3.0403   H         1 RES1   0.0000
   326 H181     -0.7468   -9.2669    2.1576   H         1 RES1   0.0000
   327 H182     -1.0872   -7.8701    0.1170   H         1 RES1   0.0000
   328 H183     -2.2518   -6.8701    0.9947   H         1 RES1   0.0000
   329 H184     -3.6704   -8.8754    1.3984   H         1 RES1   0.0000
   330 H185     -2.5664   -9.8319    0.4107   H         1 RES1   0.0000
   331 H186     -3.0029   -8.3301   -1.5309   H         1 RES1   0.0000
   332 H187     -4.0968   -7.3657   -0.5354   H         1 RES1   0.0000
   333 H188     -4.4849  -10.3208   -1.2087   H         1 RES1   0.0000
   334 H189     -5.3577   -8.9801   -1.9518   H         1 RES1   0.0000
   335 H190     -5.5830   -9.3402   -0.2415   H         1 RES1   0.0000
   336 H191      1.9645   -3.4257    0.8423   H         1 RES1   0.0000
   337 H192      1.1801   -5.0649   -0.9504   H         1 RES1   0.0000
   338 H193     -0.4685   -4.8415   -0.3715   H         1 RES1   0.0000
   339 H194      0.7611   -5.5721    0.6673   H         1 RES1   0.0000
   340 H195      2.5616   -3.3103   -1.3535   H         1 RES1   0.0000
   341 H196      5.5479    0.0146   -1.1993   H         1 RES1   0.0000
   342 H197      4.0184    0.9080   -1.3688   H         1 RES1   0.0000
   343 H198      5.3785   -0.2592   -3.8332   H         1 RES1   0.0000
   344 H199      6.0391    1.1886   -3.1137   H         1 RES1   0.0000
   345 H200      4.0661    2.4359   -3.4909   H         1 RES1   0.0000
   346 H201      3.1169    1.0046   -3.9122   H         1 RES1   0.0000
   347 H202      5.5784    1.7326   -5.5304   H         1 RES1   0.0000
   348 H203      4.0851    2.6110   -5.7956   H         1 RES1   0.0000
   349 H204      2.8960    0.4398   -6.1882   H         1 RES1   0.0000
   350 H205      4.4629   -0.3864   -6.1468   H         1 RES1   0.0000
   351 H206      5.2110    0.9963   -8.0866   H         1 RES1   0.0000
   352 H207      3.6845    1.8732   -8.0395   H         1 RES1   0.0000
   353 H208      3.5226    0.2935   -9.8046   H         1 RES1   0.0000
   354 H209      2.4796   -0.2950   -8.5127   H         1 RES1   0.0000
   355 H210      5.3103   -1.2966   -9.0766   H         1 RES1   0.0000
   356 H211      3.8328   -2.1104   -9.5817   H         1 RES1   0.0000
   357 H212      4.2143   -1.9715   -7.8700   H         1 RES1   0.0000
   358 H213      5.4508   -1.9452   -2.9655   H         1 RES1   0.0000
   359 H214      4.0463   -2.9684   -2.7947   H         1 RES1   0.0000
   360 H215      4.6725   -3.2355   -0.3266   H         1 RES1   0.0000
   361 H216      6.1047   -2.2640   -0.6392   H         1 RES1   0.0000
   362 H217      7.0599   -3.8345   -2.1142   H         1 RES1   0.0000
   363 H218      5.5382   -4.6698   -2.3828   H         1 RES1   0.0000
   364 H219      7.0109   -4.6311    0.2742   H         1 RES1   0.0000
   365 H220      7.2223   -5.8853   -0.9372   H         1 RES1   0.0000
   366 H221      4.4327   -5.2831    0.1101   H         1 RES1   0.0000
   367 H222      5.5670   -6.1980    1.0907   H         1 RES1   0.0000
   368 H223      4.2557   -7.7785    0.0117   H         1 RES1   0.0000
   369 H224      5.8133   -7.8388   -0.7942   H         1 RES1   0.0000
   370 H225      3.8232   -6.0273   -2.0894   H         1 RES1   0.0000
   371 H226      3.3667   -7.7219   -2.0641   H         1 RES1   0.0000
   372 H227      6.0657   -6.8059   -3.1453   H         1 RES1   0.0000
   373 H228      4.6324   -7.0880   -4.1356   H         1 RES1   0.0000
   374 H229      5.3537   -8.4080   -3.2251   H         1 RES1   0.0000
   375 H230      2.6993   -1.2499   -3.9652   H         1 RES1   0.0000
   376 H231      1.9768   -1.8056   -6.2223   H         1 RES1   0.0000
   377 H232      0.2625   -3.5189   -6.6092   H         1 RES1   0.0000
   378 H233     -0.7987   -4.6483   -4.6573   H         1 RES1   0.0000
   379 H234     -0.1227   -4.0663   -2.3979   H         1 RES1   0.0000
@<TRIPOS>BOND
     1     1    20    1
     2     1    23    1
     3     1    26    1
     4     1   146    1
     5     1   149    1
     6     1   152    1
     7     1   272    1
     8     1   275    1
     9     1   278    1
    10     2     3    1
    11     2    50    1
    12     2    51    1
    13     2    52    1
    14     3     4    1
    15     3    53    1
    16     3    54    1
    17     4     5    1
    18     4    55    1
    19     4    56    1
    20     5     6    1
    21     5    57    1
    22     5    58    1
    23     6     7    1
    24     6    59    1
    25     6    60    1
    26     7     8    1
    27     7    61    1
    28     7    62    1
    29     8     9    1
    30     8    63    1
    31     8    64    1
    32     9    10    1
    33     9    65    1
    34     9    66    1
    35    10    11    1
    36    10    19    1
    37    11    12    1
    38    11    67    1
    39    11    68    1
    40    12    13    1
    41    12    69    1
    42    12    70    1
    43    13    14    1
    44    13    71    1
    45    13    72    1
    46    14    15    1
    47    14    73    1
    48    14    74    1
    49    15    16    1
    50    15    75    1
    51    15    76    1
    52    16    17    1
    53    16    77    1
    54    16    78    1
    55    17    18    1
    56    17    79    1
    57    17    80    1
    58    18    81    1
    59    18    82    1
    60    18    83    1
    61    19    20    2
    62    19    21    1
    63    21    22    1
    64    21    23    1
    65    21    84    1
    66    22    85    1
    67    22    86    1
    68    22    87    1
    69    23    24    1
    70    24    25    1
    71    24    44    1
    72    24    88    1
    73    25    26    2
    74    25    27    1
    75    27    28    1
    76    27    36    1
    77    28    29    1
    78    28    89    1
    79    28    90    1
    80    29    30    1
    81    29    91    1
    82    29    92    1
    83    30    31    1
    84    30    93    1
    85    30    94    1
    86    31    32    1
    87    31    95    1
    88    31    96    1
    89    32    33    1
    90    32    97    1
    91    32    98    1
    92    33    34    1
    93    33    99    1
    94    33   100    1
    95    34    35    1
    96    34   101    1
    97    34   102    1
    98    35   103    1
    99    35   104    1
   100    35   105    1
   101    36    37    1
   102    36   106    1
   103    36   107    1
   104    37    38    1
   105    37   108    1
   106    37   109    1
   107    38    39    1
   108    38   110    1
   109    38   111    1
   110    39    40    1
   111    39   112    1
   112    39   113    1
   113    40    41    1
   114    40   114    1
   115    40   115    1
   116    41    42    1
   117    41   116    1
   118    41   117    1
   119    42    43    1
   120    42   118    1
   121    42   119    1
   122    43   120    1
   123    43   121    1
   124    43   122    1
   125    44    45    1
   126    44    49    2
   127    45    46    2
   128    45   123    1
   129    46    47    1
   130    46   124    1
   131    47    48    2
   132    47   125    1
   133    48    49    1
   134    48   126    1
   135    49   127    1
   136   128   129    1
   137   128   176    1
   138   128   177    1
   139   128   178    1
   140   129   130    1
   141   129   179    1
   142   129   180    1
   143   130   131    1
   144   130   181    1
   145   130   182    1
   146   131   132    1
   147   131   183    1
   148   131   184    1
   149   132   133    1
   150   132   185    1
   151   132   186    1
   152   133   134    1
   153   133   187    1
   154   133   188    1
   155   134   135    1
   156   134   189    1
   157   134   190    1
   158   135   136    1
   159   135   191    1
   160   135   192    1
   161   136   137    1
   162   136   145    1
   163   137   138    1
   164   137   193    1
   165   137   194    1
   166   138   139    1
   167   138   195    1
   168   138   196    1
   169   139   140    1
   170   139   197    1
   171   139   198    1
   172   140   141    1
   173   140   199    1
   174   140   200    1
   175   141   142    1
   176   141   201    1
   177   141   202    1
   178   142   143    1
   179   142   203    1
   180   142   204    1
   181   143   144    1
   182   143   205    1
   183   143   206    1
   184   144   207    1
   185   144   208    1
   186   144   209    1
   187   145   146    2
   188   145   147    1
   189   147   148    1
   190   147   149    1
   191   147   210    1
   192   148   211    1
   193   148   212    1
   194   148   213    1
   195   149   150    1
   196   150   151    1
   197   150   170    1
   198   150   214    1
   199   151   152    2
   200   151   153    1
   201   153   154    1
   202   153   162    1
   203   154   155    1
   204   154   215    1
   205   154   216    1
   206   155   156    1
   207   155   217    1
   208   155   218    1
   209   156   157    1
   210   156   219    1
   211   156   220    1
   212   157   158    1
   213   157   221    1
   214   157   222    1
   215   158   159    1
   216   158   223    1
   217   158   224    1
   218   159   160    1
   219   159   225    1
   220   159   226    1
   221   160   161    1
   222   160   227    1
   223   160   228    1
   224   161   229    1
   225   161   230    1
   226   161   231    1
   227   162   163    1
   228   162   232    1
   229   162   233    1
   230   163   164    1
   231   163   234    1
   232   163   235    1
   233   164   165    1
   234   164   236    1
   235   164   237    1
   236   165   166    1
   237   165   238    1
   238   165   239    1
   239   166   167    1
   240   166   240    1
   241   166   241    1
   242   167   168    1
   243   167   242    1
   244   167   243    1
   245   168   169    1
   246   168   244    1
   247   168   245    1
   248   169   246    1
   249   169   247    1
   250   169   248    1
   251   170   171    1
   252   170   175    2
   253   171   172    2
   254   171   249    1
   255   172   173    1
   256   172   250    1
   257   173   174    2
   258   173   251    1
   259   174   175    1
   260   174   252    1
   261   175   253    1
   262   254   255    1
   263   254   302    1
   264   254   303    1
   265   254   304    1
   266   255   256    1
   267   255   305    1
   268   255   306    1
   269   256   257    1
   270   256   307    1
   271   256   308    1
   272   257   258    1
   273   257   309    1
   274   257   310    1
   275   258   259    1
   276   258   311    1
   277   258   312    1
   278   259   260    1
   279   259   313    1
   280   259   314    1
   281   260   261    1
   282   260   315    1
   283   260   316    1
   284   261   262    1
   285   261   317    1
   286   261   318    1
   287   262   263    1
   288   262   271    1
   289   263   264    1
   290   263   319    1
   291   263   320    1
   292   264   265    1
   293   264   321    1
   294   264   322    1
   295   265   266    1
   296   265   323    1
   297   265   324    1
   298   266   267    1
   299   266   325    1
   300   266   326    1
   301   267   268    1
   302   267   327    1
   303   267   328    1
   304   268   269    1
   305   268   329    1
   306   268   330    1
   307   269   270    1
   308   269   331    1
   309   269   332    1
   310   270   333    1
   311   270   334    1
   312   270   335    1
   313   271   272    2
   314   271   273    1
   315   273   274    1
   316   273   275    1
   317   273   336    1
   318   274   337    1
   319   274   338    1
   320   274   339    1
   321   275   276    1
   322   276   277    1
   323   276   296    1
   324   276   340    1
   325   277   278    2
   326   277   279    1
   327   279   280    1
   328   279   288    1
   329   280   281    1
   330   280   341    1
   331   280   342    1
   332   281   282    1
   333   281   343    1
   334   281   344    1
   335   282   283    1
   336   282   345    1
   337   282   346    1
   338   283   284    1
   339   283   347    1
   340   283   348    1
   341   284   285    1
   342   284   349    1
   343   284   350    1
   344   285   286    1
   345   285   351    1
   346   285   352    1
   347   286   287    1
   348   286   353    1
   349   286   354    1
   350   287   355    1
   351   287   356    1
   352   287   357    1
   353   288   289    1
   354   288   358    1
   355   288   359    1
   356   289   290    1
   357   289   360    1
   358   289   361    1
   359   290   291    1
   360   290   362    1
   361   290   363    1
   362   291   292    1
   363   291   364    1
   364   291   365    1
   365   292   293    1
   366   292   366    1
   367   292   367    1
   368   293   294    1
   369   293   368    1
   370   293   369    1
   371   294   295    1
   372   294   370    1
   373   294   371    1
   374   295   372    1
   375   295   373    1
   376   295   374    1
   377   296   297    1
   378   296   301    2
   379   297   298    2
   380   297   375    1
   381   298   299    1
   382   298   376    1
   383   299   300    2
   384   299   377    1
   385   300   301    1
   386   300   378    1
   387   301   379    1
@<TRIPOS>SUBSTRUCTURE
     1 RES1      379 GROUP             0 ****  ****    0  
