@<TRIPOS>MOLECULE
am_c3_9H2O_c0_0_nunpairedes_0_charge_3 Charge: 3 Unpaired_Electrons: 6 XTB_Unpaired_Electrons: 0 XTB_Charge: 3
   343   348     1     0     0
SMALL
NoCharges
****
Generated from Architector

@<TRIPOS>ATOM
     1 Eu1      -0.2034    0.2974   -0.0920   Eu        1 RES1   0.0000
     2 C1       -7.9098    1.0329    0.8513   C.3       1 RES1   0.0000
     3 C2       -7.7031    1.0453   -0.6589   C.3       1 RES1   0.0000
     4 C3       -6.2229    1.0908   -1.0318   C.3       1 RES1   0.0000
     5 C4       -6.0079    1.0671   -2.5438   C.3       1 RES1   0.0000
     6 C5       -4.5387    1.2063   -2.9492   C.3       1 RES1   0.0000
     7 C6       -4.0363    2.6422   -2.8186   C.3       1 RES1   0.0000
     8 C7       -2.5422    2.7486   -3.1119   C.3       1 RES1   0.0000
     9 C8       -1.9100    3.9998   -2.4940   C.3       1 RES1   0.0000
    10 N1       -2.2313    4.1260   -1.0725   N.am      1 RES1   0.0000
    11 C9       -3.0325    5.2320   -0.5481   C.3       1 RES1   0.0000
    12 C10      -3.1095    6.5114   -1.3963   C.3       1 RES1   0.0000
    13 C11      -4.1266    6.5356   -2.5492   C.3       1 RES1   0.0000
    14 C12      -5.5487    6.1603   -2.1417   C.3       1 RES1   0.0000
    15 C13      -6.4633    6.0049   -3.3563   C.3       1 RES1   0.0000
    16 C14      -7.7523    5.2868   -2.9730   C.3       1 RES1   0.0000
    17 C15      -8.7606    5.1952   -4.1122   C.3       1 RES1   0.0000
    18 C16      -9.9887    4.4117   -3.6716   C.3       1 RES1   0.0000
    19 C17      -1.8331    3.1082   -0.3240   C.2       1 RES1   0.0000
    20 O1       -1.0539    2.2459   -0.7867   O.2       1 RES1   0.0000
    21 C18      -2.2718    2.9287    1.1349   C.3       1 RES1   0.0000
    22 N2       -2.0905    1.5067    1.4984   N.4       1 RES1   0.0000
    23 C19      -3.3218    0.6964    1.4036   C.3       1 RES1   0.0000
    24 C20      -3.0599   -0.7259    0.8621   C.2       1 RES1   0.0000
    25 O2       -2.2645   -0.7772   -0.0940   O.2       1 RES1   0.0000
    26 N3       -3.7397   -1.7911    1.2915   N.am      1 RES1   0.0000
    27 C21      -4.0368   -2.9583    0.4352   C.3       1 RES1   0.0000
    28 C22      -2.9607   -3.5693   -0.4716   C.3       1 RES1   0.0000
    29 C23      -2.4667   -4.9525   -0.0241   C.3       1 RES1   0.0000
    30 C24      -1.6896   -5.6072   -1.1816   C.3       1 RES1   0.0000
    31 C25      -0.3791   -6.3122   -0.8152   C.3       1 RES1   0.0000
    32 C26      -0.5226   -7.7928   -0.4693   C.3       1 RES1   0.0000
    33 C27       0.8140   -8.4373   -0.0952   C.3       1 RES1   0.0000
    34 C28       1.3589   -7.9897    1.2530   C.3       1 RES1   0.0000
    35 C29      -4.5014   -1.8802    2.5372   C.3       1 RES1   0.0000
    36 C30      -3.8605   -2.8926    3.5005   C.3       1 RES1   0.0000
    37 C31      -4.3395   -2.7623    4.9507   C.3       1 RES1   0.0000
    38 C32      -3.4638   -3.6254    5.8745   C.3       1 RES1   0.0000
    39 C33      -3.1584   -3.0067    7.2437   C.3       1 RES1   0.0000
    40 C34      -1.7817   -3.4466    7.7449   C.3       1 RES1   0.0000
    41 C35      -1.1833   -2.5390    8.8212   C.3       1 RES1   0.0000
    42 C36       0.3238   -2.7569    8.9306   C.3       1 RES1   0.0000
    43 H1       -8.9706    1.0199    1.0810   H         1 RES1   0.0000
    44 H2       -7.4686    1.9168    1.3106   H         1 RES1   0.0000
    45 H3       -7.4604    0.1476    1.2990   H         1 RES1   0.0000
    46 H4       -8.2043    1.9167   -1.0843   H         1 RES1   0.0000
    47 H5       -8.1563    0.1533   -1.0954   H         1 RES1   0.0000
    48 H6       -5.7117    0.2317   -0.5838   H         1 RES1   0.0000
    49 H7       -5.7878    1.9998   -0.6033   H         1 RES1   0.0000
    50 H8       -6.5850    1.8750   -2.9970   H         1 RES1   0.0000
    51 H9       -6.4013    0.1268   -2.9347   H         1 RES1   0.0000
    52 H10      -4.4327    0.8870   -3.9864   H         1 RES1   0.0000
    53 H11      -3.9168    0.5444   -2.3322   H         1 RES1   0.0000
    54 H12      -4.2295    2.9760   -1.7987   H         1 RES1   0.0000
    55 H13      -4.5979    3.2898   -3.4928   H         1 RES1   0.0000
    56 H14      -2.3656    2.7971   -4.1822   H         1 RES1   0.0000
    57 H15      -2.0452    1.8449   -2.7491   H         1 RES1   0.0000
    58 H16      -2.2651    4.8861   -3.0050   H         1 RES1   0.0000
    59 H17      -0.8221    3.9425   -2.5879   H         1 RES1   0.0000
    60 H18      -2.5966    5.5108    0.4156   H         1 RES1   0.0000
    61 H19      -4.0601    4.8976   -0.3751   H         1 RES1   0.0000
    62 H20      -2.1211    6.7657   -1.7812   H         1 RES1   0.0000
    63 H21      -3.3947    7.3053   -0.7011   H         1 RES1   0.0000
    64 H22      -3.8304    5.8777   -3.3686   H         1 RES1   0.0000
    65 H23      -4.1340    7.5516   -2.9513   H         1 RES1   0.0000
    66 H24      -5.9557    6.9176   -1.4710   H         1 RES1   0.0000
    67 H25      -5.5535    5.2067   -1.6080   H         1 RES1   0.0000
    68 H26      -5.9434    5.4380   -4.1340   H         1 RES1   0.0000
    69 H27      -6.6995    6.9841   -3.7690   H         1 RES1   0.0000
    70 H28      -8.2172    5.8137   -2.1380   H         1 RES1   0.0000
    71 H29      -7.5066    4.2776   -2.6293   H         1 RES1   0.0000
    72 H30      -8.3068    4.7079   -4.9763   H         1 RES1   0.0000
    73 H31      -9.0523    6.2008   -4.4169   H         1 RES1   0.0000
    74 H32      -9.7242    3.3829   -3.4344   H         1 RES1   0.0000
    75 H33     -10.7414    4.3967   -4.4530   H         1 RES1   0.0000
    76 H34     -10.4182    4.8662   -2.7828   H         1 RES1   0.0000
    77 H35      -3.3005    3.2773    1.2792   H         1 RES1   0.0000
    78 H36      -1.6229    3.5447    1.7675   H         1 RES1   0.0000
    79 H37      -1.7552    1.4441    2.4606   H         1 RES1   0.0000
    80 H38      -3.9455    1.1299    0.6126   H         1 RES1   0.0000
    81 H39      -3.8921    0.7369    2.3341   H         1 RES1   0.0000
    82 H40      -4.8918   -2.6790   -0.1891   H         1 RES1   0.0000
    83 H41      -4.3827   -3.7325    1.1154   H         1 RES1   0.0000
    84 H42      -2.1193   -2.8859   -0.5832   H         1 RES1   0.0000
    85 H43      -3.4027   -3.6961   -1.4619   H         1 RES1   0.0000
    86 H44      -3.3220   -5.5696    0.2518   H         1 RES1   0.0000
    87 H45      -1.8446   -4.8657    0.8704   H         1 RES1   0.0000
    88 H46      -1.4555   -4.8183   -1.9009   H         1 RES1   0.0000
    89 H47      -2.3315   -6.3240   -1.6907   H         1 RES1   0.0000
    90 H48       0.0933   -5.7945    0.0213   H         1 RES1   0.0000
    91 H49       0.2930   -6.2500   -1.6744   H         1 RES1   0.0000
    92 H50      -0.9340   -8.3171   -1.3327   H         1 RES1   0.0000
    93 H51      -1.2273   -7.9288    0.3501   H         1 RES1   0.0000
    94 H52       1.5558   -8.2147   -0.8637   H         1 RES1   0.0000
    95 H53       0.6751   -9.5176   -0.0699   H         1 RES1   0.0000
    96 H54       1.5837   -6.9267    1.2587   H         1 RES1   0.0000
    97 H55       2.2715   -8.5304    1.4748   H         1 RES1   0.0000
    98 H56       0.6542   -8.1954    2.0498   H         1 RES1   0.0000
    99 H57      -5.5216   -2.1811    2.2893   H         1 RES1   0.0000
   100 H58      -4.5438   -0.9148    3.0314   H         1 RES1   0.0000
   101 H59      -2.7798   -2.7299    3.4826   H         1 RES1   0.0000
   102 H60      -4.0414   -3.9146    3.1673   H         1 RES1   0.0000
   103 H61      -5.3853   -3.0514    5.0395   H         1 RES1   0.0000
   104 H62      -4.2630   -1.7158    5.2420   H         1 RES1   0.0000
   105 H63      -2.5006   -3.7687    5.3854   H         1 RES1   0.0000
   106 H64      -3.9030   -4.6159    5.9922   H         1 RES1   0.0000
   107 H65      -3.9183   -3.2709    7.9742   H         1 RES1   0.0000
   108 H66      -3.1635   -1.9159    7.1605   H         1 RES1   0.0000
   109 H67      -1.0927   -3.4463    6.8945   H         1 RES1   0.0000
   110 H68      -1.8312   -4.4682    8.1191   H         1 RES1   0.0000
   111 H69      -1.6460   -2.7390    9.7874   H         1 RES1   0.0000
   112 H70      -1.3836   -1.4891    8.5795   H         1 RES1   0.0000
   113 H71       0.5453   -3.8005    9.1399   H         1 RES1   0.0000
   114 H72       0.7331   -2.1510    9.7333   H         1 RES1   0.0000
   115 H73       0.8270   -2.4912    7.9996   H         1 RES1   0.0000
   116 C37       9.4081   -2.4500    0.0330   C.3       1 RES1   0.0000
   117 C38       9.4536   -1.1075   -0.6865   C.3       1 RES1   0.0000
   118 C39       8.0974   -0.4039   -0.6407   C.3       1 RES1   0.0000
   119 C40       8.0642    0.8452   -1.5199   C.3       1 RES1   0.0000
   120 C41       6.8178    1.7066   -1.2943   C.3       1 RES1   0.0000
   121 C42       6.5354    2.5935   -2.5045   C.3       1 RES1   0.0000
   122 C43       5.2303    3.3903   -2.3971   C.3       1 RES1   0.0000
   123 C44       4.0027    2.7853   -3.0994   C.3       1 RES1   0.0000
   124 N4        3.3868    1.5788   -2.5441   N.am      1 RES1   0.0000
   125 C45       3.4692    0.3335   -3.3151   C.3       1 RES1   0.0000
   126 C46       4.7306   -0.4868   -3.0285   C.3       1 RES1   0.0000
   127 C47       4.6031   -1.9757   -3.3611   C.3       1 RES1   0.0000
   128 C48       5.9794   -2.6692   -3.4202   C.3       1 RES1   0.0000
   129 C49       6.4153   -2.9142   -4.8662   C.3       1 RES1   0.0000
   130 C50       7.8519   -3.4155   -5.0128   C.3       1 RES1   0.0000
   131 C51       8.1066   -3.9517   -6.4232   C.3       1 RES1   0.0000
   132 C52       9.5724   -4.2952   -6.6478   C.3       1 RES1   0.0000
   133 C53       2.5321    1.5898   -1.5220   C.2       1 RES1   0.0000
   134 O3        1.8726    0.5817   -1.2021   O.2       1 RES1   0.0000
   135 C54       2.3623    2.8724   -0.7077   C.3       1 RES1   0.0000
   136 N5        1.3839    2.7144    0.3809   N.4       1 RES1   0.0000
   137 C55       1.9959    2.6545    1.7112   C.3       1 RES1   0.0000
   138 C56       2.3648    1.2039    2.0356   C.2       1 RES1   0.0000
   139 O4        1.7104    0.3225    1.4507   O.2       1 RES1   0.0000
   140 N6        3.3128    0.9517    2.9301   N.am      1 RES1   0.0000
   141 C57       3.9415    2.0141    3.7169   C.3       1 RES1   0.0000
   142 C58       5.1441    2.6801    3.0367   C.3       1 RES1   0.0000
   143 C59       6.4204    1.8391    2.9714   C.3       1 RES1   0.0000
   144 C60       7.6094    2.7484    2.6544   C.3       1 RES1   0.0000
   145 C61       8.9367    2.0182    2.4481   C.3       1 RES1   0.0000
   146 C62       9.4387    1.2519    3.6801   C.3       1 RES1   0.0000
   147 C63       9.2626   -0.2621    3.5622   C.3       1 RES1   0.0000
   148 C64       9.7439   -0.9839    4.8151   C.3       1 RES1   0.0000
   149 C65       3.6276   -0.4033    3.4070   C.3       1 RES1   0.0000
   150 C66       3.6204   -1.5482    2.3960   C.3       1 RES1   0.0000
   151 C67       4.7996   -1.5387    1.4266   C.3       1 RES1   0.0000
   152 C68       4.7562   -2.7006    0.4290   C.3       1 RES1   0.0000
   153 C69       4.8249   -4.0935    1.0612   C.3       1 RES1   0.0000
   154 C70       5.0022   -5.2121    0.0272   C.3       1 RES1   0.0000
   155 C71       3.7672   -5.4581   -0.8383   C.3       1 RES1   0.0000
   156 C72       3.9936   -6.5850   -1.8360   C.3       1 RES1   0.0000
   157 H74      10.3916   -2.9099    0.0401   H         1 RES1   0.0000
   158 H75       9.0828   -2.3212    1.0637   H         1 RES1   0.0000
   159 H76       8.7178   -3.1277   -0.4663   H         1 RES1   0.0000
   160 H77      10.2043   -0.4669   -0.2192   H         1 RES1   0.0000
   161 H78       9.7548   -1.2600   -1.7251   H         1 RES1   0.0000
   162 H79       7.3201   -1.1001   -0.9704   H         1 RES1   0.0000
   163 H80       7.8753   -0.1351    0.3952   H         1 RES1   0.0000
   164 H81       8.9517    1.4471   -1.3221   H         1 RES1   0.0000
   165 H82       8.1100    0.5356   -2.5668   H         1 RES1   0.0000
   166 H83       5.9561    1.0676   -1.0941   H         1 RES1   0.0000
   167 H84       6.9697    2.3322   -0.4124   H         1 RES1   0.0000
   168 H85       7.3664    3.2913   -2.6038   H         1 RES1   0.0000
   169 H86       6.5221    1.9857   -3.4092   H         1 RES1   0.0000
   170 H87       5.0251    3.5901   -1.3462   H         1 RES1   0.0000
   171 H88       5.3742    4.3598   -2.8769   H         1 RES1   0.0000
   172 H89       3.2322    3.5646   -3.1556   H         1 RES1   0.0000
   173 H90       4.2962    2.5465   -4.1227   H         1 RES1   0.0000
   174 H91       2.5802   -0.2463   -3.0528   H         1 RES1   0.0000
   175 H92       3.4173    0.5952   -4.3723   H         1 RES1   0.0000
   176 H93       5.5639   -0.0746   -3.5939   H         1 RES1   0.0000
   177 H94       4.9605   -0.4022   -1.9669   H         1 RES1   0.0000
   178 H95       3.9751   -2.4539   -2.6057   H         1 RES1   0.0000
   179 H96       4.1125   -2.1079   -4.3251   H         1 RES1   0.0000
   180 H97       6.7257   -2.0462   -2.9241   H         1 RES1   0.0000
   181 H98       5.9495   -3.6305   -2.9007   H         1 RES1   0.0000
   182 H99       5.7457   -3.6572   -5.3097   H         1 RES1   0.0000
   183 H100      6.3172   -1.9845   -5.4312   H         1 RES1   0.0000
   184 H101      8.5516   -2.6039   -4.7977   H         1 RES1   0.0000
   185 H102      8.0394   -4.2110   -4.2889   H         1 RES1   0.0000
   186 H103      7.5000   -4.8477   -6.5768   H         1 RES1   0.0000
   187 H104      7.7886   -3.2087   -7.1599   H         1 RES1   0.0000
   188 H105      9.9210   -4.9975   -5.8949   H         1 RES1   0.0000
   189 H106      9.7050   -4.7474   -7.6260   H         1 RES1   0.0000
   190 H107     10.1907   -3.4029   -6.5964   H         1 RES1   0.0000
   191 H108      3.3419    3.1540   -0.3032   H         1 RES1   0.0000
   192 H109      2.0304    3.6644   -1.3853   H         1 RES1   0.0000
   193 H110      0.7700    3.5234    0.3611   H         1 RES1   0.0000
   194 H111      2.8551    3.3259    1.7880   H         1 RES1   0.0000
   195 H112      1.2488    2.9635    2.4498   H         1 RES1   0.0000
   196 H113      3.1944    2.7694    3.9752   H         1 RES1   0.0000
   197 H114      4.2774    1.5824    4.6611   H         1 RES1   0.0000
   198 H115      4.8856    2.9911    2.0221   H         1 RES1   0.0000
   199 H116      5.3680    3.5838    3.6060   H         1 RES1   0.0000
   200 H117      6.5967    1.3488    3.9288   H         1 RES1   0.0000
   201 H118      6.3249    1.0710    2.2022   H         1 RES1   0.0000
   202 H119      7.3873    3.3227    1.7504   H         1 RES1   0.0000
   203 H120      7.7231    3.4663    3.4690   H         1 RES1   0.0000
   204 H121      8.8516    1.3295    1.6069   H         1 RES1   0.0000
   205 H122      9.6739    2.7705    2.1673   H         1 RES1   0.0000
   206 H123     10.5003    1.4547    3.8244   H         1 RES1   0.0000
   207 H124      8.9261    1.6104    4.5743   H         1 RES1   0.0000
   208 H125      8.2101   -0.5070    3.3857   H         1 RES1   0.0000
   209 H126      9.8373   -0.6169    2.7038   H         1 RES1   0.0000
   210 H127      9.1622   -0.6812    5.6837   H         1 RES1   0.0000
   211 H128      9.6546   -2.0614    4.6961   H         1 RES1   0.0000
   212 H129     10.7869   -0.7507    5.0110   H         1 RES1   0.0000
   213 H130      4.6242   -0.3541    3.8460   H         1 RES1   0.0000
   214 H131      2.9163   -0.6343    4.2099   H         1 RES1   0.0000
   215 H132      3.6626   -2.4652    2.9859   H         1 RES1   0.0000
   216 H133      2.6858   -1.5364    1.8427   H         1 RES1   0.0000
   217 H134      4.8019   -0.6002    0.8654   H         1 RES1   0.0000
   218 H135      5.7290   -1.5901    1.9943   H         1 RES1   0.0000
   219 H136      3.8474   -2.6134   -0.1724   H         1 RES1   0.0000
   220 H137      5.6086   -2.5973   -0.2440   H         1 RES1   0.0000
   221 H138      5.6711   -4.1215    1.7511   H         1 RES1   0.0000
   222 H139      3.9201   -4.2970    1.6413   H         1 RES1   0.0000
   223 H140      5.8568   -4.9819   -0.6116   H         1 RES1   0.0000
   224 H141      5.2398   -6.1353    0.5578   H         1 RES1   0.0000
   225 H142      2.9249   -5.7150   -0.1913   H         1 RES1   0.0000
   226 H143      3.5115   -4.5485   -1.3878   H         1 RES1   0.0000
   227 H144      4.2375   -7.5094   -1.3224   H         1 RES1   0.0000
   228 H145      3.1022   -6.7488   -2.4350   H         1 RES1   0.0000
   229 H146      4.8146   -6.3481   -2.5060   H         1 RES1   0.0000
   230 C73      -5.7383    2.0911    8.5618   C.3       1 RES1   0.0000
   231 C74      -4.3457    1.4906    8.6997   C.3       1 RES1   0.0000
   232 C75      -3.4018    1.8666    7.5513   C.3       1 RES1   0.0000
   233 C76      -3.5488    0.9545    6.3333   C.3       1 RES1   0.0000
   234 C77      -2.6197    1.3401    5.1736   C.3       1 RES1   0.0000
   235 C78      -1.2474    0.6553    5.1810   C.3       1 RES1   0.0000
   236 C79      -1.2870   -0.7965    4.6820   C.3       1 RES1   0.0000
   237 C80       0.1247   -1.3050    4.3694   C.3       1 RES1   0.0000
   238 N7        0.2061   -2.4058    3.3933   N.am      1 RES1   0.0000
   239 C81       0.7767   -3.6644    3.8851   C.3       1 RES1   0.0000
   240 C82       0.2346   -4.9695    3.2752   C.3       1 RES1   0.0000
   241 C83      -0.9465   -5.5844    4.0269   C.3       1 RES1   0.0000
   242 C84      -1.5450   -6.7871    3.2766   C.3       1 RES1   0.0000
   243 C85      -3.0608   -6.8988    3.4794   C.3       1 RES1   0.0000
   244 C86      -3.7516   -7.8654    2.5002   C.3       1 RES1   0.0000
   245 C87      -5.1222   -7.3456    2.0408   C.3       1 RES1   0.0000
   246 C88      -5.5571   -7.9381    0.7041   C.3       1 RES1   0.0000
   247 C89       0.0479   -2.0362    2.1173   C.2       1 RES1   0.0000
   248 O5       -0.4654   -0.9283    1.8593   O.2       1 RES1   0.0000
   249 C90       0.5314   -2.8813    0.9262   C.3       1 RES1   0.0000
   250 N8        0.7925   -1.9784   -0.2030   N.4       1 RES1   0.0000
   251 C91       0.9259   -2.5678   -1.5450   C.3       1 RES1   0.0000
   252 C92       0.1705   -1.7032   -2.5837   C.2       1 RES1   0.0000
   253 O6       -0.4005   -0.6736   -2.1723   O.2       1 RES1   0.0000
   254 N9        0.0519   -2.0818   -3.8580   N.am      1 RES1   0.0000
   255 C93      -1.0428   -1.4516   -4.6128   C.3       1 RES1   0.0000
   256 C94      -0.7712   -0.0404   -5.1456   C.3       1 RES1   0.0000
   257 C95      -1.9387    0.4828   -5.9935   C.3       1 RES1   0.0000
   258 C96      -1.4932    1.6204   -6.9170   C.3       1 RES1   0.0000
   259 C97      -2.6589    2.3938   -7.5376   C.3       1 RES1   0.0000
   260 C98      -3.2578    3.4481   -6.6013   C.3       1 RES1   0.0000
   261 C99      -3.8308    4.6509   -7.3515   C.3       1 RES1   0.0000
   262 C100     -2.7552    5.6246   -7.8119   C.3       1 RES1   0.0000
   263 C101      0.7923   -3.1986   -4.4560   C.3       1 RES1   0.0000
   264 C102      1.0542   -3.0862   -5.9683   C.3       1 RES1   0.0000
   265 C103      1.7544   -1.7887   -6.4128   C.3       1 RES1   0.0000
   266 C104      3.1388   -1.9567   -7.0493   C.3       1 RES1   0.0000
   267 C105      3.6942   -0.5677   -7.3823   C.3       1 RES1   0.0000
   268 C106      5.1396   -0.5501   -7.8811   C.3       1 RES1   0.0000
   269 C107      5.7895    0.8042   -7.6102   C.3       1 RES1   0.0000
   270 C108      7.1812    0.9117   -8.2122   C.3       1 RES1   0.0000
   271 H147     -6.4072    1.6599    9.2994   H         1 RES1   0.0000
   272 H148     -6.1597    1.9045    7.5793   H         1 RES1   0.0000
   273 H149     -5.7033    3.1649    8.7183   H         1 RES1   0.0000
   274 H150     -4.4181    0.4051    8.7698   H         1 RES1   0.0000
   275 H151     -3.9119    1.8456    9.6329   H         1 RES1   0.0000
   276 H152     -2.3668    1.8205    7.8966   H         1 RES1   0.0000
   277 H153     -3.6036    2.8964    7.2503   H         1 RES1   0.0000
   278 H154     -4.5829    0.9950    5.9822   H         1 RES1   0.0000
   279 H155     -3.3443   -0.0729    6.6369   H         1 RES1   0.0000
   280 H156     -2.4557    2.4201    5.2046   H         1 RES1   0.0000
   281 H157     -3.1236    1.0932    4.2340   H         1 RES1   0.0000
   282 H158     -0.8358    0.6990    6.1897   H         1 RES1   0.0000
   283 H159     -0.5854    1.2271    4.5168   H         1 RES1   0.0000
   284 H160     -1.7640   -1.4389    5.4196   H         1 RES1   0.0000
   285 H161     -1.8568   -0.8226    3.7527   H         1 RES1   0.0000
   286 H162      0.6764   -0.4680    3.9240   H         1 RES1   0.0000
   287 H163      0.6321   -1.6270    5.2814   H         1 RES1   0.0000
   288 H164      0.5998   -3.6960    4.9647   H         1 RES1   0.0000
   289 H165      1.8639   -3.6117    3.7477   H         1 RES1   0.0000
   290 H166      1.0509   -5.6881    3.2622   H         1 RES1   0.0000
   291 H167     -0.0882   -4.8085    2.2536   H         1 RES1   0.0000
   292 H168     -1.7151   -4.8196    4.1269   H         1 RES1   0.0000
   293 H169     -0.6369   -5.8878    5.0274   H         1 RES1   0.0000
   294 H170     -1.0500   -7.7070    3.5916   H         1 RES1   0.0000
   295 H171     -1.3672   -6.6682    2.2057   H         1 RES1   0.0000
   296 H172     -3.4844   -5.9032    3.3155   H         1 RES1   0.0000
   297 H173     -3.2783   -7.1783    4.5113   H         1 RES1   0.0000
   298 H174     -3.8739   -8.8507    2.9507   H         1 RES1   0.0000
   299 H175     -3.1191   -7.9994    1.6181   H         1 RES1   0.0000
   300 H176     -5.0815   -6.2538    1.9383   H         1 RES1   0.0000
   301 H177     -5.8774   -7.5637    2.7965   H         1 RES1   0.0000
   302 H178     -4.8228   -7.7149   -0.0694   H         1 RES1   0.0000
   303 H179     -6.5148   -7.5185    0.4069   H         1 RES1   0.0000
   304 H180     -5.6678   -9.0168    0.7639   H         1 RES1   0.0000
   305 H181     -0.2705   -3.5569    0.6210   H         1 RES1   0.0000
   306 H182      1.4135   -3.4674    1.2139   H         1 RES1   0.0000
   307 H183      1.6371   -1.4372   -0.0044   H         1 RES1   0.0000
   308 H184      0.4769   -3.5629   -1.5590   H         1 RES1   0.0000
   309 H185      1.9814   -2.6702   -1.8227   H         1 RES1   0.0000
   310 H186     -1.9027   -1.3987   -3.9379   H         1 RES1   0.0000
   311 H187     -1.2922   -2.1147   -5.4373   H         1 RES1   0.0000
   312 H188      0.1213   -0.0353   -5.7643   H         1 RES1   0.0000
   313 H189     -0.6052    0.6362   -4.3042   H         1 RES1   0.0000
   314 H190     -2.7332    0.8333   -5.3368   H         1 RES1   0.0000
   315 H191     -2.3488   -0.3171   -6.6125   H         1 RES1   0.0000
   316 H192     -0.8786    1.2006   -7.7147   H         1 RES1   0.0000
   317 H193     -0.8635    2.3185   -6.3610   H         1 RES1   0.0000
   318 H194     -3.4366    1.6931   -7.8455   H         1 RES1   0.0000
   319 H195     -2.2986    2.8994   -8.4321   H         1 RES1   0.0000
   320 H196     -2.4803    3.8243   -5.9305   H         1 RES1   0.0000
   321 H197     -4.0409    2.9925   -5.9918   H         1 RES1   0.0000
   322 H198     -4.5240    5.1850   -6.6999   H         1 RES1   0.0000
   323 H199     -4.3990    4.3001   -8.2107   H         1 RES1   0.0000
   324 H200     -2.1575    5.9693   -6.9715   H         1 RES1   0.0000
   325 H201     -3.2188    6.4892   -8.2731   H         1 RES1   0.0000
   326 H202     -2.0872    5.1739   -8.5385   H         1 RES1   0.0000
   327 H203      0.2431   -4.1324   -4.2809   H         1 RES1   0.0000
   328 H204      1.7540   -3.2660   -3.9453   H         1 RES1   0.0000
   329 H205      0.1191   -3.1959   -6.5147   H         1 RES1   0.0000
   330 H206      1.6693   -3.9462   -6.2405   H         1 RES1   0.0000
   331 H207      1.8769   -1.1379   -5.5421   H         1 RES1   0.0000
   332 H208      1.1241   -1.2700   -7.1422   H         1 RES1   0.0000
   333 H209      3.0705   -2.5621   -7.9534   H         1 RES1   0.0000
   334 H210      3.8199   -2.4621   -6.3597   H         1 RES1   0.0000
   335 H211      3.6380    0.0480   -6.4764   H         1 RES1   0.0000
   336 H212      3.0484   -0.1008   -8.1280   H         1 RES1   0.0000
   337 H213      5.1675   -0.7548   -8.9497   H         1 RES1   0.0000
   338 H214      5.7090   -1.3358   -7.3824   H         1 RES1   0.0000
   339 H215      5.8449    0.9653   -6.5281   H         1 RES1   0.0000
   340 H216      5.1624    1.5925   -8.0290   H         1 RES1   0.0000
   341 H217      7.8219    0.1027   -7.8664   H         1 RES1   0.0000
   342 H218      7.6307    1.8634   -7.9383   H         1 RES1   0.0000
   343 H219      7.1218    0.8552   -9.2953   H         1 RES1   0.0000
@<TRIPOS>BOND
     1     1    20    1
     2     1    22    1
     3     1    25    1
     4     1   134    1
     5     1   136    1
     6     1   139    1
     7     1   248    1
     8     1   250    1
     9     1   253    1
    10     2     3    1
    11     2    43    1
    12     2    44    1
    13     2    45    1
    14     3     4    1
    15     3    46    1
    16     3    47    1
    17     4     5    1
    18     4    48    1
    19     4    49    1
    20     5     6    1
    21     5    50    1
    22     5    51    1
    23     6     7    1
    24     6    52    1
    25     6    53    1
    26     7     8    1
    27     7    54    1
    28     7    55    1
    29     8     9    1
    30     8    56    1
    31     8    57    1
    32     9    10    1
    33     9    58    1
    34     9    59    1
    35    10    11    1
    36    10    19    1
    37    11    12    1
    38    11    60    1
    39    11    61    1
    40    12    13    1
    41    12    62    1
    42    12    63    1
    43    13    14    1
    44    13    64    1
    45    13    65    1
    46    14    15    1
    47    14    66    1
    48    14    67    1
    49    15    16    1
    50    15    68    1
    51    15    69    1
    52    16    17    1
    53    16    70    1
    54    16    71    1
    55    17    18    1
    56    17    72    1
    57    17    73    1
    58    18    74    1
    59    18    75    1
    60    18    76    1
    61    19    20    2
    62    19    21    1
    63    21    22    1
    64    21    77    1
    65    21    78    1
    66    22    23    1
    67    22    79    1
    68    23    24    1
    69    23    80    1
    70    23    81    1
    71    24    25    2
    72    24    26    1
    73    26    27    1
    74    26    35    1
    75    27    28    1
    76    27    82    1
    77    27    83    1
    78    28    29    1
    79    28    84    1
    80    28    85    1
    81    29    30    1
    82    29    86    1
    83    29    87    1
    84    30    31    1
    85    30    88    1
    86    30    89    1
    87    31    32    1
    88    31    90    1
    89    31    91    1
    90    32    33    1
    91    32    92    1
    92    32    93    1
    93    33    34    1
    94    33    94    1
    95    33    95    1
    96    34    96    1
    97    34    97    1
    98    34    98    1
    99    35    36    1
   100    35    99    1
   101    35   100    1
   102    36    37    1
   103    36   101    1
   104    36   102    1
   105    37    38    1
   106    37   103    1
   107    37   104    1
   108    38    39    1
   109    38   105    1
   110    38   106    1
   111    39    40    1
   112    39   107    1
   113    39   108    1
   114    40    41    1
   115    40   109    1
   116    40   110    1
   117    41    42    1
   118    41   111    1
   119    41   112    1
   120    42   113    1
   121    42   114    1
   122    42   115    1
   123   116   117    1
   124   116   157    1
   125   116   158    1
   126   116   159    1
   127   117   118    1
   128   117   160    1
   129   117   161    1
   130   118   119    1
   131   118   162    1
   132   118   163    1
   133   119   120    1
   134   119   164    1
   135   119   165    1
   136   120   121    1
   137   120   166    1
   138   120   167    1
   139   121   122    1
   140   121   168    1
   141   121   169    1
   142   122   123    1
   143   122   170    1
   144   122   171    1
   145   123   124    1
   146   123   172    1
   147   123   173    1
   148   124   125    1
   149   124   133    1
   150   125   126    1
   151   125   174    1
   152   125   175    1
   153   126   127    1
   154   126   176    1
   155   126   177    1
   156   127   128    1
   157   127   178    1
   158   127   179    1
   159   128   129    1
   160   128   180    1
   161   128   181    1
   162   129   130    1
   163   129   182    1
   164   129   183    1
   165   130   131    1
   166   130   184    1
   167   130   185    1
   168   131   132    1
   169   131   186    1
   170   131   187    1
   171   132   188    1
   172   132   189    1
   173   132   190    1
   174   133   134    2
   175   133   135    1
   176   135   136    1
   177   135   191    1
   178   135   192    1
   179   136   137    1
   180   136   193    1
   181   137   138    1
   182   137   194    1
   183   137   195    1
   184   138   139    2
   185   138   140    1
   186   140   141    1
   187   140   149    1
   188   141   142    1
   189   141   196    1
   190   141   197    1
   191   142   143    1
   192   142   198    1
   193   142   199    1
   194   143   144    1
   195   143   200    1
   196   143   201    1
   197   144   145    1
   198   144   202    1
   199   144   203    1
   200   145   146    1
   201   145   204    1
   202   145   205    1
   203   146   147    1
   204   146   206    1
   205   146   207    1
   206   147   148    1
   207   147   208    1
   208   147   209    1
   209   148   210    1
   210   148   211    1
   211   148   212    1
   212   149   150    1
   213   149   213    1
   214   149   214    1
   215   150   151    1
   216   150   215    1
   217   150   216    1
   218   151   152    1
   219   151   217    1
   220   151   218    1
   221   152   153    1
   222   152   219    1
   223   152   220    1
   224   153   154    1
   225   153   221    1
   226   153   222    1
   227   154   155    1
   228   154   223    1
   229   154   224    1
   230   155   156    1
   231   155   225    1
   232   155   226    1
   233   156   227    1
   234   156   228    1
   235   156   229    1
   236   230   231    1
   237   230   271    1
   238   230   272    1
   239   230   273    1
   240   231   232    1
   241   231   274    1
   242   231   275    1
   243   232   233    1
   244   232   276    1
   245   232   277    1
   246   233   234    1
   247   233   278    1
   248   233   279    1
   249   234   235    1
   250   234   280    1
   251   234   281    1
   252   235   236    1
   253   235   282    1
   254   235   283    1
   255   236   237    1
   256   236   284    1
   257   236   285    1
   258   237   238    1
   259   237   286    1
   260   237   287    1
   261   238   239    1
   262   238   247    1
   263   239   240    1
   264   239   288    1
   265   239   289    1
   266   240   241    1
   267   240   290    1
   268   240   291    1
   269   241   242    1
   270   241   292    1
   271   241   293    1
   272   242   243    1
   273   242   294    1
   274   242   295    1
   275   243   244    1
   276   243   296    1
   277   243   297    1
   278   244   245    1
   279   244   298    1
   280   244   299    1
   281   245   246    1
   282   245   300    1
   283   245   301    1
   284   246   302    1
   285   246   303    1
   286   246   304    1
   287   247   248    2
   288   247   249    1
   289   249   250    1
   290   249   305    1
   291   249   306    1
   292   250   251    1
   293   250   307    1
   294   251   252    1
   295   251   308    1
   296   251   309    1
   297   252   253    2
   298   252   254    1
   299   254   255    1
   300   254   263    1
   301   255   256    1
   302   255   310    1
   303   255   311    1
   304   256   257    1
   305   256   312    1
   306   256   313    1
   307   257   258    1
   308   257   314    1
   309   257   315    1
   310   258   259    1
   311   258   316    1
   312   258   317    1
   313   259   260    1
   314   259   318    1
   315   259   319    1
   316   260   261    1
   317   260   320    1
   318   260   321    1
   319   261   262    1
   320   261   322    1
   321   261   323    1
   322   262   324    1
   323   262   325    1
   324   262   326    1
   325   263   264    1
   326   263   327    1
   327   263   328    1
   328   264   265    1
   329   264   329    1
   330   264   330    1
   331   265   266    1
   332   265   331    1
   333   265   332    1
   334   266   267    1
   335   266   333    1
   336   266   334    1
   337   267   268    1
   338   267   335    1
   339   267   336    1
   340   268   269    1
   341   268   337    1
   342   268   338    1
   343   269   270    1
   344   269   339    1
   345   269   340    1
   346   270   341    1
   347   270   342    1
   348   270   343    1
@<TRIPOS>SUBSTRUCTURE
     1 RES1      343 GROUP             0 ****  ****    0  
