@<TRIPOS>MOLECULE
cn9_YICLED_0_nunpairedes_0_charge_3 Charge: 3 Unpaired_Electrons: 6 XTB_Unpaired_Electrons: 0 XTB_Charge: 3
   340   345     1     0     0
SMALL
NoCharges
****
Generated from Architector

@<TRIPOS>ATOM
     1 Eu1       0.1326   -0.6567   -0.0294   Eu        1 RES1   0.0000
     2 C1        3.4702   -4.9610   -1.9794   C.3       1 RES1   0.0000
     3 C2        2.8291   -4.8766   -0.5950   C.3       1 RES1   0.0000
     4 C3        2.1098   -6.1806   -0.2590   C.3       1 RES1   0.0000
     5 C4        1.7756   -6.3284    1.2221   C.3       1 RES1   0.0000
     6 C5        0.8235   -5.2816    1.7951   C.3       1 RES1   0.0000
     7 C6       -0.5843   -5.3521    1.2003   C.3       1 RES1   0.0000
     8 N1       -1.4218   -4.3725    1.9060   N.am      1 RES1   0.0000
     9 C7       -2.2252   -4.8899    3.0086   C.3       1 RES1   0.0000
    10 C8       -3.6568   -5.3628    2.6622   C.3       1 RES1   0.0000
    11 C9       -3.8178   -6.3126    1.4642   C.3       1 RES1   0.0000
    12 C10      -5.0461   -7.2008    1.6663   C.3       1 RES1   0.0000
    13 C11      -3.9524   -5.5446    0.1422   C.3       1 RES1   0.0000
    14 C12      -3.6694   -6.4117   -1.0945   C.3       1 RES1   0.0000
    15 C13      -4.5964   -6.1366   -2.2804   C.3       1 RES1   0.0000
    16 C14      -4.3475   -4.8233   -3.0318   C.3       1 RES1   0.0000
    17 C15      -5.0666   -4.8749   -4.3811   C.3       1 RES1   0.0000
    18 C16      -4.8027   -3.5863   -2.2463   C.3       1 RES1   0.0000
    19 C17      -1.1669   -3.0944    1.6302   C.2       1 RES1   0.0000
    20 O1       -0.5397   -2.7659    0.6021   O.2       1 RES1   0.0000
    21 C18      -1.5581   -1.9590    2.5978   C.3       1 RES1   0.0000
    22 O2       -0.7439   -0.8476    2.2205   O.3       1 RES1   0.0000
    23 C19      -1.0716    0.4102    2.8004   C.3       1 RES1   0.0000
    24 C20       0.2243    1.2132    2.6101   C.2       1 RES1   0.0000
    25 O3        0.9793    0.8929    1.6671   O.2       1 RES1   0.0000
    26 N2        0.5294    2.1238    3.5250   N.am      1 RES1   0.0000
    27 C21      -0.4717    2.8588    4.2780   C.3       1 RES1   0.0000
    28 C22      -0.9770    4.0781    3.4954   C.3       1 RES1   0.0000
    29 C23       0.1076    5.0783    3.0950   C.3       1 RES1   0.0000
    30 C24      -0.4610    6.3756    2.5117   C.3       1 RES1   0.0000
    31 C25      -1.1730    6.1977    1.1720   C.3       1 RES1   0.0000
    32 C26      -1.6385    7.5314    0.6035   C.3       1 RES1   0.0000
    33 C27       1.9200    2.4780    3.7793   C.3       1 RES1   0.0000
    34 C28       2.3850    1.8724    5.1102   C.3       1 RES1   0.0000
    35 C29       3.5600    2.6509    5.7377   C.3       1 RES1   0.0000
    36 C30       3.3296    2.8398    7.2376   C.3       1 RES1   0.0000
    37 C31       4.9031    1.9465    5.5433   C.3       1 RES1   0.0000
    38 C32       5.4173    1.7928    4.1100   C.3       1 RES1   0.0000
    39 C33       6.0727    3.0372    3.4991   C.3       1 RES1   0.0000
    40 C34       5.1359    4.0292    2.8012   C.3       1 RES1   0.0000
    41 C35       5.8499    5.3628    2.5888   C.3       1 RES1   0.0000
    42 C36       4.6461    3.4982    1.4533   C.3       1 RES1   0.0000
    43 H1        4.0881   -4.0915   -2.2070   H         1 RES1   0.0000
    44 H2        4.1083   -5.8394   -2.0248   H         1 RES1   0.0000
    45 H3        2.7220   -5.0650   -2.7641   H         1 RES1   0.0000
    46 H4        3.6110   -4.7132    0.1483   H         1 RES1   0.0000
    47 H5        2.1316   -4.0328   -0.5278   H         1 RES1   0.0000
    48 H6        1.2093   -6.2703   -0.8656   H         1 RES1   0.0000
    49 H7        2.7690   -7.0093   -0.5183   H         1 RES1   0.0000
    50 H8        1.3488   -7.3181    1.3869   H         1 RES1   0.0000
    51 H9        2.7048   -6.2935    1.7944   H         1 RES1   0.0000
    52 H10       0.7505   -5.4646    2.8708   H         1 RES1   0.0000
    53 H11       1.2151   -4.2707    1.6538   H         1 RES1   0.0000
    54 H12      -0.5683   -5.1050    0.1397   H         1 RES1   0.0000
    55 H13      -0.9899   -6.3509    1.3276   H         1 RES1   0.0000
    56 H14      -1.6838   -5.7423    3.4304   H         1 RES1   0.0000
    57 H15      -2.3007   -4.1311    3.7941   H         1 RES1   0.0000
    58 H16      -4.0064   -5.8845    3.5572   H         1 RES1   0.0000
    59 H17      -4.3097   -4.5003    2.5234   H         1 RES1   0.0000
    60 H18      -2.9463   -6.9678    1.4181   H         1 RES1   0.0000
    61 H19      -5.9362   -6.6096    1.8659   H         1 RES1   0.0000
    62 H20      -5.2343   -7.7875    0.7723   H         1 RES1   0.0000
    63 H21      -4.9037   -7.8909    2.4941   H         1 RES1   0.0000
    64 H22      -4.9691   -5.1537    0.0805   H         1 RES1   0.0000
    65 H23      -3.2781   -4.6879    0.1475   H         1 RES1   0.0000
    66 H24      -2.6344   -6.2764   -1.4172   H         1 RES1   0.0000
    67 H25      -3.7806   -7.4668   -0.8394   H         1 RES1   0.0000
    68 H26      -4.4824   -6.9535   -2.9957   H         1 RES1   0.0000
    69 H27      -5.6323   -6.1603   -1.9418   H         1 RES1   0.0000
    70 H28      -3.2717   -4.7336   -3.2241   H         1 RES1   0.0000
    71 H29      -6.1449   -4.9011   -4.2351   H         1 RES1   0.0000
    72 H30      -4.8197   -4.0074   -4.9924   H         1 RES1   0.0000
    73 H31      -4.7728   -5.7671   -4.9298   H         1 RES1   0.0000
    74 H32      -5.7269   -3.7910   -1.7094   H         1 RES1   0.0000
    75 H33      -4.0442   -3.2741   -1.5270   H         1 RES1   0.0000
    76 H34      -4.9951   -2.7568   -2.9273   H         1 RES1   0.0000
    77 H35      -2.6110   -1.6847    2.4999   H         1 RES1   0.0000
    78 H36      -1.3402   -2.2491    3.6311   H         1 RES1   0.0000
    79 H37      -1.9451    0.8750    2.3139   H         1 RES1   0.0000
    80 H38      -1.2792    0.3205    3.8742   H         1 RES1   0.0000
    81 H39      -1.3281    2.2264    4.5074   H         1 RES1   0.0000
    82 H40      -0.0246    3.1812    5.2183   H         1 RES1   0.0000
    83 H41      -1.4993    3.7371    2.5982   H         1 RES1   0.0000
    84 H42      -1.6970    4.5916    4.1317   H         1 RES1   0.0000
    85 H43       0.6938    5.3446    3.9761   H         1 RES1   0.0000
    86 H44       0.7817    4.6252    2.3643   H         1 RES1   0.0000
    87 H45      -1.1528    6.8176    3.2293   H         1 RES1   0.0000
    88 H46       0.3642    7.0787    2.3760   H         1 RES1   0.0000
    89 H47      -0.4874    5.7240    0.4632   H         1 RES1   0.0000
    90 H48      -2.0380    5.5409    1.2901   H         1 RES1   0.0000
    91 H49      -0.7905    8.1840    0.4151   H         1 RES1   0.0000
    92 H50      -2.1795    7.3864   -0.3287   H         1 RES1   0.0000
    93 H51      -2.3032    8.0267    1.3044   H         1 RES1   0.0000
    94 H52       2.5078    2.1042    2.9431   H         1 RES1   0.0000
    95 H53       2.0168    3.5601    3.8212   H         1 RES1   0.0000
    96 H54       1.5465    1.8986    5.8088   H         1 RES1   0.0000
    97 H55       2.6382    0.8193    4.9674   H         1 RES1   0.0000
    98 H56       3.6137    3.6445    5.2859   H         1 RES1   0.0000
    99 H57       3.2301    1.8794    7.7370   H         1 RES1   0.0000
   100 H58       4.1748    3.3609    7.6769   H         1 RES1   0.0000
   101 H59       2.4380    3.4305    7.4338   H         1 RES1   0.0000
   102 H60       5.6486    2.4927    6.1194   H         1 RES1   0.0000
   103 H61       4.8220    0.9541    5.9934   H         1 RES1   0.0000
   104 H62       6.1868    1.0184    4.1427   H         1 RES1   0.0000
   105 H63       4.6146    1.4365    3.4638   H         1 RES1   0.0000
   106 H64       6.6146    3.5642    4.2844   H         1 RES1   0.0000
   107 H65       6.8152    2.7146    2.7653   H         1 RES1   0.0000
   108 H66       4.2680    4.2132    3.4369   H         1 RES1   0.0000
   109 H67       6.7348    5.2286    1.9725   H         1 RES1   0.0000
   110 H68       5.1916    6.0734    2.0930   H         1 RES1   0.0000
   111 H69       6.1590    5.7921    3.5382   H         1 RES1   0.0000
   112 H70       5.4918    3.3315    0.7899   H         1 RES1   0.0000
   113 H71       4.0995    2.5603    1.5563   H         1 RES1   0.0000
   114 H72       3.9858    4.2248    0.9819   H         1 RES1   0.0000
   115 C37      -2.8327    3.1154   -7.7917   C.3       1 RES1   0.0000
   116 C38      -2.1858    4.2857   -7.0584   C.3       1 RES1   0.0000
   117 C39      -2.0473    3.9932   -5.5636   C.3       1 RES1   0.0000
   118 C40      -1.1246    4.9416   -4.7881   C.3       1 RES1   0.0000
   119 C41      -1.1354    4.5606   -3.2935   C.3       1 RES1   0.0000
   120 C42       0.2233    4.6747   -2.5706   C.3       1 RES1   0.0000
   121 N3        0.9082    3.3811   -2.4232   N.am      1 RES1   0.0000
   122 C43       2.1947    3.3257   -3.1525   C.3       1 RES1   0.0000
   123 C44       2.8545    1.9535   -3.2722   C.3       1 RES1   0.0000
   124 C45       4.3057    1.9633   -3.8103   C.3       1 RES1   0.0000
   125 C46       4.3752    2.3658   -5.2763   C.3       1 RES1   0.0000
   126 C47       4.8829    0.5482   -3.5796   C.3       1 RES1   0.0000
   127 C48       5.9642    0.0002   -4.5219   C.3       1 RES1   0.0000
   128 C49       7.3717    0.5837   -4.3723   C.3       1 RES1   0.0000
   129 C50       8.4496   -0.4113   -4.8349   C.3       1 RES1   0.0000
   130 C51       9.8374    0.2162   -4.7364   C.3       1 RES1   0.0000
   131 C52       8.2407   -0.9043   -6.2659   C.3       1 RES1   0.0000
   132 C53       0.4363    2.4563   -1.5913   C.2       1 RES1   0.0000
   133 O4        0.8242    1.2772   -1.4870   O.2       1 RES1   0.0000
   134 C54      -0.6745    2.8691   -0.6061   C.3       1 RES1   0.0000
   135 O5       -1.3299    1.6865   -0.1378   O.3       1 RES1   0.0000
   136 C55      -2.7508    1.8147   -0.1249   C.3       1 RES1   0.0000
   137 C56      -3.3480    0.4445    0.2477   C.2       1 RES1   0.0000
   138 O6       -2.5872   -0.5358    0.1819   O.2       1 RES1   0.0000
   139 N4       -4.6321    0.3598    0.6025   N.am      1 RES1   0.0000
   140 C57      -5.5343    1.5244    0.5879   C.3       1 RES1   0.0000
   141 C58      -6.6629    1.5380    1.6380   C.3       1 RES1   0.0000
   142 C59      -6.4610    2.5334    2.7854   C.3       1 RES1   0.0000
   143 C60      -5.3939    2.1094    3.7927   C.3       1 RES1   0.0000
   144 C61      -5.1769    3.1379    4.9022   C.3       1 RES1   0.0000
   145 C62      -4.6125    4.4398    4.3476   C.3       1 RES1   0.0000
   146 C63      -5.2817   -0.9651    0.5693   C.3       1 RES1   0.0000
   147 C64      -5.0552   -1.9461    1.7379   C.3       1 RES1   0.0000
   148 C65      -5.3701   -1.4150    3.1530   C.3       1 RES1   0.0000
   149 C66      -6.8529   -1.6354    3.4680   C.3       1 RES1   0.0000
   150 C67      -4.5592   -2.0578    4.3028   C.3       1 RES1   0.0000
   151 C68      -3.7003   -1.1143    5.1501   C.3       1 RES1   0.0000
   152 C69      -3.1046   -1.8826    6.3376   C.3       1 RES1   0.0000
   153 C70      -1.8819   -1.2593    7.0351   C.3       1 RES1   0.0000
   154 C71      -2.0436    0.2181    7.3802   C.3       1 RES1   0.0000
   155 C72      -0.6051   -1.5040    6.2297   C.3       1 RES1   0.0000
   156 H73      -2.9258    3.3435   -8.8478   H         1 RES1   0.0000
   157 H74      -2.2289    2.2158   -7.6886   H         1 RES1   0.0000
   158 H75      -3.8278    2.9060   -7.4066   H         1 RES1   0.0000
   159 H76      -1.2022    4.4761   -7.4925   H         1 RES1   0.0000
   160 H77      -2.7916    5.1804   -7.2057   H         1 RES1   0.0000
   161 H78      -1.6496    2.9799   -5.4340   H         1 RES1   0.0000
   162 H79      -3.0409    4.0192   -5.1109   H         1 RES1   0.0000
   163 H80      -0.1134    4.8600   -5.1919   H         1 RES1   0.0000
   164 H81      -1.4501    5.9761   -4.9114   H         1 RES1   0.0000
   165 H82      -1.8673    5.1907   -2.7839   H         1 RES1   0.0000
   166 H83      -1.4809    3.5241   -3.2299   H         1 RES1   0.0000
   167 H84       0.8673    5.3428   -3.1372   H         1 RES1   0.0000
   168 H85       0.0960    5.1339   -1.5900   H         1 RES1   0.0000
   169 H86       2.0082    3.7462   -4.1474   H         1 RES1   0.0000
   170 H87       2.8878    3.9989   -2.6300   H         1 RES1   0.0000
   171 H88       2.8709    1.4988   -2.2846   H         1 RES1   0.0000
   172 H89       2.2330    1.3297   -3.9144   H         1 RES1   0.0000
   173 H90       4.8905    2.6794   -3.2250   H         1 RES1   0.0000
   174 H91       3.9063    1.6188   -5.9098   H         1 RES1   0.0000
   175 H92       3.8887    3.3205   -5.4382   H         1 RES1   0.0000
   176 H93       5.4090    2.4809   -5.5845   H         1 RES1   0.0000
   177 H94       5.2728    0.4982   -2.5611   H         1 RES1   0.0000
   178 H95       4.0468   -0.1531   -3.6432   H         1 RES1   0.0000
   179 H96       6.0353   -1.0714   -4.3074   H         1 RES1   0.0000
   180 H97       5.6417    0.1008   -5.5560   H         1 RES1   0.0000
   181 H98       7.4706    1.5097   -4.9395   H         1 RES1   0.0000
   182 H99       7.5642    0.8231   -3.3231   H         1 RES1   0.0000
   183 H100      8.4106   -1.2760   -4.1616   H         1 RES1   0.0000
   184 H101      9.9388    1.0173   -5.4636   H         1 RES1   0.0000
   185 H102     10.0272    0.6220   -3.7459   H         1 RES1   0.0000
   186 H103     10.5989   -0.5280   -4.9532   H         1 RES1   0.0000
   187 H104      8.1592   -0.0645   -6.9516   H         1 RES1   0.0000
   188 H105      9.0993   -1.4988   -6.5680   H         1 RES1   0.0000
   189 H106      7.3553   -1.5279   -6.3638   H         1 RES1   0.0000
   190 H107     -0.1684    3.3611    0.2408   H         1 RES1   0.0000
   191 H108     -1.3996    3.5636   -1.0180   H         1 RES1   0.0000
   192 H109     -3.0419    2.6036    0.5802   H         1 RES1   0.0000
   193 H110     -3.1095    2.0824   -1.1307   H         1 RES1   0.0000
   194 H111     -4.9449    2.4267    0.7356   H         1 RES1   0.0000
   195 H112     -5.9845    1.5831   -0.4093   H         1 RES1   0.0000
   196 H113     -7.5889    1.8127    1.1334   H         1 RES1   0.0000
   197 H114     -6.8143    0.5550    2.0677   H         1 RES1   0.0000
   198 H115     -6.2227    3.5150    2.3762   H         1 RES1   0.0000
   199 H116     -7.4094    2.6243    3.3187   H         1 RES1   0.0000
   200 H117     -5.7042    1.1715    4.2525   H         1 RES1   0.0000
   201 H118     -4.4378    1.9380    3.2801   H         1 RES1   0.0000
   202 H119     -6.1212    3.3256    5.4115   H         1 RES1   0.0000
   203 H120     -4.4862    2.7190    5.6395   H         1 RES1   0.0000
   204 H121     -5.3841    5.0202    3.8498   H         1 RES1   0.0000
   205 H122     -4.1953    5.0520    5.1406   H         1 RES1   0.0000
   206 H123     -3.8240    4.2165    3.6296   H         1 RES1   0.0000
   207 H124     -6.3461   -0.7816    0.4435   H         1 RES1   0.0000
   208 H125     -4.9183   -1.4739   -0.3305   H         1 RES1   0.0000
   209 H126     -5.7098   -2.7927    1.5185   H         1 RES1   0.0000
   210 H127     -4.0388   -2.3217    1.6561   H         1 RES1   0.0000
   211 H128     -5.1429   -0.3512    3.1236   H         1 RES1   0.0000
   212 H129     -7.0633   -2.7017    3.5355   H         1 RES1   0.0000
   213 H130     -7.1058   -1.1829    4.4243   H         1 RES1   0.0000
   214 H131     -7.5116   -1.2278    2.7058   H         1 RES1   0.0000
   215 H132     -5.2560   -2.5194    5.0004   H         1 RES1   0.0000
   216 H133     -3.9213   -2.8537    3.9294   H         1 RES1   0.0000
   217 H134     -2.9203   -0.6548    4.5427   H         1 RES1   0.0000
   218 H135     -4.3236   -0.3182    5.5461   H         1 RES1   0.0000
   219 H136     -3.9002   -2.0229    7.0710   H         1 RES1   0.0000
   220 H137     -2.8073   -2.8829    6.0107   H         1 RES1   0.0000
   221 H138     -1.7608   -1.8008    7.9786   H         1 RES1   0.0000
   222 H139     -2.3136    0.8203    6.5168   H         1 RES1   0.0000
   223 H140     -2.8113    0.3473    8.1372   H         1 RES1   0.0000
   224 H141     -1.1057    0.5938    7.7792   H         1 RES1   0.0000
   225 H142     -0.5834   -0.9137    5.3172   H         1 RES1   0.0000
   226 H143      0.2748   -1.2399    6.8087   H         1 RES1   0.0000
   227 H144     -0.5197   -2.5574    5.9649   H         1 RES1   0.0000
   228 C73       6.5533   -6.1053    0.1547   C.3       1 RES1   0.0000
   229 C74       7.2983   -4.8446    0.5694   C.3       1 RES1   0.0000
   230 C75       6.4951   -3.5761    0.2879   C.3       1 RES1   0.0000
   231 C76       7.2490   -2.3337    0.7516   C.3       1 RES1   0.0000
   232 C77       6.5307   -1.0300    0.4070   C.3       1 RES1   0.0000
   233 C78       5.4556   -0.5695    1.3988   C.3       1 RES1   0.0000
   234 N5        4.1825   -1.2671    1.6061   N.am      1 RES1   0.0000
   235 C79       3.8709   -1.5971    2.9985   C.3       1 RES1   0.0000
   236 C80       4.4609   -2.9564    3.3757   C.3       1 RES1   0.0000
   237 C81       4.2898   -3.3235    4.8579   C.3       1 RES1   0.0000
   238 C82       5.1151   -4.5758    5.1447   C.3       1 RES1   0.0000
   239 C83       2.8101   -3.5326    5.1902   C.3       1 RES1   0.0000
   240 C84       2.5029   -3.7746    6.6671   C.3       1 RES1   0.0000
   241 C85       2.8158   -2.5727    7.5636   C.3       1 RES1   0.0000
   242 C86       1.9972   -2.5956    8.8623   C.3       1 RES1   0.0000
   243 C87       2.0571   -1.2578    9.5995   C.3       1 RES1   0.0000
   244 C88       2.4563   -3.7158    9.7906   C.3       1 RES1   0.0000
   245 C89       3.2062   -1.4037    0.7124   C.2       1 RES1   0.0000
   246 O7        2.0298   -1.6911    1.0258   O.2       1 RES1   0.0000
   247 C90       3.5156   -1.2410   -0.7733   C.3       1 RES1   0.0000
   248 O8        2.2824   -1.0162   -1.4541   O.3       1 RES1   0.0000
   249 C91       2.0364   -1.8226   -2.6033   C.3       1 RES1   0.0000
   250 C92       0.5534   -1.6561   -2.9362   C.2       1 RES1   0.0000
   251 O9       -0.2307   -1.6767   -1.9643   O.2       1 RES1   0.0000
   252 N6        0.1135   -1.6217   -4.1820   N.am      1 RES1   0.0000
   253 C93       0.9111   -1.2488   -5.3440   C.3       1 RES1   0.0000
   254 C94       0.2037   -0.1701   -6.1683   C.3       1 RES1   0.0000
   255 C95       1.1742    0.5948   -7.0836   C.3       1 RES1   0.0000
   256 C96       1.0377    2.1065   -6.9169   C.3       1 RES1   0.0000
   257 C97       1.8439    2.8666   -7.9664   C.3       1 RES1   0.0000
   258 C98       1.9331    4.3577   -7.6631   C.3       1 RES1   0.0000
   259 C99      -1.2859   -2.0057   -4.4152   C.3       1 RES1   0.0000
   260 C100     -2.3786   -1.0795   -3.8452   C.3       1 RES1   0.0000
   261 C101     -3.2895   -0.2915   -4.8221   C.3       1 RES1   0.0000
   262 C102     -3.4444   -0.9388   -6.1965   C.3       1 RES1   0.0000
   263 C103     -4.6890   -0.1749   -4.1773   C.3       1 RES1   0.0000
   264 C104     -5.4236    1.1427   -4.4450   C.3       1 RES1   0.0000
   265 C105     -4.9703    2.2115   -3.4477   C.3       1 RES1   0.0000
   266 C106     -5.8813    3.4361   -3.3133   C.3       1 RES1   0.0000
   267 C107     -6.1032    4.1595   -4.6352   C.3       1 RES1   0.0000
   268 C108     -5.2831    4.3942   -2.2820   C.3       1 RES1   0.0000
   269 H145      7.1690   -6.9810    0.3339   H         1 RES1   0.0000
   270 H146      5.6341   -6.2149    0.7258   H         1 RES1   0.0000
   271 H147      6.3050   -6.0763   -0.9037   H         1 RES1   0.0000
   272 H148      7.5291   -4.8914    1.6353   H         1 RES1   0.0000
   273 H149      8.2440   -4.7924    0.0284   H         1 RES1   0.0000
   274 H150      6.3117   -3.4969   -0.7879   H         1 RES1   0.0000
   275 H151      5.5271   -3.6323    0.7917   H         1 RES1   0.0000
   276 H152      7.4354   -2.3823    1.8271   H         1 RES1   0.0000
   277 H153      8.2249   -2.3301    0.2612   H         1 RES1   0.0000
   278 H154      7.2708   -0.2264    0.4420   H         1 RES1   0.0000
   279 H155      6.1717   -1.0840   -0.6189   H         1 RES1   0.0000
   280 H156      5.9471   -0.5598    2.3712   H         1 RES1   0.0000
   281 H157      5.2162    0.4673    1.1488   H         1 RES1   0.0000
   282 H158      4.2766   -0.8227    3.6525   H         1 RES1   0.0000
   283 H159      2.7843   -1.6093    3.0968   H         1 RES1   0.0000
   284 H160      3.9909   -3.7248    2.7574   H         1 RES1   0.0000
   285 H161      5.5282   -2.9476    3.1511   H         1 RES1   0.0000
   286 H162      4.6758   -2.5018    5.4686   H         1 RES1   0.0000
   287 H163      4.6818   -5.4420    4.6520   H         1 RES1   0.0000
   288 H164      6.1347   -4.4521    4.7881   H         1 RES1   0.0000
   289 H165      5.1591   -4.7789    6.2085   H         1 RES1   0.0000
   290 H166      2.2473   -2.6515    4.8741   H         1 RES1   0.0000
   291 H167      2.4398   -4.3814    4.6103   H         1 RES1   0.0000
   292 H168      1.4342   -3.9892    6.7482   H         1 RES1   0.0000
   293 H169      3.0362   -4.6585    7.0119   H         1 RES1   0.0000
   294 H170      3.8776   -2.5501    7.8079   H         1 RES1   0.0000
   295 H171      2.5885   -1.6508    7.0175   H         1 RES1   0.0000
   296 H172      0.9495   -2.7793    8.5971   H         1 RES1   0.0000
   297 H173      3.0746   -1.0218    9.9018   H         1 RES1   0.0000
   298 H174      1.6788   -0.4435    8.9806   H         1 RES1   0.0000
   299 H175      1.4454   -1.3098   10.4975   H         1 RES1   0.0000
   300 H176      3.4933   -3.5684   10.0813   H         1 RES1   0.0000
   301 H177      1.8535   -3.7251   10.6951   H         1 RES1   0.0000
   302 H178      2.3635   -4.6866    9.3111   H         1 RES1   0.0000
   303 H179      4.1817   -0.3909   -0.9398   H         1 RES1   0.0000
   304 H180      4.0025   -2.1561   -1.1302   H         1 RES1   0.0000
   305 H181      2.7310   -1.5844   -3.4156   H         1 RES1   0.0000
   306 H182      2.1417   -2.8902   -2.3530   H         1 RES1   0.0000
   307 H183      1.8658   -0.8412   -5.0082   H         1 RES1   0.0000
   308 H184      1.1112   -2.1235   -5.9655   H         1 RES1   0.0000
   309 H185     -0.5762   -0.6112   -6.7855   H         1 RES1   0.0000
   310 H186     -0.2798    0.5228   -5.4754   H         1 RES1   0.0000
   311 H187      2.2032    0.3053   -6.8542   H         1 RES1   0.0000
   312 H188      0.9846    0.3261   -8.1243   H         1 RES1   0.0000
   313 H189     -0.0093    2.3872   -7.0118   H         1 RES1   0.0000
   314 H190      1.3714    2.3881   -5.9160   H         1 RES1   0.0000
   315 H191      2.8494    2.4442   -8.0269   H         1 RES1   0.0000
   316 H192      1.3678    2.7249   -8.9382   H         1 RES1   0.0000
   317 H193      2.4952    4.5461   -6.7483   H         1 RES1   0.0000
   318 H194      2.4346    4.8711   -8.4775   H         1 RES1   0.0000
   319 H195      0.9404    4.7866   -7.5529   H         1 RES1   0.0000
   320 H196     -1.3968   -2.1297   -5.4867   H         1 RES1   0.0000
   321 H197     -1.4012   -2.9897   -3.9480   H         1 RES1   0.0000
   322 H198     -3.0317   -1.7304   -3.2696   H         1 RES1   0.0000
   323 H199     -1.9196   -0.3792   -3.1438   H         1 RES1   0.0000
   324 H200     -2.8853    0.7143   -4.9643   H         1 RES1   0.0000
   325 H201     -3.5952   -2.0066   -6.0900   H         1 RES1   0.0000
   326 H202     -4.3103   -0.5247   -6.7054   H         1 RES1   0.0000
   327 H203     -2.5828   -0.7643   -6.8339   H         1 RES1   0.0000
   328 H204     -5.2940   -1.0058   -4.5435   H         1 RES1   0.0000
   329 H205     -4.6120   -0.2770   -3.0903   H         1 RES1   0.0000
   330 H206     -5.2481    1.4686   -5.4699   H         1 RES1   0.0000
   331 H207     -6.4978    0.9795   -4.3311   H         1 RES1   0.0000
   332 H208     -4.9181    1.7398   -2.4589   H         1 RES1   0.0000
   333 H209     -3.9626    2.5421   -3.7067   H         1 RES1   0.0000
   334 H210     -6.8549    3.0894   -2.9532   H         1 RES1   0.0000
   335 H211     -5.1671    4.5301   -5.0469   H         1 RES1   0.0000
   336 H212     -6.5689    3.4941   -5.3541   H         1 RES1   0.0000
   337 H213     -6.7654    5.0069   -4.4830   H         1 RES1   0.0000
   338 H214     -5.1651    3.9152   -1.3101   H         1 RES1   0.0000
   339 H215     -4.3070    4.7427   -2.6152   H         1 RES1   0.0000
   340 H216     -5.9246    5.2610   -2.1573   H         1 RES1   0.0000
@<TRIPOS>BOND
     1     1    20    1
     2     1    22    1
     3     1    25    1
     4     1   133    1
     5     1   135    1
     6     1   138    1
     7     1   246    1
     8     1   248    1
     9     1   251    1
    10     2     3    1
    11     2    43    1
    12     2    44    1
    13     2    45    1
    14     3     4    1
    15     3    46    1
    16     3    47    1
    17     4     5    1
    18     4    48    1
    19     4    49    1
    20     5     6    1
    21     5    50    1
    22     5    51    1
    23     6     7    1
    24     6    52    1
    25     6    53    1
    26     7     8    1
    27     7    54    1
    28     7    55    1
    29     8     9    1
    30     8    19    1
    31     9    10    1
    32     9    56    1
    33     9    57    1
    34    10    11    1
    35    10    58    1
    36    10    59    1
    37    11    12    1
    38    11    13    1
    39    11    60    1
    40    12    61    1
    41    12    62    1
    42    12    63    1
    43    13    14    1
    44    13    64    1
    45    13    65    1
    46    14    15    1
    47    14    66    1
    48    14    67    1
    49    15    16    1
    50    15    68    1
    51    15    69    1
    52    16    17    1
    53    16    18    1
    54    16    70    1
    55    17    71    1
    56    17    72    1
    57    17    73    1
    58    18    74    1
    59    18    75    1
    60    18    76    1
    61    19    20    2
    62    19    21    1
    63    21    22    1
    64    21    77    1
    65    21    78    1
    66    22    23    1
    67    23    24    1
    68    23    79    1
    69    23    80    1
    70    24    25    2
    71    24    26    1
    72    26    27    1
    73    26    33    1
    74    27    28    1
    75    27    81    1
    76    27    82    1
    77    28    29    1
    78    28    83    1
    79    28    84    1
    80    29    30    1
    81    29    85    1
    82    29    86    1
    83    30    31    1
    84    30    87    1
    85    30    88    1
    86    31    32    1
    87    31    89    1
    88    31    90    1
    89    32    91    1
    90    32    92    1
    91    32    93    1
    92    33    34    1
    93    33    94    1
    94    33    95    1
    95    34    35    1
    96    34    96    1
    97    34    97    1
    98    35    36    1
    99    35    37    1
   100    35    98    1
   101    36    99    1
   102    36   100    1
   103    36   101    1
   104    37    38    1
   105    37   102    1
   106    37   103    1
   107    38    39    1
   108    38   104    1
   109    38   105    1
   110    39    40    1
   111    39   106    1
   112    39   107    1
   113    40    41    1
   114    40    42    1
   115    40   108    1
   116    41   109    1
   117    41   110    1
   118    41   111    1
   119    42   112    1
   120    42   113    1
   121    42   114    1
   122   115   116    1
   123   115   156    1
   124   115   157    1
   125   115   158    1
   126   116   117    1
   127   116   159    1
   128   116   160    1
   129   117   118    1
   130   117   161    1
   131   117   162    1
   132   118   119    1
   133   118   163    1
   134   118   164    1
   135   119   120    1
   136   119   165    1
   137   119   166    1
   138   120   121    1
   139   120   167    1
   140   120   168    1
   141   121   122    1
   142   121   132    1
   143   122   123    1
   144   122   169    1
   145   122   170    1
   146   123   124    1
   147   123   171    1
   148   123   172    1
   149   124   125    1
   150   124   126    1
   151   124   173    1
   152   125   174    1
   153   125   175    1
   154   125   176    1
   155   126   127    1
   156   126   177    1
   157   126   178    1
   158   127   128    1
   159   127   179    1
   160   127   180    1
   161   128   129    1
   162   128   181    1
   163   128   182    1
   164   129   130    1
   165   129   131    1
   166   129   183    1
   167   130   184    1
   168   130   185    1
   169   130   186    1
   170   131   187    1
   171   131   188    1
   172   131   189    1
   173   132   133    2
   174   132   134    1
   175   134   135    1
   176   134   190    1
   177   134   191    1
   178   135   136    1
   179   136   137    1
   180   136   192    1
   181   136   193    1
   182   137   138    2
   183   137   139    1
   184   139   140    1
   185   139   146    1
   186   140   141    1
   187   140   194    1
   188   140   195    1
   189   141   142    1
   190   141   196    1
   191   141   197    1
   192   142   143    1
   193   142   198    1
   194   142   199    1
   195   143   144    1
   196   143   200    1
   197   143   201    1
   198   144   145    1
   199   144   202    1
   200   144   203    1
   201   145   204    1
   202   145   205    1
   203   145   206    1
   204   146   147    1
   205   146   207    1
   206   146   208    1
   207   147   148    1
   208   147   209    1
   209   147   210    1
   210   148   149    1
   211   148   150    1
   212   148   211    1
   213   149   212    1
   214   149   213    1
   215   149   214    1
   216   150   151    1
   217   150   215    1
   218   150   216    1
   219   151   152    1
   220   151   217    1
   221   151   218    1
   222   152   153    1
   223   152   219    1
   224   152   220    1
   225   153   154    1
   226   153   155    1
   227   153   221    1
   228   154   222    1
   229   154   223    1
   230   154   224    1
   231   155   225    1
   232   155   226    1
   233   155   227    1
   234   228   229    1
   235   228   269    1
   236   228   270    1
   237   228   271    1
   238   229   230    1
   239   229   272    1
   240   229   273    1
   241   230   231    1
   242   230   274    1
   243   230   275    1
   244   231   232    1
   245   231   276    1
   246   231   277    1
   247   232   233    1
   248   232   278    1
   249   232   279    1
   250   233   234    1
   251   233   280    1
   252   233   281    1
   253   234   235    1
   254   234   245    1
   255   235   236    1
   256   235   282    1
   257   235   283    1
   258   236   237    1
   259   236   284    1
   260   236   285    1
   261   237   238    1
   262   237   239    1
   263   237   286    1
   264   238   287    1
   265   238   288    1
   266   238   289    1
   267   239   240    1
   268   239   290    1
   269   239   291    1
   270   240   241    1
   271   240   292    1
   272   240   293    1
   273   241   242    1
   274   241   294    1
   275   241   295    1
   276   242   243    1
   277   242   244    1
   278   242   296    1
   279   243   297    1
   280   243   298    1
   281   243   299    1
   282   244   300    1
   283   244   301    1
   284   244   302    1
   285   245   246    2
   286   245   247    1
   287   247   248    1
   288   247   303    1
   289   247   304    1
   290   248   249    1
   291   249   250    1
   292   249   305    1
   293   249   306    1
   294   250   251    2
   295   250   252    1
   296   252   253    1
   297   252   259    1
   298   253   254    1
   299   253   307    1
   300   253   308    1
   301   254   255    1
   302   254   309    1
   303   254   310    1
   304   255   256    1
   305   255   311    1
   306   255   312    1
   307   256   257    1
   308   256   313    1
   309   256   314    1
   310   257   258    1
   311   257   315    1
   312   257   316    1
   313   258   317    1
   314   258   318    1
   315   258   319    1
   316   259   260    1
   317   259   320    1
   318   259   321    1
   319   260   261    1
   320   260   322    1
   321   260   323    1
   322   261   262    1
   323   261   263    1
   324   261   324    1
   325   262   325    1
   326   262   326    1
   327   262   327    1
   328   263   264    1
   329   263   328    1
   330   263   329    1
   331   264   265    1
   332   264   330    1
   333   264   331    1
   334   265   266    1
   335   265   332    1
   336   265   333    1
   337   266   267    1
   338   266   268    1
   339   266   334    1
   340   267   335    1
   341   267   336    1
   342   267   337    1
   343   268   338    1
   344   268   339    1
   345   268   340    1
@<TRIPOS>SUBSTRUCTURE
     1 RES1      340 GROUP             0 ****  ****    0  
