@<TRIPOS>MOLECULE
am_c3_9H2O_c0_0_nunpairedes_0_charge_3 Charge: 3 Unpaired_Electrons: 6 XTB_Unpaired_Electrons: 0 XTB_Charge: 3
   394   399     1     0     0
SMALL
NoCharges
****
Generated from Architector

@<TRIPOS>ATOM
     1 Eu1      -0.2934   -0.0480   -0.0168   Eu        1 RES1   0.0000
     2 C1        6.1632    8.8880   -1.4110   C.3       1 RES1   0.0000
     3 C2        6.0956    7.6582   -0.5144   C.3       1 RES1   0.0000
     4 C3        4.6932    7.0554   -0.3767   C.3       1 RES1   0.0000
     5 C4        3.6495    7.9190    0.3558   C.3       1 RES1   0.0000
     6 C5        2.6075    7.1005    1.1496   C.3       1 RES1   0.0000
     7 C6        1.1743    7.0499    0.5981   C.3       1 RES1   0.0000
     8 C7        0.3442    6.0886    1.4687   C.3       1 RES1   0.0000
     9 C8       -0.8521    5.4304    0.7520   C.3       1 RES1   0.0000
    10 N1       -1.1706    4.0672    1.1969   N.am      1 RES1   0.0000
    11 C9       -0.9956    3.7683    2.6262   C.3       1 RES1   0.0000
    12 C10      -2.2635    3.9146    3.4768   C.3       1 RES1   0.0000
    13 C11      -2.7585    5.3500    3.6841   C.3       1 RES1   0.0000
    14 C12      -1.8704    6.2024    4.5960   C.3       1 RES1   0.0000
    15 C13      -2.2108    7.6903    4.4730   C.3       1 RES1   0.0000
    16 C14      -1.2216    8.6071    5.1940   C.3       1 RES1   0.0000
    17 C15      -1.5675   10.0778    4.9682   C.3       1 RES1   0.0000
    18 C16      -0.5681   11.0396    5.5954   C.3       1 RES1   0.0000
    19 C17      -1.4962    3.0287    0.4170   C.2       1 RES1   0.0000
    20 O1       -1.4173    1.8562    0.8476   O.2       1 RES1   0.0000
    21 C18      -2.1998    3.0625   -0.9727   C.3       1 RES1   0.0000
    22 C19      -2.0481    4.2149   -1.9770   C.3       1 RES1   0.0000
    23 C20      -2.9381    5.4378   -1.7097   C.3       1 RES1   0.0000
    24 C21      -2.2689    6.7151   -2.1988   C.3       1 RES1   0.0000
    25 O2       -1.7965    1.8089   -1.5880   O.3       1 RES1   0.0000
    26 C22      -2.7780    1.1509   -2.4099   C.3       1 RES1   0.0000
    27 C23      -1.9633    0.5341   -3.5644   C.3       1 RES1   0.0000
    28 C24      -2.7654   -0.0873   -4.7067   C.3       1 RES1   0.0000
    29 C25      -1.8361   -0.6698   -5.7678   C.3       1 RES1   0.0000
    30 C26      -3.4114   -0.0357   -1.6604   C.2       1 RES1   0.0000
    31 O3       -2.6314   -0.6869   -0.9215   O.2       1 RES1   0.0000
    32 N2       -4.6760   -0.3831   -1.9097   N.am      1 RES1   0.0000
    33 C27      -5.1988   -1.6935   -1.5247   C.3       1 RES1   0.0000
    34 C28      -5.4254   -2.6316   -2.7202   C.3       1 RES1   0.0000
    35 C29      -6.1138   -3.9475   -2.2914   C.3       1 RES1   0.0000
    36 C30      -5.2135   -5.1713   -2.4971   C.3       1 RES1   0.0000
    37 C31      -5.1360   -5.6105   -3.9630   C.3       1 RES1   0.0000
    38 C32      -3.9918   -6.5937   -4.2272   C.3       1 RES1   0.0000
    39 C33      -3.6620   -6.7697   -5.7093   C.3       1 RES1   0.0000
    40 C34      -3.0278   -5.5321   -6.3399   C.3       1 RES1   0.0000
    41 C35      -5.6222    0.4737   -2.6467   C.3       1 RES1   0.0000
    42 C36      -7.1249    0.2184   -2.4144   C.3       1 RES1   0.0000
    43 C37      -7.7155    0.7029   -1.0865   C.3       1 RES1   0.0000
    44 C38      -9.1903    0.3108   -0.9541   C.3       1 RES1   0.0000
    45 C39      -9.8783    0.9876    0.2354   C.3       1 RES1   0.0000
    46 C40      -9.9778    2.5158    0.0968   C.3       1 RES1   0.0000
    47 C41      -9.1680    3.2631    1.1579   C.3       1 RES1   0.0000
    48 C42      -9.0392    4.7473    0.8348   C.3       1 RES1   0.0000
    49 H1        7.2024    9.1807   -1.5515   H         1 RES1   0.0000
    50 H2        5.6289    9.7287   -0.9764   H         1 RES1   0.0000
    51 H3        5.7333    8.6710   -2.3873   H         1 RES1   0.0000
    52 H4        6.5074    7.9019    0.4670   H         1 RES1   0.0000
    53 H5        6.7338    6.8832   -0.9534   H         1 RES1   0.0000
    54 H6        4.8142    6.1114    0.1611   H         1 RES1   0.0000
    55 H7        4.3439    6.8280   -1.3828   H         1 RES1   0.0000
    56 H8        3.1354    8.5671   -0.3568   H         1 RES1   0.0000
    57 H9        4.1758    8.5653    1.0601   H         1 RES1   0.0000
    58 H10       2.5545    7.4866    2.1682   H         1 RES1   0.0000
    59 H11       2.9725    6.0780    1.2213   H         1 RES1   0.0000
    60 H12       1.1702    6.7160   -0.4408   H         1 RES1   0.0000
    61 H13       0.7494    8.0527    0.6156   H         1 RES1   0.0000
    62 H14      -0.0011    6.6396    2.3416   H         1 RES1   0.0000
    63 H15       1.0243    5.3193    1.8143   H         1 RES1   0.0000
    64 H16      -0.6131    5.3722   -0.3024   H         1 RES1   0.0000
    65 H17      -1.7139    6.0862    0.8866   H         1 RES1   0.0000
    66 H18      -0.2547    4.4472    3.0329   H         1 RES1   0.0000
    67 H19      -0.6396    2.7364    2.7025   H         1 RES1   0.0000
    68 H20      -2.0337    3.4933    4.4570   H         1 RES1   0.0000
    69 H21      -3.0589    3.3119    3.0411   H         1 RES1   0.0000
    70 H22      -3.7534    5.2933    4.1298   H         1 RES1   0.0000
    71 H23      -2.8698    5.8607    2.7264   H         1 RES1   0.0000
    72 H24      -0.8159    6.0567    4.3483   H         1 RES1   0.0000
    73 H25      -2.0059    5.8809    5.6294   H         1 RES1   0.0000
    74 H26      -3.2111    7.8580    4.8735   H         1 RES1   0.0000
    75 H27      -2.2387    7.9734    3.4155   H         1 RES1   0.0000
    76 H28      -0.2088    8.4136    4.8309   H         1 RES1   0.0000
    77 H29      -1.2340    8.3886    6.2621   H         1 RES1   0.0000
    78 H30      -2.5571   10.2713    5.3809   H         1 RES1   0.0000
    79 H31      -1.6218   10.2682    3.8945   H         1 RES1   0.0000
    80 H32      -0.5189   10.9026    6.6718   H         1 RES1   0.0000
    81 H33      -0.8694   12.0647    5.3977   H         1 RES1   0.0000
    82 H34       0.4279   10.8921    5.1845   H         1 RES1   0.0000
    83 H35      -3.2649    2.9822   -0.6860   H         1 RES1   0.0000
    84 H36      -1.0043    4.5184   -2.0229   H         1 RES1   0.0000
    85 H37      -2.2944    3.8164   -2.9662   H         1 RES1   0.0000
    86 H38      -3.1512    5.5203   -0.6466   H         1 RES1   0.0000
    87 H39      -3.8880    5.3137   -2.2307   H         1 RES1   0.0000
    88 H40      -1.4187    6.9841   -1.5773   H         1 RES1   0.0000
    89 H41      -2.9713    7.5403   -2.1728   H         1 RES1   0.0000
    90 H42      -1.9332    6.5923   -3.2244   H         1 RES1   0.0000
    91 H43      -3.5085    1.8646   -2.8053   H         1 RES1   0.0000
    92 H44      -1.3299    1.3307   -3.9615   H         1 RES1   0.0000
    93 H45      -1.2929   -0.2151   -3.1225   H         1 RES1   0.0000
    94 H46      -3.3846    0.6849   -5.1670   H         1 RES1   0.0000
    95 H47      -3.4132   -0.8814   -4.3348   H         1 RES1   0.0000
    96 H48      -1.2189    0.1085   -6.2127   H         1 RES1   0.0000
    97 H49      -2.4121   -1.1357   -6.5636   H         1 RES1   0.0000
    98 H50      -1.1859   -1.4316   -5.3431   H         1 RES1   0.0000
    99 H51      -6.1539   -1.5440   -1.0263   H         1 RES1   0.0000
   100 H52      -4.5098   -2.1470   -0.8192   H         1 RES1   0.0000
   101 H53      -4.4688   -2.8665   -3.1841   H         1 RES1   0.0000
   102 H54      -6.0421   -2.1198   -3.4609   H         1 RES1   0.0000
   103 H55      -7.0382   -4.0983   -2.8564   H         1 RES1   0.0000
   104 H56      -6.3983   -3.8839   -1.2379   H         1 RES1   0.0000
   105 H57      -5.5912   -5.9989   -1.8952   H         1 RES1   0.0000
   106 H58      -4.2113   -4.9310   -2.1381   H         1 RES1   0.0000
   107 H59      -5.0083   -4.7246   -4.5876   H         1 RES1   0.0000
   108 H60      -6.0741   -6.0861   -4.2536   H         1 RES1   0.0000
   109 H61      -4.2500   -7.5596   -3.7939   H         1 RES1   0.0000
   110 H62      -3.0872   -6.2546   -3.7226   H         1 RES1   0.0000
   111 H63      -4.5684   -7.0350   -6.2535   H         1 RES1   0.0000
   112 H64      -2.9616   -7.6011   -5.8041   H         1 RES1   0.0000
   113 H65      -3.6929   -4.6730   -6.2977   H         1 RES1   0.0000
   114 H66      -2.8067   -5.7180   -7.3858   H         1 RES1   0.0000
   115 H67      -2.0936   -5.2718   -5.8446   H         1 RES1   0.0000
   116 H68      -5.4376    0.3534   -3.7192   H         1 RES1   0.0000
   117 H69      -5.4324    1.5126   -2.3709   H         1 RES1   0.0000
   118 H70      -7.3838   -0.8271   -2.5706   H         1 RES1   0.0000
   119 H71      -7.6277    0.7732   -3.2083   H         1 RES1   0.0000
   120 H72      -7.1657    0.3032   -0.2312   H         1 RES1   0.0000
   121 H73      -7.6453    1.7888   -1.0469   H         1 RES1   0.0000
   122 H74      -9.2629   -0.7716   -0.8318   H         1 RES1   0.0000
   123 H75      -9.7271    0.5663   -1.8695   H         1 RES1   0.0000
   124 H76      -9.3397    0.7398    1.1533   H         1 RES1   0.0000
   125 H77     -10.8772    0.5607    0.3307   H         1 RES1   0.0000
   126 H78     -11.0169    2.8323    0.1779   H         1 RES1   0.0000
   127 H79      -9.6400    2.8164   -0.8981   H         1 RES1   0.0000
   128 H80      -8.1755    2.8177    1.2410   H         1 RES1   0.0000
   129 H81      -9.6493    3.1447    2.1300   H         1 RES1   0.0000
   130 H82      -8.5904    4.8937   -0.1473   H         1 RES1   0.0000
   131 H83      -8.4249    5.2544    1.5767   H         1 RES1   0.0000
   132 H84     -10.0192    5.2144    0.8232   H         1 RES1   0.0000
   133 C43      -4.8625    6.6349   -7.0731   C.3       1 RES1   0.0000
   134 C44      -4.6602    5.9052   -5.7524   C.3       1 RES1   0.0000
   135 C45      -3.2556    5.3213   -5.5940   C.3       1 RES1   0.0000
   136 C46      -2.9094    4.2933   -6.6722   C.3       1 RES1   0.0000
   137 C47      -1.8332    3.3024   -6.2396   C.3       1 RES1   0.0000
   138 C48      -0.4420    3.9077   -6.0308   C.3       1 RES1   0.0000
   139 C49       0.5500    2.7938   -5.6413   C.3       1 RES1   0.0000
   140 C50       1.2277    3.0205   -4.2785   C.3       1 RES1   0.0000
   141 N3        1.7094    1.7808   -3.6414   N.am      1 RES1   0.0000
   142 C51       2.2458    0.8762   -4.6748   C.3       1 RES1   0.0000
   143 C52       2.9036   -0.4435   -4.2985   C.3       1 RES1   0.0000
   144 C53       4.0938   -0.7296   -5.2316   C.3       1 RES1   0.0000
   145 C54       3.6538   -1.1860   -6.6278   C.3       1 RES1   0.0000
   146 C55       4.7491   -1.0104   -7.6923   C.3       1 RES1   0.0000
   147 C56       4.4079    0.1024   -8.6809   C.3       1 RES1   0.0000
   148 C57       5.5958    0.4992   -9.5540   C.3       1 RES1   0.0000
   149 C58       5.2160    1.5663  -10.5720   C.3       1 RES1   0.0000
   150 C59       1.4698    1.4262   -2.3528   C.2       1 RES1   0.0000
   151 O4        0.9928    0.3149   -2.0555   O.2       1 RES1   0.0000
   152 C60       1.9975    2.3300   -1.1825   C.3       1 RES1   0.0000
   153 C61       1.7040    3.8323   -1.3639   C.3       1 RES1   0.0000
   154 C62       2.8444    4.5413   -2.0991   C.3       1 RES1   0.0000
   155 C63       2.3953    5.7794   -2.8724   C.3       1 RES1   0.0000
   156 O5        1.5337    1.8086    0.0808   O.3       1 RES1   0.0000
   157 C64       2.4470    1.8436    1.2310   C.3       1 RES1   0.0000
   158 C65       2.4769    3.2525    1.8837   C.3       1 RES1   0.0000
   159 C66       3.7826    3.8155    2.4863   C.3       1 RES1   0.0000
   160 C67       3.5536    4.3569    3.8963   C.3       1 RES1   0.0000
   161 C68       1.7968    0.8674    2.2483   C.2       1 RES1   0.0000
   162 O6        0.6073    0.5734    2.0198   O.2       1 RES1   0.0000
   163 N4        2.3934    0.4421    3.3605   N.am      1 RES1   0.0000
   164 C69       1.5735   -0.3198    4.3135   C.3       1 RES1   0.0000
   165 C70       0.9081    0.6367    5.3171   C.3       1 RES1   0.0000
   166 C71      -0.0498   -0.0427    6.3083   C.3       1 RES1   0.0000
   167 C72      -1.5273   -0.0274    5.8772   C.3       1 RES1   0.0000
   168 C73      -2.3476    1.0266    6.6320   C.3       1 RES1   0.0000
   169 C74      -3.8157    1.0427    6.2028   C.3       1 RES1   0.0000
   170 C75      -4.7099    1.9008    7.1000   C.3       1 RES1   0.0000
   171 C76      -4.4876    3.3987    6.9381   C.3       1 RES1   0.0000
   172 C77       3.6907    0.8254    3.9026   C.3       1 RES1   0.0000
   173 C78       4.8766   -0.1149    3.6185   C.3       1 RES1   0.0000
   174 C79       5.8066    0.3946    2.5064   C.3       1 RES1   0.0000
   175 C80       7.2904    0.1584    2.8055   C.3       1 RES1   0.0000
   176 C81       8.2078    0.4905    1.6236   C.3       1 RES1   0.0000
   177 C82       8.6200    1.9529    1.4105   C.3       1 RES1   0.0000
   178 C83       7.5188    3.0006    1.1573   C.3       1 RES1   0.0000
   179 C84       7.3225    3.9049    2.3740   C.3       1 RES1   0.0000
   180 H85      -5.8825    7.0046   -7.1343   H         1 RES1   0.0000
   181 H86      -4.6902    5.9732   -7.9178   H         1 RES1   0.0000
   182 H87      -4.1871    7.4830   -7.1539   H         1 RES1   0.0000
   183 H88      -5.3958    5.0990   -5.6700   H         1 RES1   0.0000
   184 H89      -4.8397    6.6026   -4.9302   H         1 RES1   0.0000
   185 H90      -3.2053    4.8379   -4.6142   H         1 RES1   0.0000
   186 H91      -2.5253    6.1323   -5.6050   H         1 RES1   0.0000
   187 H92      -2.5903    4.7982   -7.5821   H         1 RES1   0.0000
   188 H93      -3.8080    3.7202   -6.9086   H         1 RES1   0.0000
   189 H94      -1.7528    2.5251   -7.0027   H         1 RES1   0.0000
   190 H95      -2.1550    2.8230   -5.3087   H         1 RES1   0.0000
   191 H96      -0.4792    4.6817   -5.2639   H         1 RES1   0.0000
   192 H97      -0.1154    4.3842   -6.9543   H         1 RES1   0.0000
   193 H98       1.2955    2.6824   -6.4270   H         1 RES1   0.0000
   194 H99      -0.0252    1.8710   -5.5907   H         1 RES1   0.0000
   195 H100      0.4633    3.4510   -3.6409   H         1 RES1   0.0000
   196 H101      2.0378    3.7376   -4.4151   H         1 RES1   0.0000
   197 H102      2.9995    1.4964   -5.1798   H         1 RES1   0.0000
   198 H103      1.4644    0.6469   -5.3947   H         1 RES1   0.0000
   199 H104      2.1777   -1.2407   -4.4328   H         1 RES1   0.0000
   200 H105      3.2159   -0.4315   -3.2538   H         1 RES1   0.0000
   201 H106      4.7161   -1.5175   -4.7988   H         1 RES1   0.0000
   202 H107      4.7175    0.1622   -5.3158   H         1 RES1   0.0000
   203 H108      2.7740   -0.6233   -6.9322   H         1 RES1   0.0000
   204 H109      3.3612   -2.2332   -6.5747   H         1 RES1   0.0000
   205 H110      4.8911   -1.9353   -8.2510   H         1 RES1   0.0000
   206 H111      5.7014   -0.7803   -7.2104   H         1 RES1   0.0000
   207 H112      4.0642    0.9814   -8.1283   H         1 RES1   0.0000
   208 H113      3.5853   -0.2292   -9.3183   H         1 RES1   0.0000
   209 H114      5.9734   -0.3811  -10.0739   H         1 RES1   0.0000
   210 H115      6.4004    0.8717   -8.9154   H         1 RES1   0.0000
   211 H116      4.4631    1.1888  -11.2603   H         1 RES1   0.0000
   212 H117      6.0852    1.8624  -11.1530   H         1 RES1   0.0000
   213 H118      4.8144    2.4410  -10.0640   H         1 RES1   0.0000
   214 H119      3.0906    2.1752   -1.2349   H         1 RES1   0.0000
   215 H120      0.7689    3.9487   -1.9016   H         1 RES1   0.0000
   216 H121      1.5500    4.3009   -0.3968   H         1 RES1   0.0000
   217 H122      3.2995    3.8360   -2.7880   H         1 RES1   0.0000
   218 H123      3.6125    4.8124   -1.3767   H         1 RES1   0.0000
   219 H124      1.4192    5.6350   -3.3277   H         1 RES1   0.0000
   220 H125      3.0946    5.9847   -3.6754   H         1 RES1   0.0000
   221 H126      2.3421    6.6542   -2.2339   H         1 RES1   0.0000
   222 H127      3.4452    1.5253    0.9112   H         1 RES1   0.0000
   223 H128      2.1736    3.9372    1.1042   H         1 RES1   0.0000
   224 H129      1.7033    3.2803    2.6537   H         1 RES1   0.0000
   225 H130      4.1520    4.6364    1.8712   H         1 RES1   0.0000
   226 H131      4.5806    3.0782    2.4801   H         1 RES1   0.0000
   227 H132      2.8663    5.2008    3.8789   H         1 RES1   0.0000
   228 H133      4.4899    4.7039    4.3229   H         1 RES1   0.0000
   229 H134      3.1385    3.5931    4.5498   H         1 RES1   0.0000
   230 H135      2.2363   -1.0086    4.8382   H         1 RES1   0.0000
   231 H136      0.8288   -0.8956    3.7600   H         1 RES1   0.0000
   232 H137      0.3783    1.4099    4.7579   H         1 RES1   0.0000
   233 H138      1.7010    1.1213    5.8910   H         1 RES1   0.0000
   234 H139      0.0268    0.4804    7.2631   H         1 RES1   0.0000
   235 H140      0.2898   -1.0667    6.4836   H         1 RES1   0.0000
   236 H141     -1.9673   -1.0067    6.0781   H         1 RES1   0.0000
   237 H142     -1.5871    0.1574    4.8000   H         1 RES1   0.0000
   238 H143     -1.9042    2.0125    6.4765   H         1 RES1   0.0000
   239 H144     -2.2967    0.8045    7.7001   H         1 RES1   0.0000
   240 H145     -4.1961    0.0182    6.2250   H         1 RES1   0.0000
   241 H146     -3.8921    1.4066    5.1763   H         1 RES1   0.0000
   242 H147     -4.5511    1.6207    8.1420   H         1 RES1   0.0000
   243 H148     -5.7521    1.6826    6.8594   H         1 RES1   0.0000
   244 H149     -3.4707    3.6787    7.1988   H         1 RES1   0.0000
   245 H150     -5.1640    3.9430    7.5914   H         1 RES1   0.0000
   246 H151     -4.6844    3.7093    5.9133   H         1 RES1   0.0000
   247 H152      3.5597    0.8918    4.9833   H         1 RES1   0.0000
   248 H153      3.9353    1.8103    3.5492   H         1 RES1   0.0000
   249 H154      4.5072   -1.1134    3.3815   H         1 RES1   0.0000
   250 H155      5.4675   -0.1898    4.5348   H         1 RES1   0.0000
   251 H156      5.6612    1.4637    2.3871   H         1 RES1   0.0000
   252 H157      5.5521   -0.0723    1.5550   H         1 RES1   0.0000
   253 H158      7.4366   -0.8923    3.0701   H         1 RES1   0.0000
   254 H159      7.5813    0.7567    3.6683   H         1 RES1   0.0000
   255 H160      7.7445    0.1058    0.7126   H         1 RES1   0.0000
   256 H161      9.1401   -0.0631    1.7583   H         1 RES1   0.0000
   257 H162      9.2947    1.9556    0.5513   H         1 RES1   0.0000
   258 H163      9.2045    2.2799    2.2719   H         1 RES1   0.0000
   259 H164      6.5779    2.5229    0.8702   H         1 RES1   0.0000
   260 H165      7.8115    3.6360    0.3176   H         1 RES1   0.0000
   261 H166      7.0311    3.3361    3.2562   H         1 RES1   0.0000
   262 H167      6.5707    4.6716    2.1918   H         1 RES1   0.0000
   263 H168      8.2569    4.4142    2.5991   H         1 RES1   0.0000
   264 C85      -5.8127    3.7711   -0.0076   C.3       1 RES1   0.0000
   265 C86      -5.3037    3.2417    1.3248   C.3       1 RES1   0.0000
   266 C87      -4.9316    1.7498    1.3242   C.3       1 RES1   0.0000
   267 C88      -5.4101    1.0519    2.6010   C.3       1 RES1   0.0000
   268 C89      -4.6985   -0.2658    2.9179   C.3       1 RES1   0.0000
   269 C90      -4.6582   -1.2396    1.7317   C.3       1 RES1   0.0000
   270 C91      -4.8161   -2.7121    2.1408   C.3       1 RES1   0.0000
   271 C92      -3.6231   -3.6215    1.7810   C.3       1 RES1   0.0000
   272 N5       -2.3269   -3.0378    2.0760   N.am      1 RES1   0.0000
   273 C93      -2.0842   -2.7072    3.4833   C.3       1 RES1   0.0000
   274 C94      -1.1007   -3.6990    4.1237   C.3       1 RES1   0.0000
   275 C95      -1.7006   -5.0456    4.5365   C.3       1 RES1   0.0000
   276 C96      -2.7626   -4.9027    5.6414   C.3       1 RES1   0.0000
   277 C97      -4.1972   -5.1909    5.1767   C.3       1 RES1   0.0000
   278 C98      -5.1731   -4.1409    5.6917   C.3       1 RES1   0.0000
   279 C99      -6.5674   -4.3132    5.0983   C.3       1 RES1   0.0000
   280 C100     -7.4446   -3.0940    5.3477   C.3       1 RES1   0.0000
   281 C101     -1.3988   -2.6085    1.2174   C.2       1 RES1   0.0000
   282 O7       -0.6169   -1.6874    1.5362   O.2       1 RES1   0.0000
   283 C102     -0.9721   -3.3811   -0.0554   C.3       1 RES1   0.0000
   284 C103     -2.0770   -4.0183   -0.9001   C.3       1 RES1   0.0000
   285 C104     -1.5714   -4.5543   -2.2339   C.3       1 RES1   0.0000
   286 C105     -1.7292   -3.5413   -3.3645   C.3       1 RES1   0.0000
   287 O8       -0.1145   -2.5282   -0.8427   O.3       1 RES1   0.0000
   288 C106      1.1890   -3.0620   -1.1779   C.3       1 RES1   0.0000
   289 C107      1.4026   -3.0851   -2.7136   C.3       1 RES1   0.0000
   290 C108      1.6067   -4.4365   -3.4239   C.3       1 RES1   0.0000
   291 C109      2.1266   -4.2290   -4.8426   C.3       1 RES1   0.0000
   292 C110      2.2647   -2.1182   -0.5865   C.2       1 RES1   0.0000
   293 O9        1.8849   -1.0729   -0.0259   O.2       1 RES1   0.0000
   294 N6        3.5577   -2.3935   -0.7791   N.am      1 RES1   0.0000
   295 C111      4.5590   -1.3484   -0.5416   C.3       1 RES1   0.0000
   296 C112      5.5784   -1.2533   -1.6964   C.3       1 RES1   0.0000
   297 C113      6.3589    0.0637   -1.8405   C.3       1 RES1   0.0000
   298 C114      5.5855    1.2822   -2.3692   C.3       1 RES1   0.0000
   299 C115      6.3925    2.0414   -3.4289   C.3       1 RES1   0.0000
   300 C116      5.6632    3.2863   -3.9343   C.3       1 RES1   0.0000
   301 C117      6.2407    3.8522   -5.2363   C.3       1 RES1   0.0000
   302 C118      5.6384    3.1999   -6.4739   C.3       1 RES1   0.0000
   303 C119      4.0949   -3.6864   -1.1900   C.3       1 RES1   0.0000
   304 C120      4.3370   -4.6975   -0.0652   C.3       1 RES1   0.0000
   305 C121      3.0304   -5.2813    0.4595   C.3       1 RES1   0.0000
   306 C122      3.2161   -6.4394    1.4343   C.3       1 RES1   0.0000
   307 C123      1.8903   -6.9656    1.9967   C.3       1 RES1   0.0000
   308 C124      1.0924   -7.8788    1.0589   C.3       1 RES1   0.0000
   309 C125      0.3416   -7.1842   -0.0937   C.3       1 RES1   0.0000
   310 C126      0.8218   -7.6637   -1.4607   C.3       1 RES1   0.0000
   311 H169     -5.9632    4.8436    0.0591   H         1 RES1   0.0000
   312 H170     -6.7657    3.3255   -0.2593   H         1 RES1   0.0000
   313 H171     -5.1225    3.5689   -0.8233   H         1 RES1   0.0000
   314 H172     -6.0827    3.4100    2.0682   H         1 RES1   0.0000
   315 H173     -4.4398    3.8332    1.6262   H         1 RES1   0.0000
   316 H174     -5.3811    1.2624    0.4593   H         1 RES1   0.0000
   317 H175     -3.8485    1.6171    1.2406   H         1 RES1   0.0000
   318 H176     -6.4822    0.8679    2.5181   H         1 RES1   0.0000
   319 H177     -5.2650    1.7205    3.4511   H         1 RES1   0.0000
   320 H178     -5.2285   -0.7303    3.7525   H         1 RES1   0.0000
   321 H179     -3.6807   -0.0650    3.2551   H         1 RES1   0.0000
   322 H180     -3.7188   -1.1030    1.1858   H         1 RES1   0.0000
   323 H181     -5.4667   -0.9735    1.0537   H         1 RES1   0.0000
   324 H182     -5.6870   -3.1456    1.6398   H         1 RES1   0.0000
   325 H183     -5.0223   -2.7669    3.2072   H         1 RES1   0.0000
   326 H184     -3.7387   -4.5519    2.3404   H         1 RES1   0.0000
   327 H185     -3.6847   -3.8427    0.7261   H         1 RES1   0.0000
   328 H186     -3.0313   -2.7084    4.0155   H         1 RES1   0.0000
   329 H187     -1.6434   -1.7077    3.5325   H         1 RES1   0.0000
   330 H188     -0.6933   -3.2302    5.0213   H         1 RES1   0.0000
   331 H189     -0.2634   -3.8604    3.4381   H         1 RES1   0.0000
   332 H190     -0.8791   -5.6679    4.8994   H         1 RES1   0.0000
   333 H191     -2.1193   -5.5560    3.6661   H         1 RES1   0.0000
   334 H192     -2.7120   -3.8881    6.0388   H         1 RES1   0.0000
   335 H193     -2.5182   -5.5648    6.4702   H         1 RES1   0.0000
   336 H194     -4.5226   -6.1752    5.5145   H         1 RES1   0.0000
   337 H195     -4.2435   -5.2112    4.0853   H         1 RES1   0.0000
   338 H196     -4.7905   -3.1473    5.4347   H         1 RES1   0.0000
   339 H197     -5.2220   -4.1915    6.7798   H         1 RES1   0.0000
   340 H198     -7.0334   -5.1993    5.5282   H         1 RES1   0.0000
   341 H199     -6.4827   -4.4829    4.0209   H         1 RES1   0.0000
   342 H200     -7.5501   -2.9108    6.4129   H         1 RES1   0.0000
   343 H201     -8.4345   -3.2484    4.9284   H         1 RES1   0.0000
   344 H202     -7.0064   -2.2071    4.8897   H         1 RES1   0.0000
   345 H203     -0.3534   -4.1919    0.3656   H         1 RES1   0.0000
   346 H204     -2.4796   -4.8540   -0.3235   H         1 RES1   0.0000
   347 H205     -2.8370   -3.2644   -1.0873   H         1 RES1   0.0000
   348 H206     -2.1128   -5.4677   -2.4638   H         1 RES1   0.0000
   349 H207     -0.5382   -4.8522   -2.1097   H         1 RES1   0.0000
   350 H208     -1.6597   -2.5267   -2.9726   H         1 RES1   0.0000
   351 H209     -2.6787   -3.6651   -3.8701   H         1 RES1   0.0000
   352 H210     -0.9590   -3.6785   -4.1139   H         1 RES1   0.0000
   353 H211      1.2869   -4.0632   -0.7586   H         1 RES1   0.0000
   354 H212      0.5470   -2.5773   -3.1563   H         1 RES1   0.0000
   355 H213      2.2705   -2.4668   -2.9260   H         1 RES1   0.0000
   356 H214      0.6909   -5.0161   -3.4928   H         1 RES1   0.0000
   357 H215      2.3226   -5.0643   -2.8929   H         1 RES1   0.0000
   358 H216      1.4701   -3.5748   -5.4136   H         1 RES1   0.0000
   359 H217      2.1695   -5.1813   -5.3650   H         1 RES1   0.0000
   360 H218      3.1243   -3.7938   -4.8346   H         1 RES1   0.0000
   361 H219      5.0908   -1.5729    0.3861   H         1 RES1   0.0000
   362 H220      4.0181   -0.4057   -0.4237   H         1 RES1   0.0000
   363 H221      5.0659   -1.4560   -2.6392   H         1 RES1   0.0000
   364 H222      6.3388   -2.0244   -1.5500   H         1 RES1   0.0000
   365 H223      7.1710   -0.1439   -2.5428   H         1 RES1   0.0000
   366 H224      6.8268    0.3141   -0.8901   H         1 RES1   0.0000
   367 H225      5.3584    1.9675   -1.5459   H         1 RES1   0.0000
   368 H226      4.6415    0.9636   -2.8145   H         1 RES1   0.0000
   369 H227      6.5911    1.3683   -4.2651   H         1 RES1   0.0000
   370 H228      7.3533    2.3372   -3.0048   H         1 RES1   0.0000
   371 H229      5.6954    4.0526   -3.1570   H         1 RES1   0.0000
   372 H230      4.6131    3.0313   -4.1058   H         1 RES1   0.0000
   373 H231      7.3223    3.7207   -5.2408   H         1 RES1   0.0000
   374 H232      6.0448    4.9246   -5.2782   H         1 RES1   0.0000
   375 H233      5.8212    2.1283   -6.4852   H         1 RES1   0.0000
   376 H234      6.0787    3.6252   -7.3702   H         1 RES1   0.0000
   377 H235      4.5629    3.3730   -6.5126   H         1 RES1   0.0000
   378 H236      5.0432   -3.4861   -1.6738   H         1 RES1   0.0000
   379 H237      3.4392   -4.1359   -1.9227   H         1 RES1   0.0000
   380 H238      4.9219   -4.2544    0.7422   H         1 RES1   0.0000
   381 H239      4.9322   -5.5036   -0.4991   H         1 RES1   0.0000
   382 H240      2.4740   -5.6525   -0.4026   H         1 RES1   0.0000
   383 H241      2.4588   -4.4888    0.9571   H         1 RES1   0.0000
   384 H242      3.8444   -6.1031    2.2612   H         1 RES1   0.0000
   385 H243      3.7402   -7.2516    0.9305   H         1 RES1   0.0000
   386 H244      1.2689   -6.1198    2.3163   H         1 RES1   0.0000
   387 H245      2.1286   -7.5555    2.8846   H         1 RES1   0.0000
   388 H246      0.3640   -8.4168    1.6674   H         1 RES1   0.0000
   389 H247      1.7717   -8.6256    0.6447   H         1 RES1   0.0000
   390 H248      0.4551   -6.0995   -0.0141   H         1 RES1   0.0000
   391 H249     -0.7298   -7.3894   -0.0190   H         1 RES1   0.0000
   392 H250      1.8899   -7.4980   -1.5924   H         1 RES1   0.0000
   393 H251      0.2923   -7.1600   -2.2673   H         1 RES1   0.0000
   394 H252      0.6383   -8.7302   -1.5542   H         1 RES1   0.0000
@<TRIPOS>BOND
     1     1    20    1
     2     1    25    1
     3     1    31    1
     4     1   151    1
     5     1   156    1
     6     1   162    1
     7     1   282    1
     8     1   287    1
     9     1   293    1
    10     2     3    1
    11     2    49    1
    12     2    50    1
    13     2    51    1
    14     3     4    1
    15     3    52    1
    16     3    53    1
    17     4     5    1
    18     4    54    1
    19     4    55    1
    20     5     6    1
    21     5    56    1
    22     5    57    1
    23     6     7    1
    24     6    58    1
    25     6    59    1
    26     7     8    1
    27     7    60    1
    28     7    61    1
    29     8     9    1
    30     8    62    1
    31     8    63    1
    32     9    10    1
    33     9    64    1
    34     9    65    1
    35    10    11    1
    36    10    19    1
    37    11    12    1
    38    11    66    1
    39    11    67    1
    40    12    13    1
    41    12    68    1
    42    12    69    1
    43    13    14    1
    44    13    70    1
    45    13    71    1
    46    14    15    1
    47    14    72    1
    48    14    73    1
    49    15    16    1
    50    15    74    1
    51    15    75    1
    52    16    17    1
    53    16    76    1
    54    16    77    1
    55    17    18    1
    56    17    78    1
    57    17    79    1
    58    18    80    1
    59    18    81    1
    60    18    82    1
    61    19    20    2
    62    19    21    1
    63    21    22    1
    64    21    25    1
    65    21    83    1
    66    22    23    1
    67    22    84    1
    68    22    85    1
    69    23    24    1
    70    23    86    1
    71    23    87    1
    72    24    88    1
    73    24    89    1
    74    24    90    1
    75    25    26    1
    76    26    27    1
    77    26    30    1
    78    26    91    1
    79    27    28    1
    80    27    92    1
    81    27    93    1
    82    28    29    1
    83    28    94    1
    84    28    95    1
    85    29    96    1
    86    29    97    1
    87    29    98    1
    88    30    31    2
    89    30    32    1
    90    32    33    1
    91    32    41    1
    92    33    34    1
    93    33    99    1
    94    33   100    1
    95    34    35    1
    96    34   101    1
    97    34   102    1
    98    35    36    1
    99    35   103    1
   100    35   104    1
   101    36    37    1
   102    36   105    1
   103    36   106    1
   104    37    38    1
   105    37   107    1
   106    37   108    1
   107    38    39    1
   108    38   109    1
   109    38   110    1
   110    39    40    1
   111    39   111    1
   112    39   112    1
   113    40   113    1
   114    40   114    1
   115    40   115    1
   116    41    42    1
   117    41   116    1
   118    41   117    1
   119    42    43    1
   120    42   118    1
   121    42   119    1
   122    43    44    1
   123    43   120    1
   124    43   121    1
   125    44    45    1
   126    44   122    1
   127    44   123    1
   128    45    46    1
   129    45   124    1
   130    45   125    1
   131    46    47    1
   132    46   126    1
   133    46   127    1
   134    47    48    1
   135    47   128    1
   136    47   129    1
   137    48   130    1
   138    48   131    1
   139    48   132    1
   140   133   134    1
   141   133   180    1
   142   133   181    1
   143   133   182    1
   144   134   135    1
   145   134   183    1
   146   134   184    1
   147   135   136    1
   148   135   185    1
   149   135   186    1
   150   136   137    1
   151   136   187    1
   152   136   188    1
   153   137   138    1
   154   137   189    1
   155   137   190    1
   156   138   139    1
   157   138   191    1
   158   138   192    1
   159   139   140    1
   160   139   193    1
   161   139   194    1
   162   140   141    1
   163   140   195    1
   164   140   196    1
   165   141   142    1
   166   141   150    1
   167   142   143    1
   168   142   197    1
   169   142   198    1
   170   143   144    1
   171   143   199    1
   172   143   200    1
   173   144   145    1
   174   144   201    1
   175   144   202    1
   176   145   146    1
   177   145   203    1
   178   145   204    1
   179   146   147    1
   180   146   205    1
   181   146   206    1
   182   147   148    1
   183   147   207    1
   184   147   208    1
   185   148   149    1
   186   148   209    1
   187   148   210    1
   188   149   211    1
   189   149   212    1
   190   149   213    1
   191   150   151    2
   192   150   152    1
   193   152   153    1
   194   152   156    1
   195   152   214    1
   196   153   154    1
   197   153   215    1
   198   153   216    1
   199   154   155    1
   200   154   217    1
   201   154   218    1
   202   155   219    1
   203   155   220    1
   204   155   221    1
   205   156   157    1
   206   157   158    1
   207   157   161    1
   208   157   222    1
   209   158   159    1
   210   158   223    1
   211   158   224    1
   212   159   160    1
   213   159   225    1
   214   159   226    1
   215   160   227    1
   216   160   228    1
   217   160   229    1
   218   161   162    2
   219   161   163    1
   220   163   164    1
   221   163   172    1
   222   164   165    1
   223   164   230    1
   224   164   231    1
   225   165   166    1
   226   165   232    1
   227   165   233    1
   228   166   167    1
   229   166   234    1
   230   166   235    1
   231   167   168    1
   232   167   236    1
   233   167   237    1
   234   168   169    1
   235   168   238    1
   236   168   239    1
   237   169   170    1
   238   169   240    1
   239   169   241    1
   240   170   171    1
   241   170   242    1
   242   170   243    1
   243   171   244    1
   244   171   245    1
   245   171   246    1
   246   172   173    1
   247   172   247    1
   248   172   248    1
   249   173   174    1
   250   173   249    1
   251   173   250    1
   252   174   175    1
   253   174   251    1
   254   174   252    1
   255   175   176    1
   256   175   253    1
   257   175   254    1
   258   176   177    1
   259   176   255    1
   260   176   256    1
   261   177   178    1
   262   177   257    1
   263   177   258    1
   264   178   179    1
   265   178   259    1
   266   178   260    1
   267   179   261    1
   268   179   262    1
   269   179   263    1
   270   264   265    1
   271   264   311    1
   272   264   312    1
   273   264   313    1
   274   265   266    1
   275   265   314    1
   276   265   315    1
   277   266   267    1
   278   266   316    1
   279   266   317    1
   280   267   268    1
   281   267   318    1
   282   267   319    1
   283   268   269    1
   284   268   320    1
   285   268   321    1
   286   269   270    1
   287   269   322    1
   288   269   323    1
   289   270   271    1
   290   270   324    1
   291   270   325    1
   292   271   272    1
   293   271   326    1
   294   271   327    1
   295   272   273    1
   296   272   281    1
   297   273   274    1
   298   273   328    1
   299   273   329    1
   300   274   275    1
   301   274   330    1
   302   274   331    1
   303   275   276    1
   304   275   332    1
   305   275   333    1
   306   276   277    1
   307   276   334    1
   308   276   335    1
   309   277   278    1
   310   277   336    1
   311   277   337    1
   312   278   279    1
   313   278   338    1
   314   278   339    1
   315   279   280    1
   316   279   340    1
   317   279   341    1
   318   280   342    1
   319   280   343    1
   320   280   344    1
   321   281   282    2
   322   281   283    1
   323   283   284    1
   324   283   287    1
   325   283   345    1
   326   284   285    1
   327   284   346    1
   328   284   347    1
   329   285   286    1
   330   285   348    1
   331   285   349    1
   332   286   350    1
   333   286   351    1
   334   286   352    1
   335   287   288    1
   336   288   289    1
   337   288   292    1
   338   288   353    1
   339   289   290    1
   340   289   354    1
   341   289   355    1
   342   290   291    1
   343   290   356    1
   344   290   357    1
   345   291   358    1
   346   291   359    1
   347   291   360    1
   348   292   293    2
   349   292   294    1
   350   294   295    1
   351   294   303    1
   352   295   296    1
   353   295   361    1
   354   295   362    1
   355   296   297    1
   356   296   363    1
   357   296   364    1
   358   297   298    1
   359   297   365    1
   360   297   366    1
   361   298   299    1
   362   298   367    1
   363   298   368    1
   364   299   300    1
   365   299   369    1
   366   299   370    1
   367   300   301    1
   368   300   371    1
   369   300   372    1
   370   301   302    1
   371   301   373    1
   372   301   374    1
   373   302   375    1
   374   302   376    1
   375   302   377    1
   376   303   304    1
   377   303   378    1
   378   303   379    1
   379   304   305    1
   380   304   380    1
   381   304   381    1
   382   305   306    1
   383   305   382    1
   384   305   383    1
   385   306   307    1
   386   306   384    1
   387   306   385    1
   388   307   308    1
   389   307   386    1
   390   307   387    1
   391   308   309    1
   392   308   388    1
   393   308   389    1
   394   309   310    1
   395   309   390    1
   396   309   391    1
   397   310   392    1
   398   310   393    1
   399   310   394    1
@<TRIPOS>SUBSTRUCTURE
     1 RES1      394 GROUP             0 ****  ****    0  
