@<TRIPOS>MOLECULE
am_c3_9H2O_c0_0_nunpairedes_0_charge_3 Charge: 3 Unpaired_Electrons: 6 XTB_Unpaired_Electrons: 0 XTB_Charge: 3
   412   417     1     0     0
SMALL
NoCharges
****
Generated from Architector

@<TRIPOS>ATOM
     1 Eu1       0.0586   -0.1469    0.0253   Eu        1 RES1   0.0000
     2 C1       -6.9092    3.9392    2.7816   C.3       1 RES1   0.0000
     3 C2       -6.2886    5.1167    3.5235   C.3       1 RES1   0.0000
     4 C3       -6.5741    5.1103    5.0255   C.3       1 RES1   0.0000
     5 C4       -6.0138    3.8740    5.7448   C.3       1 RES1   0.0000
     6 C5       -7.1013    2.8508    6.0777   C.3       1 RES1   0.0000
     7 C6       -6.5575    1.5507    6.6727   C.3       1 RES1   0.0000
     8 C7       -5.7584    0.6961    5.6829   C.3       1 RES1   0.0000
     9 C8       -6.6594    0.0631    4.6240   C.3       1 RES1   0.0000
    10 C9       -5.9708   -0.8511    3.6061   C.3       1 RES1   0.0000
    11 C10      -5.1358   -0.1371    2.5236   C.3       1 RES1   0.0000
    12 N1       -3.6678   -0.1195    2.6478   N.am      1 RES1   0.0000
    13 C11      -3.0779   -0.2978    3.9733   C.3       1 RES1   0.0000
    14 C12      -1.8334   -1.1794    4.0604   C.3       1 RES1   0.0000
    15 C13      -1.8359   -2.4452    3.2049   C.3       1 RES1   0.0000
    16 C14      -3.0800   -3.3197    3.2906   C.3       1 RES1   0.0000
    17 C15      -3.3951   -3.7920    4.7126   C.3       1 RES1   0.0000
    18 C16      -4.1794   -5.1036    4.7197   C.3       1 RES1   0.0000
    19 C17      -5.5020   -5.0138    3.9514   C.3       1 RES1   0.0000
    20 C18      -5.8013   -6.3048    3.1976   C.3       1 RES1   0.0000
    21 C19      -6.9157   -6.1190    2.1738   C.3       1 RES1   0.0000
    22 C20      -7.1262   -7.3885    1.3607   C.3       1 RES1   0.0000
    23 C21      -2.8959    0.2138    1.6193   C.2       1 RES1   0.0000
    24 O1       -1.6473    0.2607    1.6638   O.2       1 RES1   0.0000
    25 C22      -3.5413    0.6072    0.2873   C.3       1 RES1   0.0000
    26 O2       -2.5582    0.5456   -0.7473   O.3       1 RES1   0.0000
    27 C23      -2.8204   -0.4492   -1.7344   C.3       1 RES1   0.0000
    28 C24      -2.5895   -1.8416   -1.1232   C.2       1 RES1   0.0000
    29 O3       -1.4856   -1.9507   -0.5413   O.2       1 RES1   0.0000
    30 N2       -3.5142   -2.7864   -1.2123   N.am      1 RES1   0.0000
    31 C25      -4.8680   -2.5449   -1.7265   C.3       1 RES1   0.0000
    32 C26      -5.0821   -2.8559   -3.2116   C.3       1 RES1   0.0000
    33 C27      -6.4623   -2.3478   -3.6540   C.3       1 RES1   0.0000
    34 C28      -6.4482   -0.8674   -4.0466   C.3       1 RES1   0.0000
    35 C29      -5.7901   -0.6167   -5.4134   C.3       1 RES1   0.0000
    36 C30      -4.8133    0.5580   -5.4201   C.3       1 RES1   0.0000
    37 C31      -5.4681    1.9106   -5.1521   C.3       1 RES1   0.0000
    38 C32      -4.4559    3.0591   -5.1222   C.3       1 RES1   0.0000
    39 C33      -3.3940    2.9641   -4.0220   C.3       1 RES1   0.0000
    40 C34      -3.9815    3.0366   -2.6172   C.3       1 RES1   0.0000
    41 C35      -3.3452   -4.2051   -0.8524   C.3       1 RES1   0.0000
    42 C36      -2.0400   -4.6553   -0.2206   C.3       1 RES1   0.0000
    43 C37      -2.0431   -6.1668    0.0623   C.3       1 RES1   0.0000
    44 C38      -2.2407   -7.0576   -1.1806   C.3       1 RES1   0.0000
    45 C39      -1.2455   -8.2285   -1.2190   C.3       1 RES1   0.0000
    46 C40      -1.0169   -8.8369   -2.6067   C.3       1 RES1   0.0000
    47 C41      -0.7983   -7.8102   -3.7190   C.3       1 RES1   0.0000
    48 C42       0.1478   -6.6719   -3.3363   C.3       1 RES1   0.0000
    49 C43      -0.0465   -5.4396   -4.2178   C.3       1 RES1   0.0000
    50 C44       0.4909   -4.1899   -3.5260   C.3       1 RES1   0.0000
    51 H1       -6.6663    3.9828    1.7212   H         1 RES1   0.0000
    52 H2       -7.9909    3.9549    2.8800   H         1 RES1   0.0000
    53 H3       -6.5406    2.9956    3.1777   H         1 RES1   0.0000
    54 H4       -6.6726    6.0447    3.0972   H         1 RES1   0.0000
    55 H5       -5.2059    5.1108    3.3691   H         1 RES1   0.0000
    56 H6       -7.6504    5.1692    5.1865   H         1 RES1   0.0000
    57 H7       -6.1388    6.0141    5.4531   H         1 RES1   0.0000
    58 H8       -5.5318    4.1711    6.6777   H         1 RES1   0.0000
    59 H9       -5.2385    3.4236    5.1193   H         1 RES1   0.0000
    60 H10      -7.6919    2.6313    5.1886   H         1 RES1   0.0000
    61 H11      -7.7779    3.3044    6.8038   H         1 RES1   0.0000
    62 H12      -7.3954    0.9620    7.0501   H         1 RES1   0.0000
    63 H13      -5.9183    1.7930    7.5245   H         1 RES1   0.0000
    64 H14      -5.2530   -0.0940    6.2464   H         1 RES1   0.0000
    65 H15      -4.9972    1.3274    5.2202   H         1 RES1   0.0000
    66 H16      -7.1908    0.8434    4.0786   H         1 RES1   0.0000
    67 H17      -7.4097   -0.5435    5.1354   H         1 RES1   0.0000
    68 H18      -6.7660   -1.3764    3.0748   H         1 RES1   0.0000
    69 H19      -5.4068   -1.6265    4.1197   H         1 RES1   0.0000
    70 H20      -5.4895    0.8955    2.4460   H         1 RES1   0.0000
    71 H21      -5.3684   -0.6280    1.5772   H         1 RES1   0.0000
    72 H22      -3.8490   -0.7265    4.6025   H         1 RES1   0.0000
    73 H23      -2.8285    0.6894    4.3767   H         1 RES1   0.0000
    74 H24      -1.7470   -1.4518    5.1137   H         1 RES1   0.0000
    75 H25      -0.9550   -0.5958    3.7819   H         1 RES1   0.0000
    76 H26      -0.9883   -3.0420    3.5380   H         1 RES1   0.0000
    77 H27      -1.6676   -2.1667    2.1577   H         1 RES1   0.0000
    78 H28      -2.9068   -4.2051    2.6736   H         1 RES1   0.0000
    79 H29      -3.9326   -2.7922    2.8637   H         1 RES1   0.0000
    80 H30      -3.9653   -3.0380    5.2560   H         1 RES1   0.0000
    81 H31      -2.4601   -3.9529    5.2525   H         1 RES1   0.0000
    82 H32      -4.3648   -5.4097    5.7508   H         1 RES1   0.0000
    83 H33      -3.5588   -5.8742    4.2577   H         1 RES1   0.0000
    84 H34      -6.3261   -4.7828    4.6267   H         1 RES1   0.0000
    85 H35      -5.4513   -4.2052    3.2195   H         1 RES1   0.0000
    86 H36      -4.8971   -6.6324    2.6757   H         1 RES1   0.0000
    87 H37      -6.0741   -7.0924    3.8992   H         1 RES1   0.0000
    88 H38      -6.6533   -5.2898    1.5057   H         1 RES1   0.0000
    89 H39      -7.8423   -5.8499    2.6836   H         1 RES1   0.0000
    90 H40      -6.2002   -7.6806    0.8671   H         1 RES1   0.0000
    91 H41      -7.8923   -7.2454    0.6027   H         1 RES1   0.0000
    92 H42      -7.4319   -8.2004    2.0150   H         1 RES1   0.0000
    93 H43      -3.8698    1.6514    0.3697   H         1 RES1   0.0000
    94 H44      -4.4049   -0.0052    0.0380   H         1 RES1   0.0000
    95 H45      -2.0313   -0.3142   -2.4895   H         1 RES1   0.0000
    96 H46      -3.7935   -0.2803   -2.1982   H         1 RES1   0.0000
    97 H47      -5.5502   -3.1735   -1.1499   H         1 RES1   0.0000
    98 H48      -5.1674   -1.5150   -1.5355   H         1 RES1   0.0000
    99 H49      -5.0186   -3.9318   -3.3693   H         1 RES1   0.0000
   100 H50      -4.3054   -2.3847   -3.8135   H         1 RES1   0.0000
   101 H51      -7.1761   -2.5045   -2.8425   H         1 RES1   0.0000
   102 H52      -6.8093   -2.9307   -4.5050   H         1 RES1   0.0000
   103 H53      -5.9173   -0.3026   -3.2751   H         1 RES1   0.0000
   104 H54      -7.4725   -0.4955   -4.0603   H         1 RES1   0.0000
   105 H55      -6.5573   -0.4459   -6.1676   H         1 RES1   0.0000
   106 H56      -5.2376   -1.5070   -5.7164   H         1 RES1   0.0000
   107 H57      -4.3261    0.5998   -6.3956   H         1 RES1   0.0000
   108 H58      -4.0335    0.3721   -4.6757   H         1 RES1   0.0000
   109 H59      -6.0278    1.8823   -4.2161   H         1 RES1   0.0000
   110 H60      -6.1855    2.1142   -5.9483   H         1 RES1   0.0000
   111 H61      -4.9979    3.9988   -4.9987   H         1 RES1   0.0000
   112 H62      -3.9449    3.0971   -6.0864   H         1 RES1   0.0000
   113 H63      -2.6924    3.7917   -4.1504   H         1 RES1   0.0000
   114 H64      -2.8180    2.0419   -4.1307   H         1 RES1   0.0000
   115 H65      -4.4417    4.0075   -2.4516   H         1 RES1   0.0000
   116 H66      -3.2058    2.8828   -1.8670   H         1 RES1   0.0000
   117 H67      -4.7431    2.2734   -2.4787   H         1 RES1   0.0000
   118 H68      -3.4945   -4.7616   -1.7805   H         1 RES1   0.0000
   119 H69      -4.1578   -4.4707   -0.1705   H         1 RES1   0.0000
   120 H70      -1.9015   -4.1261    0.7228   H         1 RES1   0.0000
   121 H71      -1.2046   -4.4149   -0.8752   H         1 RES1   0.0000
   122 H72      -2.8133   -6.3939    0.8004   H         1 RES1   0.0000
   123 H73      -1.0794   -6.4054    0.5238   H         1 RES1   0.0000
   124 H74      -2.1159   -6.4526   -2.0762   H         1 RES1   0.0000
   125 H75      -3.2578   -7.4507   -1.2082   H         1 RES1   0.0000
   126 H76      -1.5999   -9.0212   -0.5574   H         1 RES1   0.0000
   127 H77      -0.2818   -7.8853   -0.8316   H         1 RES1   0.0000
   128 H78      -1.8754   -9.4494   -2.8784   H         1 RES1   0.0000
   129 H79      -0.1519   -9.4978   -2.5417   H         1 RES1   0.0000
   130 H80      -1.7649   -7.3900   -4.0031   H         1 RES1   0.0000
   131 H81      -0.4147   -8.3198   -4.6019   H         1 RES1   0.0000
   132 H82       1.1816   -7.0148   -3.3930   H         1 RES1   0.0000
   133 H83      -0.0369   -6.3662   -2.3081   H         1 RES1   0.0000
   134 H84       0.4552   -5.5865   -5.1734   H         1 RES1   0.0000
   135 H85      -1.1095   -5.3067   -4.4318   H         1 RES1   0.0000
   136 H86       0.4616   -3.3177   -4.1768   H         1 RES1   0.0000
   137 H87       1.5245   -4.3615   -3.2289   H         1 RES1   0.0000
   138 H88      -0.1026   -3.9570   -2.6400   H         1 RES1   0.0000
   139 C45      -3.1058    7.6343   -2.7980   C.3       1 RES1   0.0000
   140 C46      -4.0114    7.1545   -3.9268   C.3       1 RES1   0.0000
   141 C47      -3.6057    7.6543   -5.3163   C.3       1 RES1   0.0000
   142 C48      -2.2725    7.0849   -5.8211   C.3       1 RES1   0.0000
   143 C49      -1.0883    7.9929   -5.4825   C.3       1 RES1   0.0000
   144 C50       0.2778    7.3466   -5.7338   C.3       1 RES1   0.0000
   145 C51       1.3211    7.7169   -4.6735   C.3       1 RES1   0.0000
   146 C52       1.1031    7.0840   -3.2908   C.3       1 RES1   0.0000
   147 C53       1.2242    5.5489   -3.3062   C.3       1 RES1   0.0000
   148 C54      -0.1089    4.7923   -3.2444   C.3       1 RES1   0.0000
   149 N3        0.0799    3.3329   -3.2682   N.am      1 RES1   0.0000
   150 C55       0.4998    2.8899   -4.6238   C.3       1 RES1   0.0000
   151 C56       0.2437    1.4789   -5.1706   C.3       1 RES1   0.0000
   152 C57       1.3086    0.4082   -4.9166   C.3       1 RES1   0.0000
   153 C58       2.7415    0.6518   -5.4228   C.3       1 RES1   0.0000
   154 C59       3.0806    0.5777   -6.9228   C.3       1 RES1   0.0000
   155 C60       4.4928    0.0070   -7.1979   C.3       1 RES1   0.0000
   156 C61       5.5968    0.6940   -6.3804   C.3       1 RES1   0.0000
   157 C62       7.0105    0.0880   -6.3920   C.3       1 RES1   0.0000
   158 C63       7.8305    0.6183   -5.1981   C.3       1 RES1   0.0000
   159 C64       8.9722   -0.2960   -4.7601   C.3       1 RES1   0.0000
   160 C65      -0.0338    2.6066   -2.1613   C.2       1 RES1   0.0000
   161 O4       -0.0114    1.3644   -2.0925   O.2       1 RES1   0.0000
   162 C66      -0.2966    3.3418   -0.8198   C.3       1 RES1   0.0000
   163 O5        0.1172    2.5362    0.2831   O.3       1 RES1   0.0000
   164 C67       1.2236    3.0319    1.0379   C.3       1 RES1   0.0000
   165 C68       2.3530    1.9940    0.9870   C.2       1 RES1   0.0000
   166 O6        1.9844    0.8549    0.6468   O.2       1 RES1   0.0000
   167 N4        3.6038    2.2777    1.3215   N.am      1 RES1   0.0000
   168 C69       4.1203    3.6411    1.4668   C.3       1 RES1   0.0000
   169 C70       4.5931    4.0527    2.8736   C.3       1 RES1   0.0000
   170 C71       3.6879    5.0556    3.5984   C.3       1 RES1   0.0000
   171 C72       2.2555    4.5486    3.8185   C.3       1 RES1   0.0000
   172 C73       1.7250    4.7847    5.2340   C.3       1 RES1   0.0000
   173 C74       0.3020    4.2514    5.4187   C.3       1 RES1   0.0000
   174 C75      -0.7598    5.1433    4.7742   C.3       1 RES1   0.0000
   175 C76      -2.1257    4.4664    4.6501   C.3       1 RES1   0.0000
   176 C77      -2.2027    3.4130    3.5410   C.3       1 RES1   0.0000
   177 C78      -2.2502    4.0156    2.1389   C.3       1 RES1   0.0000
   178 C79       4.7067    1.2853    1.3077   C.3       1 RES1   0.0000
   179 C80       4.3876   -0.2141    1.2778   C.3       1 RES1   0.0000
   180 C81       5.6519   -1.0860    1.1301   C.3       1 RES1   0.0000
   181 C82       6.2010   -1.6696    2.4417   C.3       1 RES1   0.0000
   182 C83       5.5907   -3.0252    2.7995   C.3       1 RES1   0.0000
   183 C84       6.1744   -3.6293    4.0812   C.3       1 RES1   0.0000
   184 C85       5.8755   -2.8135    5.3488   C.3       1 RES1   0.0000
   185 C86       5.2512   -3.6543    6.4656   C.3       1 RES1   0.0000
   186 C87       4.7353   -2.8098    7.6374   C.3       1 RES1   0.0000
   187 C88       3.5821   -3.4961    8.3618   C.3       1 RES1   0.0000
   188 H89      -3.4887    7.3108   -1.8324   H         1 RES1   0.0000
   189 H90      -3.0576    8.7198   -2.7895   H         1 RES1   0.0000
   190 H91      -2.1004    7.2366   -2.9116   H         1 RES1   0.0000
   191 H92      -5.0269    7.4991   -3.7275   H         1 RES1   0.0000
   192 H93      -4.0354    6.0610   -3.9344   H         1 RES1   0.0000
   193 H94      -3.5501    8.7431   -5.3084   H         1 RES1   0.0000
   194 H95      -4.4001    7.3857   -6.0144   H         1 RES1   0.0000
   195 H96      -2.3141    6.9446   -6.9048   H         1 RES1   0.0000
   196 H97      -2.1231    6.0907   -5.3848   H         1 RES1   0.0000
   197 H98      -1.1510    8.2977   -4.4411   H         1 RES1   0.0000
   198 H99      -1.1715    8.8986   -6.0810   H         1 RES1   0.0000
   199 H100      0.6537    7.6611   -6.7079   H         1 RES1   0.0000
   200 H101      0.1787    6.2592   -5.7805   H         1 RES1   0.0000
   201 H102      1.3445    8.8008   -4.5484   H         1 RES1   0.0000
   202 H103      2.3084    7.4166   -5.0347   H         1 RES1   0.0000
   203 H104      0.1383    7.3882   -2.8850   H         1 RES1   0.0000
   204 H105      1.8661    7.4927   -2.6235   H         1 RES1   0.0000
   205 H106      1.8459    5.2125   -2.4716   H         1 RES1   0.0000
   206 H107      1.7317    5.2772   -4.2306   H         1 RES1   0.0000
   207 H108     -0.7202    5.0569   -4.1098   H         1 RES1   0.0000
   208 H109     -0.6841    5.0786   -2.3656   H         1 RES1   0.0000
   209 H110      1.5673    3.1037   -4.7136   H         1 RES1   0.0000
   210 H111     -0.0212    3.5728   -5.2974   H         1 RES1   0.0000
   211 H112      0.1392    1.5893   -6.2545   H         1 RES1   0.0000
   212 H113     -0.7054    1.1076   -4.7828   H         1 RES1   0.0000
   213 H114      0.9348   -0.5147   -5.3615   H         1 RES1   0.0000
   214 H115      1.3645    0.2410   -3.8372   H         1 RES1   0.0000
   215 H116      3.3309   -0.1232   -4.9430   H         1 RES1   0.0000
   216 H117      3.0866    1.6121   -5.0399   H         1 RES1   0.0000
   217 H118      3.0363    1.5694   -7.3667   H         1 RES1   0.0000
   218 H119      2.3491   -0.0447   -7.4377   H         1 RES1   0.0000
   219 H120      4.7022    0.1180   -8.2629   H         1 RES1   0.0000
   220 H121      4.4888   -1.0622   -6.9783   H         1 RES1   0.0000
   221 H122      5.6721    1.7357   -6.6915   H         1 RES1   0.0000
   222 H123      5.2736    0.6755   -5.3396   H         1 RES1   0.0000
   223 H124      6.9577   -1.0021   -6.3377   H         1 RES1   0.0000
   224 H125      7.5308    0.3431   -7.3162   H         1 RES1   0.0000
   225 H126      7.1665    0.7653   -4.3399   H         1 RES1   0.0000
   226 H127      8.2499    1.5950   -5.4461   H         1 RES1   0.0000
   227 H128      8.5960   -1.2735   -4.4598   H         1 RES1   0.0000
   228 H129      9.4960    0.1439   -3.9106   H         1 RES1   0.0000
   229 H130      9.6926   -0.4355   -5.5614   H         1 RES1   0.0000
   230 H131     -1.3883    3.4486   -0.7345   H         1 RES1   0.0000
   231 H132      0.1621    4.3282   -0.7265   H         1 RES1   0.0000
   232 H133      0.8895    3.0897    2.0816   H         1 RES1   0.0000
   233 H134      1.5117    4.0299    0.7011   H         1 RES1   0.0000
   234 H135      4.9728    3.6957    0.7859   H         1 RES1   0.0000
   235 H136      3.3811    4.3583    1.1203   H         1 RES1   0.0000
   236 H137      5.5750    4.5152    2.7701   H         1 RES1   0.0000
   237 H138      4.7215    3.1696    3.4975   H         1 RES1   0.0000
   238 H139      3.6775    5.9982    3.0494   H         1 RES1   0.0000
   239 H140      4.1433    5.2635    4.5672   H         1 RES1   0.0000
   240 H141      2.2393    3.4706    3.6380   H         1 RES1   0.0000
   241 H142      1.5826    5.0261    3.1031   H         1 RES1   0.0000
   242 H143      1.7486    5.8490    5.4662   H         1 RES1   0.0000
   243 H144      2.3897    4.2795    5.9361   H         1 RES1   0.0000
   244 H145      0.0899    4.1833    6.4860   H         1 RES1   0.0000
   245 H146      0.2445    3.2394    5.0098   H         1 RES1   0.0000
   246 H147     -0.4307    5.4749    3.7891   H         1 RES1   0.0000
   247 H148     -0.8744    6.0355    5.3883   H         1 RES1   0.0000
   248 H149     -2.8867    5.2258    4.4602   H         1 RES1   0.0000
   249 H150     -2.3716    3.9939    5.6019   H         1 RES1   0.0000
   250 H151     -3.1110    2.8184    3.6815   H         1 RES1   0.0000
   251 H152     -1.3503    2.7292    3.6105   H         1 RES1   0.0000
   252 H153     -3.1730    4.5758    1.9947   H         1 RES1   0.0000
   253 H154     -2.1978    3.2206    1.3932   H         1 RES1   0.0000
   254 H155     -1.4163    4.6962    1.9782   H         1 RES1   0.0000
   255 H156      5.3123    1.5047    2.1902   H         1 RES1   0.0000
   256 H157      5.3114    1.5202    0.4273   H         1 RES1   0.0000
   257 H158      3.7276   -0.4209    0.4410   H         1 RES1   0.0000
   258 H159      3.8478   -0.4919    2.1802   H         1 RES1   0.0000
   259 H160      6.4324   -0.5013    0.6397   H         1 RES1   0.0000
   260 H161      5.4273   -1.9244    0.4626   H         1 RES1   0.0000
   261 H162      6.0288   -0.9713    3.2576   H         1 RES1   0.0000
   262 H163      7.2801   -1.8010    2.3509   H         1 RES1   0.0000
   263 H164      5.7730   -3.7205    1.9748   H         1 RES1   0.0000
   264 H165      4.5083   -2.9286    2.9150   H         1 RES1   0.0000
   265 H166      7.2492   -3.7436    3.9620   H         1 RES1   0.0000
   266 H167      5.7631   -4.6332    4.1989   H         1 RES1   0.0000
   267 H168      5.1864   -2.0051    5.1021   H         1 RES1   0.0000
   268 H169      6.7877   -2.3537    5.7276   H         1 RES1   0.0000
   269 H170      5.9751   -4.3863    6.8276   H         1 RES1   0.0000
   270 H171      4.4089   -4.2213    6.0588   H         1 RES1   0.0000
   271 H172      5.5449   -2.6184    8.3418   H         1 RES1   0.0000
   272 H173      4.3906   -1.8407    7.2659   H         1 RES1   0.0000
   273 H174      3.8934   -4.4661    8.7376   H         1 RES1   0.0000
   274 H175      2.7370   -3.6439    7.6883   H         1 RES1   0.0000
   275 H176      3.2491   -2.9022    9.2086   H         1 RES1   0.0000
   276 C89      -0.8341   -8.9680    2.5068   C.3       1 RES1   0.0000
   277 C90      -2.0421   -8.3798    3.2261   C.3       1 RES1   0.0000
   278 C91      -2.0440   -8.6085    4.7397   C.3       1 RES1   0.0000
   279 C92      -0.9365   -7.8567    5.4863   C.3       1 RES1   0.0000
   280 C93       0.3647   -8.6531    5.5840   C.3       1 RES1   0.0000
   281 C94       1.4610   -7.9404    6.3733   C.3       1 RES1   0.0000
   282 C95       1.7966   -6.5274    5.8893   C.3       1 RES1   0.0000
   283 C96       2.1735   -6.4819    4.4095   C.3       1 RES1   0.0000
   284 C97       2.5457   -5.0832    3.9146   C.3       1 RES1   0.0000
   285 C98       1.3352   -4.1550    3.9757   C.3       1 RES1   0.0000
   286 N5        1.5878   -2.7743    3.5874   N.am      1 RES1   0.0000
   287 C99       2.3851   -1.9808    4.5292   C.3       1 RES1   0.0000
   288 C100      1.7056   -0.9655    5.4649   C.3       1 RES1   0.0000
   289 C101      1.9237    0.4961    5.0549   C.3       1 RES1   0.0000
   290 C102      3.3839    0.9584    4.9504   C.3       1 RES1   0.0000
   291 C103      4.1893    1.1132    6.2430   C.3       1 RES1   0.0000
   292 C104      5.5281    1.8452    6.0250   C.3       1 RES1   0.0000
   293 C105      6.4528    1.1238    5.0365   C.3       1 RES1   0.0000
   294 C106      7.6751    1.9115    4.5514   C.3       1 RES1   0.0000
   295 C107      8.4238    1.1406    3.4556   C.3       1 RES1   0.0000
   296 C108      9.6137    1.9109    2.8913   C.3       1 RES1   0.0000
   297 C109      1.2152   -2.3139    2.3943   C.2       1 RES1   0.0000
   298 O7        1.0501   -1.1115    2.1297   O.2       1 RES1   0.0000
   299 C110      1.0390   -3.3217    1.2425   C.3       1 RES1   0.0000
   300 O8        1.1530   -2.6053    0.0134   O.3       1 RES1   0.0000
   301 C111      2.3593   -2.8174   -0.7218   C.3       1 RES1   0.0000
   302 C112      2.6007   -1.5403   -1.5635   C.2       1 RES1   0.0000
   303 O9        1.7396   -0.6488   -1.5047   O.2       1 RES1   0.0000
   304 N6        3.7444   -1.4290   -2.2388   N.am      1 RES1   0.0000
   305 C113      4.3918   -2.5808   -2.8749   C.3       1 RES1   0.0000
   306 C114      4.1451   -2.5352   -4.3987   C.3       1 RES1   0.0000
   307 C115      4.3674   -3.8649   -5.1494   C.3       1 RES1   0.0000
   308 C116      3.1353   -4.3267   -5.9490   C.3       1 RES1   0.0000
   309 C117      2.9649   -3.6592   -7.3280   C.3       1 RES1   0.0000
   310 C118      1.6538   -2.8880   -7.5266   C.3       1 RES1   0.0000
   311 C119      0.4090   -3.7416   -7.7741   C.3       1 RES1   0.0000
   312 C120     -0.7600   -2.9277   -8.3468   C.3       1 RES1   0.0000
   313 C121     -1.2767   -1.7999   -7.4488   C.3       1 RES1   0.0000
   314 C122     -1.9652   -2.3367   -6.1969   C.3       1 RES1   0.0000
   315 C123      4.4782   -0.1694   -2.4740   C.3       1 RES1   0.0000
   316 C124      3.8470    1.1959   -2.1857   C.3       1 RES1   0.0000
   317 C125      4.9550    2.2801   -2.2077   C.3       1 RES1   0.0000
   318 C126      5.2580    2.9724   -3.5498   C.3       1 RES1   0.0000
   319 C127      4.3173    4.1456   -3.8423   C.3       1 RES1   0.0000
   320 C128      4.5979    4.9030   -5.1545   C.3       1 RES1   0.0000
   321 C129      4.0820    4.1934   -6.4246   C.3       1 RES1   0.0000
   322 C130      2.9503    4.9401   -7.1617   C.3       1 RES1   0.0000
   323 C131      2.0810    4.0088   -8.0220   C.3       1 RES1   0.0000
   324 C132      0.8836    4.7123   -8.6643   C.3       1 RES1   0.0000
   325 H177     -0.9534   -8.8752    1.4318   H         1 RES1   0.0000
   326 H178     -0.7298  -10.0241    2.7405   H         1 RES1   0.0000
   327 H179      0.0823   -8.4528    2.7842   H         1 RES1   0.0000
   328 H180     -2.9452   -8.8305    2.8065   H         1 RES1   0.0000
   329 H181     -2.0915   -7.3023    3.0280   H         1 RES1   0.0000
   330 H182     -1.9518   -9.6753    4.9430   H         1 RES1   0.0000
   331 H183     -3.0134   -8.2821    5.1240   H         1 RES1   0.0000
   332 H184     -1.2724   -7.6436    6.5038   H         1 RES1   0.0000
   333 H185     -0.7785   -6.8951    4.9892   H         1 RES1   0.0000
   334 H186      0.7445   -8.9036    4.5975   H         1 RES1   0.0000
   335 H187      0.1411   -9.5950    6.0879   H         1 RES1   0.0000
   336 H188      2.3660   -8.5487    6.3311   H         1 RES1   0.0000
   337 H189      1.1432   -7.8707    7.4136   H         1 RES1   0.0000
   338 H190      2.6378   -6.1589    6.4803   H         1 RES1   0.0000
   339 H191      0.9417   -5.8788    6.0891   H         1 RES1   0.0000
   340 H192      1.3402   -6.8470    3.8100   H         1 RES1   0.0000
   341 H193      3.0179   -7.1540    4.2515   H         1 RES1   0.0000
   342 H194      3.3543   -4.6854    4.5230   H         1 RES1   0.0000
   343 H195      2.9092   -5.1474    2.8869   H         1 RES1   0.0000
   344 H196      0.9625   -4.1298    5.0019   H         1 RES1   0.0000
   345 H197      0.5519   -4.5736    3.3438   H         1 RES1   0.0000
   346 H198      3.1250   -1.4554    3.9255   H         1 RES1   0.0000
   347 H199      2.9174   -2.7104    5.1373   H         1 RES1   0.0000
   348 H200      2.1028   -1.1003    6.4714   H         1 RES1   0.0000
   349 H201      0.6336   -1.1551    5.5212   H         1 RES1   0.0000
   350 H202      1.4002    1.1256    5.7766   H         1 RES1   0.0000
   351 H203      1.4612    0.6452    4.0726   H         1 RES1   0.0000
   352 H204      3.3744    1.9346    4.4674   H         1 RES1   0.0000
   353 H205      3.9183    0.2797    4.2863   H         1 RES1   0.0000
   354 H206      4.3993    0.1366    6.6779   H         1 RES1   0.0000
   355 H207      3.6038    1.6792    6.9688   H         1 RES1   0.0000
   356 H208      6.0334    1.9283    6.9885   H         1 RES1   0.0000
   357 H209      5.3365    2.8642    5.6760   H         1 RES1   0.0000
   358 H210      6.7987    0.1921    5.4882   H         1 RES1   0.0000
   359 H211      5.8723    0.8670    4.1482   H         1 RES1   0.0000
   360 H212      7.3584    2.8820    4.1589   H         1 RES1   0.0000
   361 H213      8.3610    2.0943    5.3783   H         1 RES1   0.0000
   362 H214      7.7332    0.9089    2.6366   H         1 RES1   0.0000
   363 H215      8.7799    0.1914    3.8663   H         1 RES1   0.0000
   364 H216      9.2994    2.8612    2.4637   H         1 RES1   0.0000
   365 H217     10.1055    1.3321    2.1114   H         1 RES1   0.0000
   366 H218     10.3415    2.1095    3.6721   H         1 RES1   0.0000
   367 H219      0.0363   -3.7576    1.2469   H         1 RES1   0.0000
   368 H220      1.7879   -4.1143    1.3109   H         1 RES1   0.0000
   369 H221      2.2326   -3.7143   -1.3435   H         1 RES1   0.0000
   370 H222      3.2146   -2.9519   -0.0385   H         1 RES1   0.0000
   371 H223      5.4605   -2.5661   -2.6492   H         1 RES1   0.0000
   372 H224      3.9654   -3.4977   -2.4765   H         1 RES1   0.0000
   373 H225      3.1060   -2.2387   -4.5437   H         1 RES1   0.0000
   374 H226      4.7807   -1.7720   -4.8433   H         1 RES1   0.0000
   375 H227      4.6499   -4.6524   -4.4472   H         1 RES1   0.0000
   376 H228      5.2046   -3.7600   -5.8405   H         1 RES1   0.0000
   377 H229      2.2401   -4.1603   -5.3545   H         1 RES1   0.0000
   378 H230      3.2305   -5.4019   -6.0918   H         1 RES1   0.0000
   379 H231      3.0557   -4.4146   -8.1084   H         1 RES1   0.0000
   380 H232      3.7816   -2.9571   -7.4884   H         1 RES1   0.0000
   381 H233      1.7750   -2.2374   -8.3953   H         1 RES1   0.0000
   382 H234      1.4864   -2.2538   -6.6532   H         1 RES1   0.0000
   383 H235      0.1011   -4.2399   -6.8530   H         1 RES1   0.0000
   384 H236      0.6516   -4.5158   -8.5046   H         1 RES1   0.0000
   385 H237     -1.5908   -3.6094   -8.5470   H         1 RES1   0.0000
   386 H238     -0.4536   -2.4995   -9.3045   H         1 RES1   0.0000
   387 H239     -1.9985   -1.2108   -8.0189   H         1 RES1   0.0000
   388 H240     -0.4603   -1.1281   -7.1723   H         1 RES1   0.0000
   389 H241     -2.7532   -3.0324   -6.4843   H         1 RES1   0.0000
   390 H242     -2.4158   -1.5293   -5.6173   H         1 RES1   0.0000
   391 H243     -1.2557   -2.8671   -5.5632   H         1 RES1   0.0000
   392 H244      4.8322   -0.1696   -3.5019   H         1 RES1   0.0000
   393 H245      5.3629   -0.2464   -1.8303   H         1 RES1   0.0000
   394 H246      3.3936    1.1695   -1.1989   H         1 RES1   0.0000
   395 H247      3.0441    1.4256   -2.8842   H         1 RES1   0.0000
   396 H248      5.8794    1.8045   -1.8656   H         1 RES1   0.0000
   397 H249      4.6941    3.0710   -1.4978   H         1 RES1   0.0000
   398 H250      5.1940    2.2644   -4.3694   H         1 RES1   0.0000
   399 H251      6.2906    3.3271   -3.5169   H         1 RES1   0.0000
   400 H252      4.3597    4.8584   -3.0167   H         1 RES1   0.0000
   401 H253      3.3033    3.7504   -3.8663   H         1 RES1   0.0000
   402 H254      5.6691    5.0700   -5.2276   H         1 RES1   0.0000
   403 H255      4.1385    5.8909   -5.0965   H         1 RES1   0.0000
   404 H256      3.6957    3.2149   -6.1308   H         1 RES1   0.0000
   405 H257      4.9057    4.0135   -7.1215   H         1 RES1   0.0000
   406 H258      3.3584    5.7219   -7.8041   H         1 RES1   0.0000
   407 H259      2.3231    5.4216   -6.4092   H         1 RES1   0.0000
   408 H260      2.7035    3.5643   -8.8083   H         1 RES1   0.0000
   409 H261      1.7030    3.1964   -7.3961   H         1 RES1   0.0000
   410 H262      1.2205    5.4502   -9.3878   H         1 RES1   0.0000
   411 H263      0.2783    5.2397   -7.9276   H         1 RES1   0.0000
   412 H264      0.2501    3.9866   -9.1772   H         1 RES1   0.0000
@<TRIPOS>BOND
     1     1    24    1
     2     1    26    1
     3     1    29    1
     4     1   161    1
     5     1   163    1
     6     1   166    1
     7     1   298    1
     8     1   300    1
     9     1   303    1
    10     2     3    1
    11     2    51    1
    12     2    52    1
    13     2    53    1
    14     3     4    1
    15     3    54    1
    16     3    55    1
    17     4     5    1
    18     4    56    1
    19     4    57    1
    20     5     6    1
    21     5    58    1
    22     5    59    1
    23     6     7    1
    24     6    60    1
    25     6    61    1
    26     7     8    1
    27     7    62    1
    28     7    63    1
    29     8     9    1
    30     8    64    1
    31     8    65    1
    32     9    10    1
    33     9    66    1
    34     9    67    1
    35    10    11    1
    36    10    68    1
    37    10    69    1
    38    11    12    1
    39    11    70    1
    40    11    71    1
    41    12    13    1
    42    12    23    1
    43    13    14    1
    44    13    72    1
    45    13    73    1
    46    14    15    1
    47    14    74    1
    48    14    75    1
    49    15    16    1
    50    15    76    1
    51    15    77    1
    52    16    17    1
    53    16    78    1
    54    16    79    1
    55    17    18    1
    56    17    80    1
    57    17    81    1
    58    18    19    1
    59    18    82    1
    60    18    83    1
    61    19    20    1
    62    19    84    1
    63    19    85    1
    64    20    21    1
    65    20    86    1
    66    20    87    1
    67    21    22    1
    68    21    88    1
    69    21    89    1
    70    22    90    1
    71    22    91    1
    72    22    92    1
    73    23    24    2
    74    23    25    1
    75    25    26    1
    76    25    93    1
    77    25    94    1
    78    26    27    1
    79    27    28    1
    80    27    95    1
    81    27    96    1
    82    28    29    2
    83    28    30    1
    84    30    31    1
    85    30    41    1
    86    31    32    1
    87    31    97    1
    88    31    98    1
    89    32    33    1
    90    32    99    1
    91    32   100    1
    92    33    34    1
    93    33   101    1
    94    33   102    1
    95    34    35    1
    96    34   103    1
    97    34   104    1
    98    35    36    1
    99    35   105    1
   100    35   106    1
   101    36    37    1
   102    36   107    1
   103    36   108    1
   104    37    38    1
   105    37   109    1
   106    37   110    1
   107    38    39    1
   108    38   111    1
   109    38   112    1
   110    39    40    1
   111    39   113    1
   112    39   114    1
   113    40   115    1
   114    40   116    1
   115    40   117    1
   116    41    42    1
   117    41   118    1
   118    41   119    1
   119    42    43    1
   120    42   120    1
   121    42   121    1
   122    43    44    1
   123    43   122    1
   124    43   123    1
   125    44    45    1
   126    44   124    1
   127    44   125    1
   128    45    46    1
   129    45   126    1
   130    45   127    1
   131    46    47    1
   132    46   128    1
   133    46   129    1
   134    47    48    1
   135    47   130    1
   136    47   131    1
   137    48    49    1
   138    48   132    1
   139    48   133    1
   140    49    50    1
   141    49   134    1
   142    49   135    1
   143    50   136    1
   144    50   137    1
   145    50   138    1
   146   139   140    1
   147   139   188    1
   148   139   189    1
   149   139   190    1
   150   140   141    1
   151   140   191    1
   152   140   192    1
   153   141   142    1
   154   141   193    1
   155   141   194    1
   156   142   143    1
   157   142   195    1
   158   142   196    1
   159   143   144    1
   160   143   197    1
   161   143   198    1
   162   144   145    1
   163   144   199    1
   164   144   200    1
   165   145   146    1
   166   145   201    1
   167   145   202    1
   168   146   147    1
   169   146   203    1
   170   146   204    1
   171   147   148    1
   172   147   205    1
   173   147   206    1
   174   148   149    1
   175   148   207    1
   176   148   208    1
   177   149   150    1
   178   149   160    1
   179   150   151    1
   180   150   209    1
   181   150   210    1
   182   151   152    1
   183   151   211    1
   184   151   212    1
   185   152   153    1
   186   152   213    1
   187   152   214    1
   188   153   154    1
   189   153   215    1
   190   153   216    1
   191   154   155    1
   192   154   217    1
   193   154   218    1
   194   155   156    1
   195   155   219    1
   196   155   220    1
   197   156   157    1
   198   156   221    1
   199   156   222    1
   200   157   158    1
   201   157   223    1
   202   157   224    1
   203   158   159    1
   204   158   225    1
   205   158   226    1
   206   159   227    1
   207   159   228    1
   208   159   229    1
   209   160   161    2
   210   160   162    1
   211   162   163    1
   212   162   230    1
   213   162   231    1
   214   163   164    1
   215   164   165    1
   216   164   232    1
   217   164   233    1
   218   165   166    2
   219   165   167    1
   220   167   168    1
   221   167   178    1
   222   168   169    1
   223   168   234    1
   224   168   235    1
   225   169   170    1
   226   169   236    1
   227   169   237    1
   228   170   171    1
   229   170   238    1
   230   170   239    1
   231   171   172    1
   232   171   240    1
   233   171   241    1
   234   172   173    1
   235   172   242    1
   236   172   243    1
   237   173   174    1
   238   173   244    1
   239   173   245    1
   240   174   175    1
   241   174   246    1
   242   174   247    1
   243   175   176    1
   244   175   248    1
   245   175   249    1
   246   176   177    1
   247   176   250    1
   248   176   251    1
   249   177   252    1
   250   177   253    1
   251   177   254    1
   252   178   179    1
   253   178   255    1
   254   178   256    1
   255   179   180    1
   256   179   257    1
   257   179   258    1
   258   180   181    1
   259   180   259    1
   260   180   260    1
   261   181   182    1
   262   181   261    1
   263   181   262    1
   264   182   183    1
   265   182   263    1
   266   182   264    1
   267   183   184    1
   268   183   265    1
   269   183   266    1
   270   184   185    1
   271   184   267    1
   272   184   268    1
   273   185   186    1
   274   185   269    1
   275   185   270    1
   276   186   187    1
   277   186   271    1
   278   186   272    1
   279   187   273    1
   280   187   274    1
   281   187   275    1
   282   276   277    1
   283   276   325    1
   284   276   326    1
   285   276   327    1
   286   277   278    1
   287   277   328    1
   288   277   329    1
   289   278   279    1
   290   278   330    1
   291   278   331    1
   292   279   280    1
   293   279   332    1
   294   279   333    1
   295   280   281    1
   296   280   334    1
   297   280   335    1
   298   281   282    1
   299   281   336    1
   300   281   337    1
   301   282   283    1
   302   282   338    1
   303   282   339    1
   304   283   284    1
   305   283   340    1
   306   283   341    1
   307   284   285    1
   308   284   342    1
   309   284   343    1
   310   285   286    1
   311   285   344    1
   312   285   345    1
   313   286   287    1
   314   286   297    1
   315   287   288    1
   316   287   346    1
   317   287   347    1
   318   288   289    1
   319   288   348    1
   320   288   349    1
   321   289   290    1
   322   289   350    1
   323   289   351    1
   324   290   291    1
   325   290   352    1
   326   290   353    1
   327   291   292    1
   328   291   354    1
   329   291   355    1
   330   292   293    1
   331   292   356    1
   332   292   357    1
   333   293   294    1
   334   293   358    1
   335   293   359    1
   336   294   295    1
   337   294   360    1
   338   294   361    1
   339   295   296    1
   340   295   362    1
   341   295   363    1
   342   296   364    1
   343   296   365    1
   344   296   366    1
   345   297   298    2
   346   297   299    1
   347   299   300    1
   348   299   367    1
   349   299   368    1
   350   300   301    1
   351   301   302    1
   352   301   369    1
   353   301   370    1
   354   302   303    2
   355   302   304    1
   356   304   305    1
   357   304   315    1
   358   305   306    1
   359   305   371    1
   360   305   372    1
   361   306   307    1
   362   306   373    1
   363   306   374    1
   364   307   308    1
   365   307   375    1
   366   307   376    1
   367   308   309    1
   368   308   377    1
   369   308   378    1
   370   309   310    1
   371   309   379    1
   372   309   380    1
   373   310   311    1
   374   310   381    1
   375   310   382    1
   376   311   312    1
   377   311   383    1
   378   311   384    1
   379   312   313    1
   380   312   385    1
   381   312   386    1
   382   313   314    1
   383   313   387    1
   384   313   388    1
   385   314   389    1
   386   314   390    1
   387   314   391    1
   388   315   316    1
   389   315   392    1
   390   315   393    1
   391   316   317    1
   392   316   394    1
   393   316   395    1
   394   317   318    1
   395   317   396    1
   396   317   397    1
   397   318   319    1
   398   318   398    1
   399   318   399    1
   400   319   320    1
   401   319   400    1
   402   319   401    1
   403   320   321    1
   404   320   402    1
   405   320   403    1
   406   321   322    1
   407   321   404    1
   408   321   405    1
   409   322   323    1
   410   322   406    1
   411   322   407    1
   412   323   324    1
   413   323   408    1
   414   323   409    1
   415   324   410    1
   416   324   411    1
   417   324   412    1
@<TRIPOS>SUBSTRUCTURE
     1 RES1      412 GROUP             0 ****  ****    0  
