@<TRIPOS>MOLECULE
cn9_YICLED_0_nunpairedes_0_charge_3 Charge: 3 Unpaired_Electrons: 6 XTB_Unpaired_Electrons: 0 XTB_Charge: 3
   205   210     1     0     0
SMALL
NoCharges
****
Generated from Architector

@<TRIPOS>ATOM
     1 Eu1       0.0250    0.0511    0.0099   Eu        1 RES1   0.0000
     2 C1        1.6812   -5.8952    4.6776   C.3       1 RES1   0.0000
     3 C2        2.9435   -6.3270    3.9424   C.3       1 RES1   0.0000
     4 C3        2.8950   -6.1646    2.4244   C.3       1 RES1   0.0000
     5 C4        2.7045   -4.7202    1.9716   C.3       1 RES1   0.0000
     6 C5        1.2302   -4.3201    1.8503   C.3       1 RES1   0.0000
     7 C6        1.2208   -2.8535    1.4544   C.3       1 RES1   0.0000
     8 O1        0.0021   -2.2137    1.0714   O.3       1 RES1   0.0000
     9 C7       -1.0979   -2.4690    1.9356   C.3       1 RES1   0.0000
    10 C8       -1.0060   -1.9260    3.3663   C.3       1 RES1   0.0000
    11 C9       -1.2531   -0.4104    3.6148   C.3       1 RES1   0.0000
    12 C10       0.0089    0.4179    3.3959   C.2       1 RES1   0.0000
    13 O2        0.4419    0.5518    2.2364   O.2       1 RES1   0.0000
    14 N1        0.6180    0.9961    4.4327   N.am      1 RES1   0.0000
    15 C11       1.8315    1.7439    4.1459   C.3       1 RES1   0.0000
    16 C12       0.1691    1.0925    5.8189   C.3       1 RES1   0.0000
    17 C13       1.1354    0.4866    6.8415   C.3       1 RES1   0.0000
    18 C14       1.3329   -1.0252    6.7279   C.3       1 RES1   0.0000
    19 C15       2.2489   -1.4574    5.5904   C.3       1 RES1   0.0000
    20 C16      -2.2915    0.1789    2.6692   C.2       1 RES1   0.0000
    21 O3       -2.0348    0.2549    1.4555   O.2       1 RES1   0.0000
    22 N2       -3.4468    0.6334    3.1479   N.am      1 RES1   0.0000
    23 C17      -4.4301    1.0419    2.1586   C.3       1 RES1   0.0000
    24 C18      -3.8075    0.6856    4.5527   C.3       1 RES1   0.0000
    25 C19      -4.2000   -0.6631    5.1553   C.3       1 RES1   0.0000
    26 C20      -4.4988   -0.4628    6.6361   C.3       1 RES1   0.0000
    27 C21      -4.8536   -1.7631    7.3296   C.3       1 RES1   0.0000
    28 H1        1.7232   -6.2295    5.7100   H         1 RES1   0.0000
    29 H2        1.5694   -4.8125    4.6936   H         1 RES1   0.0000
    30 H3        0.7985   -6.3385    4.2231   H         1 RES1   0.0000
    31 H4        3.7955   -5.7686    4.3363   H         1 RES1   0.0000
    32 H5        3.1138   -7.3814    4.1528   H         1 RES1   0.0000
    33 H6        3.8344   -6.5444    2.0184   H         1 RES1   0.0000
    34 H7        2.0880   -6.7674    2.0078   H         1 RES1   0.0000
    35 H8        3.2080   -4.0521    2.6742   H         1 RES1   0.0000
    36 H9        3.1787   -4.5677    0.9986   H         1 RES1   0.0000
    37 H10       0.7371   -4.9390    1.0999   H         1 RES1   0.0000
    38 H11       0.7344   -4.4787    2.8026   H         1 RES1   0.0000
    39 H12       1.6968   -2.2893    2.2617   H         1 RES1   0.0000
    40 H13       1.8397   -2.7703    0.5650   H         1 RES1   0.0000
    41 H14      -1.9495   -2.0158    1.4263   H         1 RES1   0.0000
    42 H15      -1.2446   -3.5538    2.0011   H         1 RES1   0.0000
    43 H16      -1.7634   -2.4646    3.9430   H         1 RES1   0.0000
    44 H17      -0.0375   -2.1834    3.7957   H         1 RES1   0.0000
    45 H18      -1.5852   -0.3248    4.6418   H         1 RES1   0.0000
    46 H19       2.0652    1.6178    3.0907   H         1 RES1   0.0000
    47 H20       1.6736    2.8006    4.3647   H         1 RES1   0.0000
    48 H21       2.6538    1.3580    4.7462   H         1 RES1   0.0000
    49 H22       0.0444    2.1622    6.0306   H         1 RES1   0.0000
    50 H23      -0.8031    0.6222    5.9601   H         1 RES1   0.0000
    51 H24       2.0970    0.9950    6.7911   H         1 RES1   0.0000
    52 H25       0.7093    0.7082    7.8214   H         1 RES1   0.0000
    53 H26       1.7785   -1.3665    7.6611   H         1 RES1   0.0000
    54 H27       0.3637   -1.5189    6.6331   H         1 RES1   0.0000
    55 H28       3.2207   -0.9779    5.6764   H         1 RES1   0.0000
    56 H29       2.4091   -2.5311    5.6391   H         1 RES1   0.0000
    57 H30       1.8292   -1.2137    4.6176   H         1 RES1   0.0000
    58 H31      -4.6906    0.1870    1.5284   H         1 RES1   0.0000
    59 H32      -5.3241    1.4099    2.6521   H         1 RES1   0.0000
    60 H33      -4.0020    1.8286    1.5320   H         1 RES1   0.0000
    61 H34      -2.9864    1.1330    5.1254   H         1 RES1   0.0000
    62 H35      -4.6640    1.3554    4.6325   H         1 RES1   0.0000
    63 H36      -5.0745   -1.0581    4.6390   H         1 RES1   0.0000
    64 H37      -3.4007   -1.3964    5.0393   H         1 RES1   0.0000
    65 H38      -3.6232   -0.0183    7.1122   H         1 RES1   0.0000
    66 H39      -5.3190    0.2452    6.7403   H         1 RES1   0.0000
    67 H40      -4.0344   -2.4727    7.2600   H         1 RES1   0.0000
    68 H41      -5.0576   -1.5786    8.3780   H         1 RES1   0.0000
    69 H42      -5.7366   -2.2067    6.8817   H         1 RES1   0.0000
    70 C22      -4.1219   -4.2323    3.0497   C.3       1 RES1   0.0000
    71 C23      -5.1448   -3.6959    2.0593   C.3       1 RES1   0.0000
    72 C24      -4.5576   -2.8595    0.9177   C.3       1 RES1   0.0000
    73 C25      -3.7562   -3.7017   -0.0764   C.3       1 RES1   0.0000
    74 C26      -3.4926   -3.0331   -1.4350   C.3       1 RES1   0.0000
    75 C27      -2.2664   -2.1196   -1.5928   C.3       1 RES1   0.0000
    76 O4       -2.2292   -0.8548   -0.9118   O.3       1 RES1   0.0000
    77 C28      -3.2905    0.0704   -1.1599   C.3       1 RES1   0.0000
    78 C29      -3.1965    1.0998   -2.3015   C.3       1 RES1   0.0000
    79 C30      -2.0745    2.1828   -2.2973   C.3       1 RES1   0.0000
    80 C31      -0.8807    1.4783   -2.9248   C.2       1 RES1   0.0000
    81 O5       -0.3383    0.5591   -2.2927   O.2       1 RES1   0.0000
    82 N3       -0.5162    1.7809   -4.1678   N.am      1 RES1   0.0000
    83 C32       0.3842    0.8598   -4.8387   C.3       1 RES1   0.0000
    84 C33      -1.0867    2.8375   -4.9993   C.3       1 RES1   0.0000
    85 C34      -0.8037    4.2738   -4.5344   C.3       1 RES1   0.0000
    86 C35       0.6425    4.7381   -4.7040   C.3       1 RES1   0.0000
    87 C36       1.5979    4.1179   -3.6965   C.3       1 RES1   0.0000
    88 C37      -1.6472    2.7379   -0.9403   C.2       1 RES1   0.0000
    89 O6       -0.8718    2.0699   -0.2283   O.2       1 RES1   0.0000
    90 N4       -2.0588    3.9363   -0.5152   N.am      1 RES1   0.0000
    91 C38      -1.6490    4.3142    0.8301   C.3       1 RES1   0.0000
    92 C39      -2.8799    4.9411   -1.1883   C.3       1 RES1   0.0000
    93 C40      -2.1010    6.2459   -1.4540   C.3       1 RES1   0.0000
    94 C41      -2.2424    7.3150   -0.3705   C.3       1 RES1   0.0000
    95 C42      -1.5404    8.5979   -0.7852   C.3       1 RES1   0.0000
    96 H43      -4.6187   -4.8448    3.7966   H         1 RES1   0.0000
    97 H44      -3.6200   -3.4176    3.5655   H         1 RES1   0.0000
    98 H45      -3.3766   -4.8518    2.5601   H         1 RES1   0.0000
    99 H46      -5.8737   -3.0966    2.6081   H         1 RES1   0.0000
   100 H47      -5.6868   -4.5365    1.6272   H         1 RES1   0.0000
   101 H48      -3.9445   -2.0506    1.3213   H         1 RES1   0.0000
   102 H49      -5.3920   -2.4038    0.3808   H         1 RES1   0.0000
   103 H50      -4.3475   -4.5972   -0.2785   H         1 RES1   0.0000
   104 H51      -2.8173   -4.0356    0.3648   H         1 RES1   0.0000
   105 H52      -4.4003   -2.5231   -1.7595   H         1 RES1   0.0000
   106 H53      -3.3051   -3.8346   -2.1541   H         1 RES1   0.0000
   107 H54      -2.1003   -1.9542   -2.6677   H         1 RES1   0.0000
   108 H55      -1.3941   -2.6415   -1.1838   H         1 RES1   0.0000
   109 H56      -3.3749    0.6393   -0.2353   H         1 RES1   0.0000
   110 H57      -4.2152   -0.4885   -1.3307   H         1 RES1   0.0000
   111 H58      -4.1544    1.6304   -2.2840   H         1 RES1   0.0000
   112 H59      -3.1226    0.5816   -3.2607   H         1 RES1   0.0000
   113 H60      -2.4240    2.9895   -2.9308   H         1 RES1   0.0000
   114 H61       0.6693    0.0724   -4.1406   H         1 RES1   0.0000
   115 H62       1.2721    1.3819   -5.1901   H         1 RES1   0.0000
   116 H63      -0.1354    0.4069   -5.6838   H         1 RES1   0.0000
   117 H64      -2.1673    2.6696   -5.0985   H         1 RES1   0.0000
   118 H65      -0.6462    2.7108   -5.9892   H         1 RES1   0.0000
   119 H66      -1.0871    4.4148   -3.4903   H         1 RES1   0.0000
   120 H67      -1.4406    4.9180   -5.1428   H         1 RES1   0.0000
   121 H68       0.6572    5.8203   -4.5757   H         1 RES1   0.0000
   122 H69       0.9910    4.5318   -5.7157   H         1 RES1   0.0000
   123 H70       1.1913    4.1781   -2.6884   H         1 RES1   0.0000
   124 H71       2.5474    4.6446   -3.7153   H         1 RES1   0.0000
   125 H72       1.7880    3.0757   -3.9236   H         1 RES1   0.0000
   126 H73      -1.2990    3.4242    1.3568   H         1 RES1   0.0000
   127 H74      -2.5078    4.7459    1.3414   H         1 RES1   0.0000
   128 H75      -0.8377    5.0417    0.8056   H         1 RES1   0.0000
   129 H76      -3.7334    5.1491   -0.5335   H         1 RES1   0.0000
   130 H77      -3.2783    4.5455   -2.1244   H         1 RES1   0.0000
   131 H78      -2.4667    6.6798   -2.3851   H         1 RES1   0.0000
   132 H79      -1.0459    6.0058   -1.6059   H         1 RES1   0.0000
   133 H80      -1.8170    6.9792    0.5724   H         1 RES1   0.0000
   134 H81      -3.2996    7.5205   -0.2037   H         1 RES1   0.0000
   135 H82      -0.4792    8.4277   -0.9422   H         1 RES1   0.0000
   136 H83      -1.6500    9.3531   -0.0155   H         1 RES1   0.0000
   137 H84      -1.9623    8.9932   -1.7027   H         1 RES1   0.0000
   138 C43       6.2748    4.1669   -0.4701   C.3       1 RES1   0.0000
   139 C44       6.0434    5.0382    0.7583   C.3       1 RES1   0.0000
   140 C45       4.5945    5.4785    0.9812   C.3       1 RES1   0.0000
   141 C46       3.6249    4.3292    1.2653   C.3       1 RES1   0.0000
   142 C47       3.0422    3.7285   -0.0195   C.3       1 RES1   0.0000
   143 C48       2.3958    2.3903    0.3067   C.3       1 RES1   0.0000
   144 O7        1.8142    1.6407   -0.7703   O.3       1 RES1   0.0000
   145 C49       2.6323    1.3342   -1.8955   C.3       1 RES1   0.0000
   146 C50       3.7530    0.2840   -1.8132   C.3       1 RES1   0.0000
   147 C51       3.4700   -1.1348   -1.2509   C.3       1 RES1   0.0000
   148 C52       3.3994   -0.9751    0.2623   C.2       1 RES1   0.0000
   149 O8        2.3972   -0.4453    0.7663   O.2       1 RES1   0.0000
   150 N5        4.4275   -1.3386    1.0304   N.am      1 RES1   0.0000
   151 C53       4.2593   -1.0333    2.4437   C.3       1 RES1   0.0000
   152 C54       5.5737   -2.1574    0.6489   C.3       1 RES1   0.0000
   153 C55       6.9184   -1.6623    1.1833   C.3       1 RES1   0.0000
   154 C56       7.3436   -0.2710    0.7126   C.3       1 RES1   0.0000
   155 C57       6.6442    0.8929    1.4024   C.3       1 RES1   0.0000
   156 C58       2.1885   -1.8106   -1.7309   C.2       1 RES1   0.0000
   157 O9        1.0766   -1.3727   -1.3881   O.2       1 RES1   0.0000
   158 N6        2.2777   -2.9062   -2.4866   N.am      1 RES1   0.0000
   159 C59       1.0580   -3.4400   -3.0675   C.3       1 RES1   0.0000
   160 C60       3.4846   -3.6518   -2.8098   C.3       1 RES1   0.0000
   161 C61       4.3050   -3.0659   -3.9564   C.3       1 RES1   0.0000
   162 C62       5.5073   -3.9646   -4.2258   C.3       1 RES1   0.0000
   163 C63       6.3912   -3.4021   -5.3219   C.3       1 RES1   0.0000
   164 H85       7.3399    4.0469   -0.6497   H         1 RES1   0.0000
   165 H86       5.8514    3.1734   -0.3438   H         1 RES1   0.0000
   166 H87       5.8455    4.6286   -1.3559   H         1 RES1   0.0000
   167 H88       6.4036    4.5129    1.6457   H         1 RES1   0.0000
   168 H89       6.6465    5.9386    0.6489   H         1 RES1   0.0000
   169 H90       4.5893    6.1617    1.8317   H         1 RES1   0.0000
   170 H91       4.2384    6.0343    0.1127   H         1 RES1   0.0000
   171 H92       4.1521    3.5573    1.8307   H         1 RES1   0.0000
   172 H93       2.8041    4.6768    1.8980   H         1 RES1   0.0000
   173 H94       2.3183    4.4198   -0.4531   H         1 RES1   0.0000
   174 H95       3.8415    3.5815   -0.7385   H         1 RES1   0.0000
   175 H96       3.1336    1.7762    0.8363   H         1 RES1   0.0000
   176 H97       1.5462    2.5623    0.9765   H         1 RES1   0.0000
   177 H98       1.9188    0.9775   -2.6359   H         1 RES1   0.0000
   178 H99       3.1047    2.2529   -2.2600   H         1 RES1   0.0000
   179 H100      4.1042    0.1620   -2.8434   H         1 RES1   0.0000
   180 H101      4.5861    0.6850   -1.2324   H         1 RES1   0.0000
   181 H102      4.3168   -1.7462   -1.5413   H         1 RES1   0.0000
   182 H103      3.3810   -1.5424    2.8368   H         1 RES1   0.0000
   183 H104      5.1404   -1.3309    2.9968   H         1 RES1   0.0000
   184 H105      4.0980    0.0381    2.5655   H         1 RES1   0.0000
   185 H106      5.3765   -3.1717    1.0243   H         1 RES1   0.0000
   186 H107      5.6598   -2.2097   -0.4368   H         1 RES1   0.0000
   187 H108      6.9346   -1.7070    2.2714   H         1 RES1   0.0000
   188 H109      7.6506   -2.3870    0.8239   H         1 RES1   0.0000
   189 H110      8.4096   -0.1841    0.9184   H         1 RES1   0.0000
   190 H111      7.2125   -0.1913   -0.3681   H         1 RES1   0.0000
   191 H112      6.6744    0.7787    2.4827   H         1 RES1   0.0000
   192 H113      7.1617    1.8140    1.1536   H         1 RES1   0.0000
   193 H114      5.6072    0.9947    1.0897   H         1 RES1   0.0000
   194 H115      0.2420   -2.7427   -2.8824   H         1 RES1   0.0000
   195 H116      1.2091   -3.5606   -4.1406   H         1 RES1   0.0000
   196 H117      0.8239   -4.4065   -2.6184   H         1 RES1   0.0000
   197 H118      4.1073   -3.7696   -1.9172   H         1 RES1   0.0000
   198 H119      3.1548   -4.6508   -3.1014   H         1 RES1   0.0000
   199 H120      3.6830   -2.9972   -4.8490   H         1 RES1   0.0000
   200 H121      4.6469   -2.0577   -3.7167   H         1 RES1   0.0000
   201 H122      6.0856   -4.0732   -3.3071   H         1 RES1   0.0000
   202 H123      5.1576   -4.9556   -4.5101   H         1 RES1   0.0000
   203 H124      6.7707   -2.4231   -5.0456   H         1 RES1   0.0000
   204 H125      7.2357   -4.0581   -5.4941   H         1 RES1   0.0000
   205 H126      5.8401   -3.3097   -6.2518   H         1 RES1   0.0000
@<TRIPOS>BOND
     1     1     8    1
     2     1    13    1
     3     1    21    1
     4     1    76    1
     5     1    81    1
     6     1    89    1
     7     1   144    1
     8     1   149    1
     9     1   157    1
    10     2     3    1
    11     2    28    1
    12     2    29    1
    13     2    30    1
    14     3     4    1
    15     3    31    1
    16     3    32    1
    17     4     5    1
    18     4    33    1
    19     4    34    1
    20     5     6    1
    21     5    35    1
    22     5    36    1
    23     6     7    1
    24     6    37    1
    25     6    38    1
    26     7     8    1
    27     7    39    1
    28     7    40    1
    29     8     9    1
    30     9    10    1
    31     9    41    1
    32     9    42    1
    33    10    11    1
    34    10    43    1
    35    10    44    1
    36    11    12    1
    37    11    20    1
    38    11    45    1
    39    12    13    2
    40    12    14    1
    41    14    15    1
    42    14    16    1
    43    15    46    1
    44    15    47    1
    45    15    48    1
    46    16    17    1
    47    16    49    1
    48    16    50    1
    49    17    18    1
    50    17    51    1
    51    17    52    1
    52    18    19    1
    53    18    53    1
    54    18    54    1
    55    19    55    1
    56    19    56    1
    57    19    57    1
    58    20    21    2
    59    20    22    1
    60    22    23    1
    61    22    24    1
    62    23    58    1
    63    23    59    1
    64    23    60    1
    65    24    25    1
    66    24    61    1
    67    24    62    1
    68    25    26    1
    69    25    63    1
    70    25    64    1
    71    26    27    1
    72    26    65    1
    73    26    66    1
    74    27    67    1
    75    27    68    1
    76    27    69    1
    77    70    71    1
    78    70    96    1
    79    70    97    1
    80    70    98    1
    81    71    72    1
    82    71    99    1
    83    71   100    1
    84    72    73    1
    85    72   101    1
    86    72   102    1
    87    73    74    1
    88    73   103    1
    89    73   104    1
    90    74    75    1
    91    74   105    1
    92    74   106    1
    93    75    76    1
    94    75   107    1
    95    75   108    1
    96    76    77    1
    97    77    78    1
    98    77   109    1
    99    77   110    1
   100    78    79    1
   101    78   111    1
   102    78   112    1
   103    79    80    1
   104    79    88    1
   105    79   113    1
   106    80    81    2
   107    80    82    1
   108    82    83    1
   109    82    84    1
   110    83   114    1
   111    83   115    1
   112    83   116    1
   113    84    85    1
   114    84   117    1
   115    84   118    1
   116    85    86    1
   117    85   119    1
   118    85   120    1
   119    86    87    1
   120    86   121    1
   121    86   122    1
   122    87   123    1
   123    87   124    1
   124    87   125    1
   125    88    89    2
   126    88    90    1
   127    90    91    1
   128    90    92    1
   129    91   126    1
   130    91   127    1
   131    91   128    1
   132    92    93    1
   133    92   129    1
   134    92   130    1
   135    93    94    1
   136    93   131    1
   137    93   132    1
   138    94    95    1
   139    94   133    1
   140    94   134    1
   141    95   135    1
   142    95   136    1
   143    95   137    1
   144   138   139    1
   145   138   164    1
   146   138   165    1
   147   138   166    1
   148   139   140    1
   149   139   167    1
   150   139   168    1
   151   140   141    1
   152   140   169    1
   153   140   170    1
   154   141   142    1
   155   141   171    1
   156   141   172    1
   157   142   143    1
   158   142   173    1
   159   142   174    1
   160   143   144    1
   161   143   175    1
   162   143   176    1
   163   144   145    1
   164   145   146    1
   165   145   177    1
   166   145   178    1
   167   146   147    1
   168   146   179    1
   169   146   180    1
   170   147   148    1
   171   147   156    1
   172   147   181    1
   173   148   149    2
   174   148   150    1
   175   150   151    1
   176   150   152    1
   177   151   182    1
   178   151   183    1
   179   151   184    1
   180   152   153    1
   181   152   185    1
   182   152   186    1
   183   153   154    1
   184   153   187    1
   185   153   188    1
   186   154   155    1
   187   154   189    1
   188   154   190    1
   189   155   191    1
   190   155   192    1
   191   155   193    1
   192   156   157    2
   193   156   158    1
   194   158   159    1
   195   158   160    1
   196   159   194    1
   197   159   195    1
   198   159   196    1
   199   160   161    1
   200   160   197    1
   201   160   198    1
   202   161   162    1
   203   161   199    1
   204   161   200    1
   205   162   163    1
   206   162   201    1
   207   162   202    1
   208   163   203    1
   209   163   204    1
   210   163   205    1
@<TRIPOS>SUBSTRUCTURE
     1 RES1      205 GROUP             0 ****  ****    0  
