@<TRIPOS>MOLECULE
am_c3_9H2O_c0_0_nunpairedes_0_charge_3 Charge: 3 Unpaired_Electrons: 6 XTB_Unpaired_Electrons: 0 XTB_Charge: 3
   340   345     1     0     0
SMALL
NoCharges
****
Generated from Architector

@<TRIPOS>ATOM
     1 Eu1      -0.1309   -0.0994   -0.0636   Eu        1 RES1   0.0000
     2 C1       -2.6725    1.7663   -7.9807   C.3       1 RES1   0.0000
     3 C2       -3.2969    0.3766   -7.8753   C.3       1 RES1   0.0000
     4 C3       -4.5009    0.3154   -6.9330   C.3       1 RES1   0.0000
     5 C4       -4.1326    0.5103   -5.4578   C.3       1 RES1   0.0000
     6 C5       -5.3810    0.6229   -4.5796   C.3       1 RES1   0.0000
     7 C6       -6.2546   -0.6389   -4.5696   C.3       1 RES1   0.0000
     8 C7       -5.4786   -1.9441   -4.4187   C.3       1 RES1   0.0000
     9 C8       -5.1301    1.2018   -3.1665   C.3       1 RES1   0.0000
    10 N1       -4.4783    0.4297   -2.1080   N.am      1 RES1   0.0000
    11 C9       -5.3787   -0.4469   -1.3273   C.3       1 RES1   0.0000
    12 C10      -6.5734    0.2656   -0.6539   C.3       1 RES1   0.0000
    13 C11      -6.1625    0.8204    0.7104   C.3       1 RES1   0.0000
    14 C12      -7.2609    1.6560    1.3555   C.3       1 RES1   0.0000
    15 C13      -7.8535   -0.5997   -0.6290   C.3       1 RES1   0.0000
    16 C14      -7.9669   -1.6592    0.4668   C.3       1 RES1   0.0000
    17 C15      -9.3701   -2.2755    0.5382   C.3       1 RES1   0.0000
    18 C16      -9.5567   -3.4369   -0.4258   C.3       1 RES1   0.0000
    19 C17      -3.1954    0.5342   -1.7667   C.2       1 RES1   0.0000
    20 O1       -2.6710   -0.0621   -0.8000   O.2       1 RES1   0.0000
    21 C18      -2.2470    1.3933   -2.6290   C.3       1 RES1   0.0000
    22 O2       -1.1037    1.8259   -1.8909   O.3       1 RES1   0.0000
    23 C19      -1.1836    3.1337   -1.3414   C.3       1 RES1   0.0000
    24 C20      -1.2865    3.0644    0.1833   C.2       1 RES1   0.0000
    25 O3       -1.2466    1.9326    0.7100   O.2       1 RES1   0.0000
    26 N2       -1.4021    4.1867    0.8935   N.am      1 RES1   0.0000
    27 C21      -1.5364    5.5410    0.3401   C.3       1 RES1   0.0000
    28 C22      -0.3002    6.4669    0.0377   C.3       1 RES1   0.0000
    29 C23      -0.2645    6.8333   -1.4601   C.3       1 RES1   0.0000
    30 C24      -1.4231    7.7182   -1.9047   C.3       1 RES1   0.0000
    31 C25       1.0957    5.9948    0.4937   C.3       1 RES1   0.0000
    32 C26       1.6096    6.6260    1.7986   C.3       1 RES1   0.0000
    33 C27       3.1233    6.8758    1.7947   C.3       1 RES1   0.0000
    34 C28       3.9863    5.6209    1.8809   C.3       1 RES1   0.0000
    35 C29      -1.8296    3.9828    2.2843   C.3       1 RES1   0.0000
    36 C30      -3.3217    3.5662    2.3492   C.3       1 RES1   0.0000
    37 C31      -3.6107    2.6292    3.5376   C.3       1 RES1   0.0000
    38 C32      -3.6117    3.2533    4.9237   C.3       1 RES1   0.0000
    39 C33      -4.3251    4.7333    2.1903   C.3       1 RES1   0.0000
    40 C34      -4.0663    6.0759    2.9000   C.3       1 RES1   0.0000
    41 C35      -4.9800    6.3967    4.0832   C.3       1 RES1   0.0000
    42 C36      -4.9876    7.8905    4.3940   C.3       1 RES1   0.0000
    43 H1       -1.8182    1.7361   -8.6546   H         1 RES1   0.0000
    44 H2       -3.3946    2.4747   -8.3821   H         1 RES1   0.0000
    45 H3       -2.3284    2.1307   -7.0120   H         1 RES1   0.0000
    46 H4       -3.6272    0.0782   -8.8728   H         1 RES1   0.0000
    47 H5       -2.5437   -0.3457   -7.5490   H         1 RES1   0.0000
    48 H6       -5.2165    1.0866   -7.2230   H         1 RES1   0.0000
    49 H7       -4.9910   -0.6497   -7.0642   H         1 RES1   0.0000
    50 H8       -3.4768   -0.3012   -5.1305   H         1 RES1   0.0000
    51 H9       -3.5809    1.4484   -5.3672   H         1 RES1   0.0000
    52 H10      -5.9970    1.4102   -5.0352   H         1 RES1   0.0000
    53 H11      -6.9918   -0.5374   -3.7714   H         1 RES1   0.0000
    54 H12      -6.8244   -0.6795   -5.5002   H         1 RES1   0.0000
    55 H13      -4.6661   -1.8490   -3.7010   H         1 RES1   0.0000
    56 H14      -6.1429   -2.7427   -4.1066   H         1 RES1   0.0000
    57 H15      -5.0466   -2.2447   -5.3681   H         1 RES1   0.0000
    58 H16      -4.6149    2.1561   -3.2948   H         1 RES1   0.0000
    59 H17      -6.1199    1.4415   -2.7833   H         1 RES1   0.0000
    60 H18      -5.7636   -1.2058   -2.0095   H         1 RES1   0.0000
    61 H19      -4.7716   -0.9329   -0.5608   H         1 RES1   0.0000
    62 H20      -6.8536    1.1293   -1.2621   H         1 RES1   0.0000
    63 H21      -5.8770    0.0110    1.3794   H         1 RES1   0.0000
    64 H22      -5.2784    1.4465    0.5659   H         1 RES1   0.0000
    65 H23      -8.1848    1.0940    1.4371   H         1 RES1   0.0000
    66 H24      -6.9743    1.9532    2.3570   H         1 RES1   0.0000
    67 H25      -7.4643    2.5490    0.7746   H         1 RES1   0.0000
    68 H26      -8.7009    0.0780   -0.5133   H         1 RES1   0.0000
    69 H27      -7.9730   -1.0811   -1.6008   H         1 RES1   0.0000
    70 H28      -7.2449   -2.4570    0.2874   H         1 RES1   0.0000
    71 H29      -7.7436   -1.2021    1.4289   H         1 RES1   0.0000
    72 H30      -9.5464   -2.6409    1.5506   H         1 RES1   0.0000
    73 H31     -10.1230   -1.5112    0.3375   H         1 RES1   0.0000
    74 H32      -8.8865   -4.2518   -0.1650   H         1 RES1   0.0000
    75 H33     -10.5721   -3.8146   -0.3748   H         1 RES1   0.0000
    76 H34      -9.3610   -3.1373   -1.4500   H         1 RES1   0.0000
    77 H35      -1.8604    0.7547   -3.4276   H         1 RES1   0.0000
    78 H36      -2.7335    2.2491   -3.0916   H         1 RES1   0.0000
    79 H37      -0.2698    3.6545   -1.6455   H         1 RES1   0.0000
    80 H38      -2.0367    3.6877   -1.7442   H         1 RES1   0.0000
    81 H39      -2.1056    5.4708   -0.5875   H         1 RES1   0.0000
    82 H40      -2.1527    6.0849    1.0502   H         1 RES1   0.0000
    83 H41      -0.4925    7.4114    0.5599   H         1 RES1   0.0000
    84 H42       0.6578    7.3833   -1.6576   H         1 RES1   0.0000
    85 H43      -0.2493    5.9258   -2.0680   H         1 RES1   0.0000
    86 H44      -1.4271    8.6434   -1.3359   H         1 RES1   0.0000
    87 H45      -1.3061    7.9780   -2.9540   H         1 RES1   0.0000
    88 H46      -2.3865    7.2284   -1.7755   H         1 RES1   0.0000
    89 H47       1.0968    4.9125    0.5572   H         1 RES1   0.0000
    90 H48       1.8176    6.2705   -0.2775   H         1 RES1   0.0000
    91 H49       1.1273    7.5945    1.9373   H         1 RES1   0.0000
    92 H50       1.3559    6.0082    2.6614   H         1 RES1   0.0000
    93 H51       3.3873    7.4227    0.8886   H         1 RES1   0.0000
    94 H52       3.3748    7.5178    2.6405   H         1 RES1   0.0000
    95 H53       3.7881    4.9423    1.0514   H         1 RES1   0.0000
    96 H54       5.0353    5.9023    1.8374   H         1 RES1   0.0000
    97 H55       3.8261    5.0985    2.8219   H         1 RES1   0.0000
    98 H56      -1.2357    3.1653    2.6995   H         1 RES1   0.0000
    99 H57      -1.6232    4.8856    2.8503   H         1 RES1   0.0000
   100 H58      -3.4765    2.9159    1.4740   H         1 RES1   0.0000
   101 H59      -4.5918    2.1778    3.3698   H         1 RES1   0.0000
   102 H60      -2.8759    1.8173    3.5054   H         1 RES1   0.0000
   103 H61      -4.4951    3.8619    5.0712   H         1 RES1   0.0000
   104 H62      -3.6292    2.4711    5.6760   H         1 RES1   0.0000
   105 H63      -2.7306    3.8629    5.0892   H         1 RES1   0.0000
   106 H64      -4.4013    4.9279    1.1160   H         1 RES1   0.0000
   107 H65      -5.3016    4.3563    2.4931   H         1 RES1   0.0000
   108 H66      -3.0417    6.1489    3.2515   H         1 RES1   0.0000
   109 H67      -4.2064    6.8691    2.1648   H         1 RES1   0.0000
   110 H68      -5.9998    6.0763    3.8667   H         1 RES1   0.0000
   111 H69      -4.6369    5.8718    4.9737   H         1 RES1   0.0000
   112 H70      -5.4211    8.4601    3.5746   H         1 RES1   0.0000
   113 H71      -5.5783    8.0793    5.2873   H         1 RES1   0.0000
   114 H72      -3.9812    8.2632    4.5753   H         1 RES1   0.0000
   115 C37      -0.7875    7.6959    4.6152   C.3       1 RES1   0.0000
   116 C38      -1.2756    6.8039    5.7557   C.3       1 RES1   0.0000
   117 C39      -0.2411    5.7739    6.2270   C.3       1 RES1   0.0000
   118 C40       0.0817    4.6676    5.2110   C.3       1 RES1   0.0000
   119 C41       1.3406    3.8853    5.6137   C.3       1 RES1   0.0000
   120 C42       1.1028    2.9497    6.8067   C.3       1 RES1   0.0000
   121 C43      -0.0191    1.9242    6.6437   C.3       1 RES1   0.0000
   122 C44       2.1202    3.2768    4.4071   C.3       1 RES1   0.0000
   123 N3        1.8501    1.9139    3.9428   N.am      1 RES1   0.0000
   124 C45       2.6664    0.8874    4.5926   C.3       1 RES1   0.0000
   125 C46       4.1401    1.0450    4.1295   C.3       1 RES1   0.0000
   126 C47       4.4400    0.1315    2.9390   C.3       1 RES1   0.0000
   127 C48       5.6613    0.6106    2.1476   C.3       1 RES1   0.0000
   128 C49       5.0850    0.8820    5.3350   C.3       1 RES1   0.0000
   129 C50       5.3771   -0.5718    5.6856   C.3       1 RES1   0.0000
   130 C51       5.8581   -0.7686    7.1225   C.3       1 RES1   0.0000
   131 C52       4.7016   -1.0796    8.0634   C.3       1 RES1   0.0000
   132 C53       1.3734    1.6232    2.7221   C.2       1 RES1   0.0000
   133 O4        0.9039    0.5222    2.3818   O.2       1 RES1   0.0000
   134 C54       1.5403    2.6875    1.6320   C.3       1 RES1   0.0000
   135 O5        1.3747    2.0318    0.3810   O.3       1 RES1   0.0000
   136 C55       2.1304    2.5791   -0.6786   C.3       1 RES1   0.0000
   137 C56       2.1359    1.5308   -1.8011   C.2       1 RES1   0.0000
   138 O6        1.5678    0.4414   -1.5865   O.2       1 RES1   0.0000
   139 N4        2.8391    1.7953   -2.8964   N.am      1 RES1   0.0000
   140 C57       2.9001    3.1105   -3.4958   C.3       1 RES1   0.0000
   141 C58       1.8308    3.3263   -4.6210   C.3       1 RES1   0.0000
   142 C59       1.1854    4.7093   -4.4572   C.3       1 RES1   0.0000
   143 C60       2.1455    5.8869   -4.5485   C.3       1 RES1   0.0000
   144 C61       0.7222    2.2557   -4.6892   C.3       1 RES1   0.0000
   145 C62       0.8336    1.3415   -5.9108   C.3       1 RES1   0.0000
   146 C63      -0.1214    0.1498   -5.8405   C.3       1 RES1   0.0000
   147 C64       0.2427   -0.8913   -4.7853   C.3       1 RES1   0.0000
   148 C65       3.3513    0.6900   -3.6897   C.3       1 RES1   0.0000
   149 C66       4.7414    0.2382   -3.2091   C.3       1 RES1   0.0000
   150 C67       5.0913   -1.1177   -3.8529   C.3       1 RES1   0.0000
   151 C68       4.7600   -1.3034   -5.3310   C.3       1 RES1   0.0000
   152 C69       5.8327    1.3102   -3.3742   C.3       1 RES1   0.0000
   153 C70       6.1161    1.8005   -4.8017   C.3       1 RES1   0.0000
   154 C71       7.4030    1.2242   -5.3885   C.3       1 RES1   0.0000
   155 C72       7.6071    1.6543   -6.8356   C.3       1 RES1   0.0000
   156 H73      -1.5315    8.4571    4.3875   H         1 RES1   0.0000
   157 H74       0.1324    8.2013    4.8998   H         1 RES1   0.0000
   158 H75      -0.5980    7.1269    3.7058   H         1 RES1   0.0000
   159 H76      -1.5110    7.4470    6.6064   H         1 RES1   0.0000
   160 H77      -2.2031    6.3029    5.4668   H         1 RES1   0.0000
   161 H78       0.6810    6.3103    6.4660   H         1 RES1   0.0000
   162 H79      -0.6142    5.3259    7.1498   H         1 RES1   0.0000
   163 H80      -0.7674    3.9939    5.1091   H         1 RES1   0.0000
   164 H81       0.2562    5.1387    4.2410   H         1 RES1   0.0000
   165 H82       2.0476    4.6450    5.9707   H         1 RES1   0.0000
   166 H83       2.0402    2.4488    7.0532   H         1 RES1   0.0000
   167 H84       0.8730    3.5769    7.6695   H         1 RES1   0.0000
   168 H85      -0.0017    1.4496    5.6633   H         1 RES1   0.0000
   169 H86       0.0762    1.1519    7.4046   H         1 RES1   0.0000
   170 H87      -0.9913    2.3931    6.7781   H         1 RES1   0.0000
   171 H88       1.9885    3.9721    3.5812   H         1 RES1   0.0000
   172 H89       3.1674    3.3110    4.7032   H         1 RES1   0.0000
   173 H90       2.5893    0.9816    5.6717   H         1 RES1   0.0000
   174 H91       2.2811   -0.0900    4.3032   H         1 RES1   0.0000
   175 H92       4.2798    2.0569    3.7352   H         1 RES1   0.0000
   176 H93       4.5939   -0.8847    3.2826   H         1 RES1   0.0000
   177 H94       3.5705    0.1159    2.2768   H         1 RES1   0.0000
   178 H95       6.2305   -0.2172    1.7343   H         1 RES1   0.0000
   179 H96       5.3561    1.2497    1.3193   H         1 RES1   0.0000
   180 H97       6.3235    1.1889    2.7827   H         1 RES1   0.0000
   181 H98       6.0214    1.4056    5.1528   H         1 RES1   0.0000
   182 H99       4.6161    1.3748    6.1905   H         1 RES1   0.0000
   183 H100      4.4615   -1.1474    5.5485   H         1 RES1   0.0000
   184 H101      6.1317   -0.9462    4.9974   H         1 RES1   0.0000
   185 H102      6.5670   -1.5974    7.1567   H         1 RES1   0.0000
   186 H103      6.3863    0.1215    7.4629   H         1 RES1   0.0000
   187 H104      4.2296   -2.0162    7.7784   H         1 RES1   0.0000
   188 H105      5.0523   -1.1778    9.0852   H         1 RES1   0.0000
   189 H106      3.9516   -0.2934    8.0331   H         1 RES1   0.0000
   190 H107      0.8184    3.4969    1.7406   H         1 RES1   0.0000
   191 H108      2.5554    3.0891    1.7144   H         1 RES1   0.0000
   192 H109      1.7175    3.5468   -0.9830   H         1 RES1   0.0000
   193 H110      3.1761    2.7212   -0.3735   H         1 RES1   0.0000
   194 H111      2.7504    3.8530   -2.7200   H         1 RES1   0.0000
   195 H112      3.8947    3.2487   -3.9181   H         1 RES1   0.0000
   196 H113      2.3522    3.3283   -5.5823   H         1 RES1   0.0000
   197 H114      0.4390    4.8267   -5.2431   H         1 RES1   0.0000
   198 H115      0.6627    4.7395   -3.4975   H         1 RES1   0.0000
   199 H116      2.6402    5.9012   -5.5145   H         1 RES1   0.0000
   200 H117      1.5884    6.8140   -4.4479   H         1 RES1   0.0000
   201 H118      2.9037    5.8573   -3.7721   H         1 RES1   0.0000
   202 H119      0.7016    1.6597   -3.7798   H         1 RES1   0.0000
   203 H120     -0.2462    2.7553   -4.7586   H         1 RES1   0.0000
   204 H121      0.5938    1.9238   -6.8007   H         1 RES1   0.0000
   205 H122      1.8494    0.9719   -6.0442   H         1 RES1   0.0000
   206 H123     -1.1337    0.5156   -5.6567   H         1 RES1   0.0000
   207 H124     -0.1274   -0.3415   -6.8156   H         1 RES1   0.0000
   208 H125      0.1815   -0.5059   -3.7630   H         1 RES1   0.0000
   209 H126     -0.4357   -1.7348   -4.8702   H         1 RES1   0.0000
   210 H127      1.2475   -1.2678   -4.9608   H         1 RES1   0.0000
   211 H128      2.6692   -0.1525   -3.5921   H         1 RES1   0.0000
   212 H129      3.4045    1.0047   -4.7245   H         1 RES1   0.0000
   213 H130      4.6610    0.0525   -2.1282   H         1 RES1   0.0000
   214 H131      6.1543   -1.3012   -3.6996   H         1 RES1   0.0000
   215 H132      4.5493   -1.8871   -3.3045   H         1 RES1   0.0000
   216 H133      5.3190   -0.6327   -5.9718   H         1 RES1   0.0000
   217 H134      5.0128   -2.3206   -5.6187   H         1 RES1   0.0000
   218 H135      3.6991   -1.1668   -5.5173   H         1 RES1   0.0000
   219 H136      5.5550    2.1563   -2.7393   H         1 RES1   0.0000
   220 H137      6.7567    0.9070   -2.9550   H         1 RES1   0.0000
   221 H138      5.2840    1.5616   -5.4629   H         1 RES1   0.0000
   222 H139      6.2146    2.8866   -4.7931   H         1 RES1   0.0000
   223 H140      8.2459    1.5717   -4.7902   H         1 RES1   0.0000
   224 H141      7.3842    0.1346   -5.3357   H         1 RES1   0.0000
   225 H142      7.5858    2.7385   -6.9252   H         1 RES1   0.0000
   226 H143      8.5687    1.3030   -7.1988   H         1 RES1   0.0000
   227 H144      6.8350    1.2426   -7.4829   H         1 RES1   0.0000
   228 C73      -3.7016   -2.7075    4.2467   C.3       1 RES1   0.0000
   229 C74      -4.3336   -2.1281    2.9861   C.3       1 RES1   0.0000
   230 C75      -4.7577   -3.2270    2.0011   C.3       1 RES1   0.0000
   231 C76      -3.6268   -3.5143    1.0062   C.3       1 RES1   0.0000
   232 C77      -3.6901   -4.8972    0.3290   C.3       1 RES1   0.0000
   233 C78      -5.0988   -5.2729   -0.1564   C.3       1 RES1   0.0000
   234 C79      -5.6555   -4.4218   -1.2934   C.3       1 RES1   0.0000
   235 C80      -2.6333   -5.1211   -0.8048   C.3       1 RES1   0.0000
   236 N5       -2.1100   -3.9365   -1.4852   N.am      1 RES1   0.0000
   237 C81      -2.4323   -3.8012   -2.9085   C.3       1 RES1   0.0000
   238 C82      -1.7381   -4.8845   -3.7631   C.3       1 RES1   0.0000
   239 C83      -0.2159   -4.7624   -3.6436   C.3       1 RES1   0.0000
   240 C84       0.5367   -5.8689   -4.3708   C.3       1 RES1   0.0000
   241 C85      -2.2668   -4.9011   -5.2108   C.3       1 RES1   0.0000
   242 C86      -1.8491   -3.7438   -6.1173   C.3       1 RES1   0.0000
   243 C87      -2.2283   -3.9677   -7.5834   C.3       1 RES1   0.0000
   244 C88      -3.7219   -3.8626   -7.8620   C.3       1 RES1   0.0000
   245 C89      -1.2557   -3.0975   -0.9229   C.2       1 RES1   0.0000
   246 O7       -0.8902   -2.0098   -1.4192   O.2       1 RES1   0.0000
   247 C90      -0.5694   -3.5134    0.3804   C.3       1 RES1   0.0000
   248 O8       -0.4212   -2.3736    1.2301   O.3       1 RES1   0.0000
   249 C91       0.7087   -2.5601    2.0878   C.3       1 RES1   0.0000
   250 C92       1.9211   -2.5118    1.1450   C.2       1 RES1   0.0000
   251 O9        1.8744   -1.5768    0.3145   O.2       1 RES1   0.0000
   252 N6        2.8302   -3.4782    1.1206   N.am      1 RES1   0.0000
   253 C93       2.9973   -4.5184    2.1318   C.3       1 RES1   0.0000
   254 C94       3.8207   -4.1928    3.3945   C.3       1 RES1   0.0000
   255 C95       3.0134   -3.4239    4.4514   C.3       1 RES1   0.0000
   256 C96       1.9273   -4.2571    5.1286   C.3       1 RES1   0.0000
   257 C97       5.1608   -3.5015    3.0886   C.3       1 RES1   0.0000
   258 C98       6.2910   -4.4281    2.6062   C.3       1 RES1   0.0000
   259 C99       7.6282   -4.0921    3.2728   C.3       1 RES1   0.0000
   260 C100      8.1477   -2.7015    2.9213   C.3       1 RES1   0.0000
   261 C101      3.7300   -3.5916   -0.0344   C.3       1 RES1   0.0000
   262 C102      3.3436   -4.6775   -1.0684   C.3       1 RES1   0.0000
   263 C103      4.1748   -4.4748   -2.3551   C.3       1 RES1   0.0000
   264 C104      5.6642   -4.2178   -2.1537   C.3       1 RES1   0.0000
   265 C105      3.3827   -6.1522   -0.5973   C.3       1 RES1   0.0000
   266 C106      4.6728   -6.6522    0.0809   C.3       1 RES1   0.0000
   267 C107      5.4964   -7.6338   -0.7501   C.3       1 RES1   0.0000
   268 C108      6.8063   -7.9756   -0.0469   C.3       1 RES1   0.0000
   269 H145     -3.3050   -1.9143    4.8712   H         1 RES1   0.0000
   270 H146     -4.4447   -3.2455    4.8268   H         1 RES1   0.0000
   271 H147     -2.8909   -3.3938    4.0066   H         1 RES1   0.0000
   272 H148     -5.2005   -1.5349    3.2790   H         1 RES1   0.0000
   273 H149     -3.6193   -1.4590    2.4951   H         1 RES1   0.0000
   274 H150     -4.9750   -4.1327    2.5661   H         1 RES1   0.0000
   275 H151     -5.6609   -2.9263    1.4750   H         1 RES1   0.0000
   276 H152     -3.5861   -2.7144    0.2636   H         1 RES1   0.0000
   277 H153     -2.7177   -3.4534    1.6047   H         1 RES1   0.0000
   278 H154     -3.4588   -5.6340    1.1069   H         1 RES1   0.0000
   279 H155     -5.0866   -6.3178   -0.4697   H         1 RES1   0.0000
   280 H156     -5.7717   -5.2132    0.6963   H         1 RES1   0.0000
   281 H157     -5.3519   -4.8100   -2.2634   H         1 RES1   0.0000
   282 H158     -6.7417   -4.4402   -1.2748   H         1 RES1   0.0000
   283 H159     -5.3344   -3.3882   -1.2063   H         1 RES1   0.0000
   284 H160     -1.7998   -5.7161   -0.4152   H         1 RES1   0.0000
   285 H161     -3.1109   -5.7287   -1.5726   H         1 RES1   0.0000
   286 H162     -3.5125   -3.8890   -3.0203   H         1 RES1   0.0000
   287 H163     -2.1097   -2.8098   -3.2266   H         1 RES1   0.0000
   288 H164     -2.0208   -5.8548   -3.3417   H         1 RES1   0.0000
   289 H165      0.1174   -3.7929   -4.0155   H         1 RES1   0.0000
   290 H166      0.0456   -4.8057   -2.5814   H         1 RES1   0.0000
   291 H167      0.3815   -5.8075   -5.4437   H         1 RES1   0.0000
   292 H168      1.6025   -5.7832   -4.1756   H         1 RES1   0.0000
   293 H169      0.2049   -6.8465   -4.0295   H         1 RES1   0.0000
   294 H170     -1.9215   -5.8268   -5.6717   H         1 RES1   0.0000
   295 H171     -3.3564   -4.9499   -5.1711   H         1 RES1   0.0000
   296 H172     -2.3034   -2.8131   -5.7754   H         1 RES1   0.0000
   297 H173     -0.7677   -3.6288   -6.0742   H         1 RES1   0.0000
   298 H174     -1.7101   -3.2223   -8.1900   H         1 RES1   0.0000
   299 H175     -1.8679   -4.9460   -7.9013   H         1 RES1   0.0000
   300 H176     -4.0872   -2.8670   -7.6162   H         1 RES1   0.0000
   301 H177     -3.9124   -4.0394   -8.9175   H         1 RES1   0.0000
   302 H178     -4.2903   -4.5965   -7.2963   H         1 RES1   0.0000
   303 H179     -1.0784   -4.3045    0.9288   H         1 RES1   0.0000
   304 H180      0.4159   -3.8750    0.0508   H         1 RES1   0.0000
   305 H181      0.7196   -1.7098    2.7764   H         1 RES1   0.0000
   306 H182      0.5980   -3.4912    2.6445   H         1 RES1   0.0000
   307 H183      2.0237   -4.8953    2.4489   H         1 RES1   0.0000
   308 H184      3.5192   -5.3190    1.6267   H         1 RES1   0.0000
   309 H185      4.0410   -5.1729    3.8344   H         1 RES1   0.0000
   310 H186      3.7045   -3.1203    5.2400   H         1 RES1   0.0000
   311 H187      2.5854   -2.5174    4.0201   H         1 RES1   0.0000
   312 H188      2.3855   -5.0529    5.7083   H         1 RES1   0.0000
   313 H189      1.3584   -3.6338    5.8161   H         1 RES1   0.0000
   314 H190      1.2276   -4.7145    4.4294   H         1 RES1   0.0000
   315 H191      4.9967   -2.7058    2.3567   H         1 RES1   0.0000
   316 H192      5.5000   -3.0190    4.0072   H         1 RES1   0.0000
   317 H193      6.0485   -5.4707    2.8174   H         1 RES1   0.0000
   318 H194      6.4310   -4.3302    1.5274   H         1 RES1   0.0000
   319 H195      7.5110   -4.1618    4.3557   H         1 RES1   0.0000
   320 H196      8.3712   -4.8305    2.9695   H         1 RES1   0.0000
   321 H197      7.4487   -1.9264    3.2250   H         1 RES1   0.0000
   322 H198      9.0793   -2.5289    3.4426   H         1 RES1   0.0000
   323 H199      8.3299   -2.6012    1.8581   H         1 RES1   0.0000
   324 H200      3.7032   -2.6303   -0.5489   H         1 RES1   0.0000
   325 H201      4.7322   -3.7738    0.3407   H         1 RES1   0.0000
   326 H202      2.3004   -4.4902   -1.3571   H         1 RES1   0.0000
   327 H203      4.0512   -5.3585   -2.9832   H         1 RES1   0.0000
   328 H204      3.7462   -3.6369   -2.9089   H         1 RES1   0.0000
   329 H205      6.1331   -5.0199   -1.5954   H         1 RES1   0.0000
   330 H206      6.1572   -4.1565   -3.1223   H         1 RES1   0.0000
   331 H207      5.8311   -3.2781   -1.6318   H         1 RES1   0.0000
   332 H208      2.5272   -6.3139    0.0649   H         1 RES1   0.0000
   333 H209      3.1884   -6.7698   -1.4770   H         1 RES1   0.0000
   334 H210      5.3137   -5.8119    0.3411   H         1 RES1   0.0000
   335 H211      4.4194   -7.1628    1.0121   H         1 RES1   0.0000
   336 H212      4.9244   -8.5506   -0.8965   H         1 RES1   0.0000
   337 H213      5.7103   -7.2114   -1.7341   H         1 RES1   0.0000
   338 H214      6.6167   -8.3791    0.9459   H         1 RES1   0.0000
   339 H215      7.3539   -8.7219   -0.6138   H         1 RES1   0.0000
   340 H216      7.4395   -7.0970    0.0564   H         1 RES1   0.0000
@<TRIPOS>BOND
     1     1    20    1
     2     1    22    1
     3     1    25    1
     4     1   133    1
     5     1   135    1
     6     1   138    1
     7     1   246    1
     8     1   248    1
     9     1   251    1
    10     2     3    1
    11     2    43    1
    12     2    44    1
    13     2    45    1
    14     3     4    1
    15     3    46    1
    16     3    47    1
    17     4     5    1
    18     4    48    1
    19     4    49    1
    20     5     6    1
    21     5    50    1
    22     5    51    1
    23     6     7    1
    24     6     9    1
    25     6    52    1
    26     7     8    1
    27     7    53    1
    28     7    54    1
    29     8    55    1
    30     8    56    1
    31     8    57    1
    32     9    10    1
    33     9    58    1
    34     9    59    1
    35    10    11    1
    36    10    19    1
    37    11    12    1
    38    11    60    1
    39    11    61    1
    40    12    13    1
    41    12    15    1
    42    12    62    1
    43    13    14    1
    44    13    63    1
    45    13    64    1
    46    14    65    1
    47    14    66    1
    48    14    67    1
    49    15    16    1
    50    15    68    1
    51    15    69    1
    52    16    17    1
    53    16    70    1
    54    16    71    1
    55    17    18    1
    56    17    72    1
    57    17    73    1
    58    18    74    1
    59    18    75    1
    60    18    76    1
    61    19    20    2
    62    19    21    1
    63    21    22    1
    64    21    77    1
    65    21    78    1
    66    22    23    1
    67    23    24    1
    68    23    79    1
    69    23    80    1
    70    24    25    2
    71    24    26    1
    72    26    27    1
    73    26    35    1
    74    27    28    1
    75    27    81    1
    76    27    82    1
    77    28    29    1
    78    28    31    1
    79    28    83    1
    80    29    30    1
    81    29    84    1
    82    29    85    1
    83    30    86    1
    84    30    87    1
    85    30    88    1
    86    31    32    1
    87    31    89    1
    88    31    90    1
    89    32    33    1
    90    32    91    1
    91    32    92    1
    92    33    34    1
    93    33    93    1
    94    33    94    1
    95    34    95    1
    96    34    96    1
    97    34    97    1
    98    35    36    1
    99    35    98    1
   100    35    99    1
   101    36    37    1
   102    36    39    1
   103    36   100    1
   104    37    38    1
   105    37   101    1
   106    37   102    1
   107    38   103    1
   108    38   104    1
   109    38   105    1
   110    39    40    1
   111    39   106    1
   112    39   107    1
   113    40    41    1
   114    40   108    1
   115    40   109    1
   116    41    42    1
   117    41   110    1
   118    41   111    1
   119    42   112    1
   120    42   113    1
   121    42   114    1
   122   115   116    1
   123   115   156    1
   124   115   157    1
   125   115   158    1
   126   116   117    1
   127   116   159    1
   128   116   160    1
   129   117   118    1
   130   117   161    1
   131   117   162    1
   132   118   119    1
   133   118   163    1
   134   118   164    1
   135   119   120    1
   136   119   122    1
   137   119   165    1
   138   120   121    1
   139   120   166    1
   140   120   167    1
   141   121   168    1
   142   121   169    1
   143   121   170    1
   144   122   123    1
   145   122   171    1
   146   122   172    1
   147   123   124    1
   148   123   132    1
   149   124   125    1
   150   124   173    1
   151   124   174    1
   152   125   126    1
   153   125   128    1
   154   125   175    1
   155   126   127    1
   156   126   176    1
   157   126   177    1
   158   127   178    1
   159   127   179    1
   160   127   180    1
   161   128   129    1
   162   128   181    1
   163   128   182    1
   164   129   130    1
   165   129   183    1
   166   129   184    1
   167   130   131    1
   168   130   185    1
   169   130   186    1
   170   131   187    1
   171   131   188    1
   172   131   189    1
   173   132   133    2
   174   132   134    1
   175   134   135    1
   176   134   190    1
   177   134   191    1
   178   135   136    1
   179   136   137    1
   180   136   192    1
   181   136   193    1
   182   137   138    2
   183   137   139    1
   184   139   140    1
   185   139   148    1
   186   140   141    1
   187   140   194    1
   188   140   195    1
   189   141   142    1
   190   141   144    1
   191   141   196    1
   192   142   143    1
   193   142   197    1
   194   142   198    1
   195   143   199    1
   196   143   200    1
   197   143   201    1
   198   144   145    1
   199   144   202    1
   200   144   203    1
   201   145   146    1
   202   145   204    1
   203   145   205    1
   204   146   147    1
   205   146   206    1
   206   146   207    1
   207   147   208    1
   208   147   209    1
   209   147   210    1
   210   148   149    1
   211   148   211    1
   212   148   212    1
   213   149   150    1
   214   149   152    1
   215   149   213    1
   216   150   151    1
   217   150   214    1
   218   150   215    1
   219   151   216    1
   220   151   217    1
   221   151   218    1
   222   152   153    1
   223   152   219    1
   224   152   220    1
   225   153   154    1
   226   153   221    1
   227   153   222    1
   228   154   155    1
   229   154   223    1
   230   154   224    1
   231   155   225    1
   232   155   226    1
   233   155   227    1
   234   228   229    1
   235   228   269    1
   236   228   270    1
   237   228   271    1
   238   229   230    1
   239   229   272    1
   240   229   273    1
   241   230   231    1
   242   230   274    1
   243   230   275    1
   244   231   232    1
   245   231   276    1
   246   231   277    1
   247   232   233    1
   248   232   235    1
   249   232   278    1
   250   233   234    1
   251   233   279    1
   252   233   280    1
   253   234   281    1
   254   234   282    1
   255   234   283    1
   256   235   236    1
   257   235   284    1
   258   235   285    1
   259   236   237    1
   260   236   245    1
   261   237   238    1
   262   237   286    1
   263   237   287    1
   264   238   239    1
   265   238   241    1
   266   238   288    1
   267   239   240    1
   268   239   289    1
   269   239   290    1
   270   240   291    1
   271   240   292    1
   272   240   293    1
   273   241   242    1
   274   241   294    1
   275   241   295    1
   276   242   243    1
   277   242   296    1
   278   242   297    1
   279   243   244    1
   280   243   298    1
   281   243   299    1
   282   244   300    1
   283   244   301    1
   284   244   302    1
   285   245   246    2
   286   245   247    1
   287   247   248    1
   288   247   303    1
   289   247   304    1
   290   248   249    1
   291   249   250    1
   292   249   305    1
   293   249   306    1
   294   250   251    2
   295   250   252    1
   296   252   253    1
   297   252   261    1
   298   253   254    1
   299   253   307    1
   300   253   308    1
   301   254   255    1
   302   254   257    1
   303   254   309    1
   304   255   256    1
   305   255   310    1
   306   255   311    1
   307   256   312    1
   308   256   313    1
   309   256   314    1
   310   257   258    1
   311   257   315    1
   312   257   316    1
   313   258   259    1
   314   258   317    1
   315   258   318    1
   316   259   260    1
   317   259   319    1
   318   259   320    1
   319   260   321    1
   320   260   322    1
   321   260   323    1
   322   261   262    1
   323   261   324    1
   324   261   325    1
   325   262   263    1
   326   262   265    1
   327   262   326    1
   328   263   264    1
   329   263   327    1
   330   263   328    1
   331   264   329    1
   332   264   330    1
   333   264   331    1
   334   265   266    1
   335   265   332    1
   336   265   333    1
   337   266   267    1
   338   266   334    1
   339   266   335    1
   340   267   268    1
   341   267   336    1
   342   267   337    1
   343   268   338    1
   344   268   339    1
   345   268   340    1
@<TRIPOS>SUBSTRUCTURE
     1 RES1      340 GROUP             0 ****  ****    0  
