@<TRIPOS>MOLECULE
am_c3_9H2O_c0_0_nunpairedes_0_charge_1 Charge: 1 Unpaired_Electrons: 6 XTB_Unpaired_Electrons: 0 XTB_Charge: 1
    64    72     1     0     0
SMALL
NoCharges
****
Generated from Architector

@<TRIPOS>ATOM
     1 Eu1       0.6804    1.3376    0.1702   Eu        1 RES1   0.0000
     2 C1        1.8151    1.6660    5.4116   C.3       1 RES1   0.0000
     3 C2        2.1750    3.0893    5.8704   C.3       1 RES1   0.0000
     4 C3        1.2843    3.4335    7.0659   C.3       1 RES1   0.0000
     5 C4        3.6513    3.1626    6.2956   C.3       1 RES1   0.0000
     6 C5        1.9062    4.1423    4.7578   C.3       1 RES1   0.0000
     7 C6        2.4618    3.7117    3.4496   C.ar      1 RES1   0.0000
     8 C7        3.5577    2.9143    3.1635   C.ar      1 RES1   0.0000
     9 C8        3.3479    2.4127    1.8725   C.ar      1 RES1   0.0000
    10 C9        3.7126    1.0245    1.5225   C.ar      1 RES1   0.0000
    11 C10       4.8699    0.2798    1.7132   C.ar      1 RES1   0.0000
    12 C11       4.7444   -1.1056    1.6952   C.ar      1 RES1   0.0000
    13 C12       3.4952   -1.7198    1.6924   C.ar      1 RES1   0.0000
    14 C13       2.3710   -0.9030    1.5979   C.ar      1 RES1   0.0000
    15 C14       0.9723   -1.1127    2.0116   C.ar      1 RES1   0.0000
    16 C15       0.2034   -2.1627    2.5287   C.ar      1 RES1   0.0000
    17 C16      -0.9938   -1.5765    2.9428   C.ar      1 RES1   0.0000
    18 C17      -2.2186   -2.1370    3.5606   C.3       1 RES1   0.0000
    19 C18      -3.4063   -1.1669    3.7710   C.3       1 RES1   0.0000
    20 C19      -3.8837   -0.5297    2.4602   C.3       1 RES1   0.0000
    21 C20      -3.0869   -0.0835    4.8116   C.3       1 RES1   0.0000
    22 C21      -4.5399   -2.0419    4.3177   C.3       1 RES1   0.0000
    23 N1       -0.8743   -0.2702    2.6949   N.ar      1 RES1   0.0000
    24 N2        0.2864    0.0533    2.1437   N.ar      1 RES1   0.0000
    25 N3        2.5417    0.4033    1.3669   N.ar      1 RES1   0.0000
    26 N4        2.2098    2.9330    1.3570   N.ar      1 RES1   0.0000
    27 N5        1.7045    3.7211    2.3334   N.ar      1 RES1   0.0000
    28 H1        2.3008    0.9491    6.0681   H         1 RES1   0.0000
    29 H2        2.1276    1.4510    4.3918   H         1 RES1   0.0000
    30 H3        0.7430    1.4974    5.4639   H         1 RES1   0.0000
    31 H4        1.4139    2.6777    7.8353   H         1 RES1   0.0000
    32 H5        0.2326    3.4514    6.7866   H         1 RES1   0.0000
    33 H6        1.5498    4.4007    7.4836   H         1 RES1   0.0000
    34 H7        3.7503    3.1757    7.3784   H         1 RES1   0.0000
    35 H8        4.1148    4.0682    5.9150   H         1 RES1   0.0000
    36 H9        4.2099    2.3079    5.9270   H         1 RES1   0.0000
    37 H10       2.2912    5.1171    5.0744   H         1 RES1   0.0000
    38 H11       0.8254    4.2457    4.6262   H         1 RES1   0.0000
    39 H12       4.3803    2.6862    3.8030   H         1 RES1   0.0000
    40 H13       5.8218    0.7550    1.8787   H         1 RES1   0.0000
    41 H14       5.6286   -1.7187    1.7686   H         1 RES1   0.0000
    42 H15       3.4019   -2.7880    1.7911   H         1 RES1   0.0000
    43 H16       0.4894   -3.1935    2.6034   H         1 RES1   0.0000
    44 H17      -1.9421   -2.5664    4.5285   H         1 RES1   0.0000
    45 H18      -2.5582   -2.9728    2.9453   H         1 RES1   0.0000
    46 H19      -3.1551    0.1221    1.9808   H         1 RES1   0.0000
    47 H20      -4.7739    0.0646    2.6538   H         1 RES1   0.0000
    48 H21      -4.1439   -1.2993    1.7404   H         1 RES1   0.0000
    49 H22      -4.0096    0.2703    5.2632   H         1 RES1   0.0000
    50 H23      -2.5792    0.7841    4.3934   H         1 RES1   0.0000
    51 H24      -2.4694   -0.4820    5.6109   H         1 RES1   0.0000
    52 H25      -4.7810   -2.8362    3.6164   H         1 RES1   0.0000
    53 H26      -5.4346   -1.4502    4.4745   H         1 RES1   0.0000
    54 H27      -4.2578   -2.4876    5.2675   H         1 RES1   0.0000
    55 H28      -1.5759    0.4402    2.8742   H         1 RES1   0.0000
    56 H29       0.8971    4.3203    2.1923   H         1 RES1   0.0000
    57 N6       -1.4599    1.7183   -0.4739   N.3       1 RES1   0.0000
    58 O1       -2.4003    1.0596   -0.7540   O.2       1 RES1   0.0000
    59 O2       -1.2245    2.0569    0.7169   O.co2     1 RES1   0.0000
    60 O3       -0.6273    2.1075   -1.3000   O.co2     1 RES1   0.0000
    61 N7        0.5929   -0.2533   -1.6200   N.3       1 RES1   0.0000
    62 O4        0.3786   -0.7926   -2.6450   O.2       1 RES1   0.0000
    63 O5        1.5893    0.4779   -1.4486   O.co2     1 RES1   0.0000
    64 O6       -0.1188   -0.4206   -0.6052   O.co2     1 RES1   0.0000
@<TRIPOS>BOND
     1     1    23    1
     2     1    24    1
     3     1    25    1
     4     1    26    1
     5     1    27    1
     6     1    59    1
     7     1    60    1
     8     1    63    1
     9     1    64    1
    10     2     3    1
    11     2    28    1
    12     2    29    1
    13     2    30    1
    14     3     4    1
    15     3     5    1
    16     3     6    1
    17     4    31    1
    18     4    32    1
    19     4    33    1
    20     5    34    1
    21     5    35    1
    22     5    36    1
    23     6     7    1
    24     6    37    1
    25     6    38    1
    26     7     8    2
    27     7    27    1
    28     8     9    1
    29     8    39    1
    30     9    10    1
    31     9    26    2
    32    10    11    1
    33    10    25    2
    34    11    12    2
    35    11    40    1
    36    12    13    1
    37    12    41    1
    38    13    14    2
    39    13    42    1
    40    14    15    1
    41    14    25    1
    42    15    16    1
    43    15    24    2
    44    16    17    2
    45    16    43    1
    46    17    18    1
    47    17    23    1
    48    18    19    1
    49    18    44    1
    50    18    45    1
    51    19    20    1
    52    19    21    1
    53    19    22    1
    54    20    46    1
    55    20    47    1
    56    20    48    1
    57    21    49    1
    58    21    50    1
    59    21    51    1
    60    22    52    1
    61    22    53    1
    62    22    54    1
    63    23    24    1
    64    23    55    1
    65    26    27    1
    66    27    56    1
    67    57    58    2
    68    57    59    1
    69    57    60    1
    70    61    62    2
    71    61    63    1
    72    61    64    1
@<TRIPOS>SUBSTRUCTURE
     1 RES1       64 GROUP             0 ****  ****    0  
