@<TRIPOS>MOLECULE
am_c3_9H2O_c0_0_nunpairedes_0_charge_3 Charge: 3 Unpaired_Electrons: 6 XTB_Unpaired_Electrons: 0 XTB_Charge: 3
   156   163     1     0     0
SMALL
NoCharges
****
Generated from Architector

@<TRIPOS>ATOM
     1 Eu1      -0.0848    0.0800   -0.0087   Eu        1 RES1   0.0000
     2 C1       -5.6032    1.5949    5.9485   C.3       1 RES1   0.0000
     3 C2       -5.6765    2.9343    5.2263   C.3       1 RES1   0.0000
     4 C3       -4.3013    3.5951    5.1231   C.3       1 RES1   0.0000
     5 C4       -4.3500    4.9075    4.3354   C.3       1 RES1   0.0000
     6 C5       -2.9814    5.5681    4.1168   C.3       1 RES1   0.0000
     7 C6       -2.2967    5.1930    2.7979   C.3       1 RES1   0.0000
     8 C7       -1.8968    3.7214    2.6429   C.3       1 RES1   0.0000
     9 C8       -0.7703    3.3293    3.6082   C.3       1 RES1   0.0000
    10 N1       -0.8442    1.9257    4.0190   N.am      1 RES1   0.0000
    11 C9       -0.8127    1.6239    5.4456   C.3       1 RES1   0.0000
    12 C10       0.6197    1.3177    5.9170   C.3       1 RES1   0.0000
    13 C11       1.4541    2.5710    6.2119   C.3       1 RES1   0.0000
    14 C12       2.9567    2.2980    6.0998   C.3       1 RES1   0.0000
    15 C13       3.4436    2.2533    4.6469   C.3       1 RES1   0.0000
    16 C14       3.5423    3.6387    4.0041   C.3       1 RES1   0.0000
    17 C15       3.9009    3.5676    2.5205   C.3       1 RES1   0.0000
    18 C16       4.0800    4.9490    1.9032   C.3       1 RES1   0.0000
    19 C17      -0.7469    1.0006    3.0837   C.2       1 RES1   0.0000
    20 O1       -0.5008    1.2593    1.8799   O.2       1 RES1   0.0000
    21 C18      -0.9715   -0.4797    3.4213   C.3       1 RES1   0.0000
    22 O2       -1.1488   -1.1892    2.1854   O.3       1 RES1   0.0000
    23 C19      -2.5229   -1.3949    1.8294   C.3       1 RES1   0.0000
    24 C20      -2.6980   -1.0087    0.3620   C.2       1 RES1   0.0000
    25 O3       -2.3398    0.1377    0.0317   O.2       1 RES1   0.0000
    26 N2       -3.2868   -1.8580   -0.4926   N.am      1 RES1   0.0000
    27 C21      -3.3904   -1.3923   -1.8717   C.3       1 RES1   0.0000
    28 C22      -2.0717   -1.8157   -2.5672   C.3       1 RES1   0.0000
    29 O4       -1.0999   -2.0492   -1.5470   O.3       1 RES1   0.0000
    30 C23      -1.4129   -3.2772   -0.8800   C.3       1 RES1   0.0000
    31 C24      -2.9106   -3.2667   -0.4597   C.3       1 RES1   0.0000
    32 H1       -6.5877    1.1432    6.0116   H         1 RES1   0.0000
    33 H2       -5.2259    1.7247    6.9588   H         1 RES1   0.0000
    34 H3       -4.9439    0.9043    5.4217   H         1 RES1   0.0000
    35 H4       -6.3554    3.5956    5.7643   H         1 RES1   0.0000
    36 H5       -6.0849    2.7849    4.2234   H         1 RES1   0.0000
    37 H6       -3.6111    2.8893    4.6502   H         1 RES1   0.0000
    38 H7       -3.9287    3.7933    6.1312   H         1 RES1   0.0000
    39 H8       -4.9908    5.5974    4.8860   H         1 RES1   0.0000
    40 H9       -4.8246    4.7387    3.3656   H         1 RES1   0.0000
    41 H10      -2.3334    5.3568    4.9682   H         1 RES1   0.0000
    42 H11      -3.1179    6.6495    4.0968   H         1 RES1   0.0000
    43 H12      -1.4110    5.8187    2.6702   H         1 RES1   0.0000
    44 H13      -2.9849    5.4366    1.9882   H         1 RES1   0.0000
    45 H14      -1.5799    3.5304    1.6140   H         1 RES1   0.0000
    46 H15      -2.7685    3.0955    2.8354   H         1 RES1   0.0000
    47 H16      -0.8550    3.9311    4.5115   H         1 RES1   0.0000
    48 H17       0.2045    3.5086    3.1460   H         1 RES1   0.0000
    49 H18      -1.4712    0.7831    5.6697   H         1 RES1   0.0000
    50 H19      -1.1968    2.4906    5.9861   H         1 RES1   0.0000
    51 H20       1.1202    0.7253    5.1468   H         1 RES1   0.0000
    52 H21       0.5628    0.7058    6.8179   H         1 RES1   0.0000
    53 H22       1.2237    2.9195    7.2172   H         1 RES1   0.0000
    54 H23       1.1958    3.3726    5.5218   H         1 RES1   0.0000
    55 H24       3.1860    1.3522    6.5944   H         1 RES1   0.0000
    56 H25       3.5062    3.0763    6.6275   H         1 RES1   0.0000
    57 H26       2.7586    1.6325    4.0566   H         1 RES1   0.0000
    58 H27       4.4306    1.7840    4.6223   H         1 RES1   0.0000
    59 H28       4.3020    4.2192    4.5271   H         1 RES1   0.0000
    60 H29       2.5931    4.1668    4.1125   H         1 RES1   0.0000
    61 H30       3.1026    3.0394    1.9848   H         1 RES1   0.0000
    62 H31       4.8278    3.0010    2.4020   H         1 RES1   0.0000
    63 H32       3.1493    5.5104    1.9355   H         1 RES1   0.0000
    64 H33       4.4001    4.8688    0.8666   H         1 RES1   0.0000
    65 H34       4.8343    5.5118    2.4445   H         1 RES1   0.0000
    66 H35      -1.8443   -0.6243    4.0637   H         1 RES1   0.0000
    67 H36      -0.0928   -0.8944    3.9257   H         1 RES1   0.0000
    68 H37      -3.1796   -0.7044    2.3651   H         1 RES1   0.0000
    69 H38      -2.8024   -2.4210    2.0805   H         1 RES1   0.0000
    70 H39      -3.5058   -0.3086   -1.8505   H         1 RES1   0.0000
    71 H40      -4.2718   -1.8327   -2.3355   H         1 RES1   0.0000
    72 H41      -1.6772   -1.0291   -3.2080   H         1 RES1   0.0000
    73 H42      -2.2005   -2.7243   -3.1618   H         1 RES1   0.0000
    74 H43      -0.7611   -3.3157   -0.0040   H         1 RES1   0.0000
    75 H44      -1.1846   -4.1260   -1.5358   H         1 RES1   0.0000
    76 H45      -3.0587   -3.7160    0.5203   H         1 RES1   0.0000
    77 H46      -3.5376   -3.8146   -1.1634   H         1 RES1   0.0000
    78 C25      -5.1432    2.2963    0.4900   C.3       1 RES1   0.0000
    79 C26      -4.6558    2.5012   -0.9405   C.3       1 RES1   0.0000
    80 C27      -4.5506    3.9914   -1.2687   C.3       1 RES1   0.0000
    81 C28      -4.2204    4.3187   -2.7288   C.3       1 RES1   0.0000
    82 C29      -2.9336    3.7080   -3.2936   C.3       1 RES1   0.0000
    83 C30      -1.6152    4.4100   -2.9403   C.3       1 RES1   0.0000
    84 C31      -1.2344    4.4155   -1.4555   C.3       1 RES1   0.0000
    85 C32       0.2241    4.8274   -1.1967   C.3       1 RES1   0.0000
    86 N3        1.1761    3.9320   -1.8541   N.am      1 RES1   0.0000
    87 C33       2.0190    4.4448   -2.9284   C.3       1 RES1   0.0000
    88 C34       3.4521    4.7850   -2.4597   C.3       1 RES1   0.0000
    89 C35       4.5014    4.6349   -3.5738   C.3       1 RES1   0.0000
    90 C36       4.9835    3.1914   -3.7855   C.3       1 RES1   0.0000
    91 C37       5.2672    2.8272   -5.2440   C.3       1 RES1   0.0000
    92 C38       3.9863    2.6292   -6.0573   C.3       1 RES1   0.0000
    93 C39       4.2575    2.0686   -7.4551   C.3       1 RES1   0.0000
    94 C40       4.7018    0.6108   -7.4249   C.3       1 RES1   0.0000
    95 C41       1.2659    2.6970   -1.4049   C.2       1 RES1   0.0000
    96 O5        0.6527    2.2714   -0.3959   O.2       1 RES1   0.0000
    97 C42       2.1521    1.6987   -2.1547   C.3       1 RES1   0.0000
    98 O6        1.7783    0.4281   -1.6513   O.3       1 RES1   0.0000
    99 C43       2.7016   -0.6376   -1.8812   C.3       1 RES1   0.0000
   100 C44       2.4433   -1.5085   -0.6567   C.2       1 RES1   0.0000
   101 O7        1.2732   -1.8797   -0.4688   O.2       1 RES1   0.0000
   102 N4        3.4397   -1.7774    0.1977   N.am      1 RES1   0.0000
   103 C45       4.2754   -0.6681    0.6289   C.3       1 RES1   0.0000
   104 C46       3.3386    0.2550    1.4727   C.3       1 RES1   0.0000
   105 O8        2.0761   -0.3774    1.7091   O.3       1 RES1   0.0000
   106 C47       2.2950   -1.6522    2.3296   C.3       1 RES1   0.0000
   107 C48       3.0665   -2.5814    1.3514   C.3       1 RES1   0.0000
   108 H47      -5.2191    1.2354    0.7256   H         1 RES1   0.0000
   109 H48      -6.1231    2.7462    0.6269   H         1 RES1   0.0000
   110 H49      -4.4504    2.7614    1.1896   H         1 RES1   0.0000
   111 H50      -5.3491    2.0218   -1.6345   H         1 RES1   0.0000
   112 H51      -3.6762    2.0148   -1.0340   H         1 RES1   0.0000
   113 H52      -3.8210    4.4477   -0.5995   H         1 RES1   0.0000
   114 H53      -5.5164    4.4503   -1.0490   H         1 RES1   0.0000
   115 H54      -4.1814    5.4025   -2.8393   H         1 RES1   0.0000
   116 H55      -5.0499    3.9707   -3.3480   H         1 RES1   0.0000
   117 H56      -3.0115    3.7372   -4.3813   H         1 RES1   0.0000
   118 H57      -2.9038    2.6514   -3.0105   H         1 RES1   0.0000
   119 H58      -1.6826    5.4420   -3.2851   H         1 RES1   0.0000
   120 H59      -0.8171    3.9297   -3.5175   H         1 RES1   0.0000
   121 H60      -1.4086    3.4350   -0.9952   H         1 RES1   0.0000
   122 H61      -1.8503    5.1387   -0.9241   H         1 RES1   0.0000
   123 H62       0.4103    4.7979   -0.1196   H         1 RES1   0.0000
   124 H63       0.4139    5.8385   -1.5545   H         1 RES1   0.0000
   125 H64       1.5359    5.3420   -3.3178   H         1 RES1   0.0000
   126 H65       2.0634    3.7189   -3.7433   H         1 RES1   0.0000
   127 H66       3.7277    4.1449   -1.6168   H         1 RES1   0.0000
   128 H67       3.4660    5.8119   -2.0957   H         1 RES1   0.0000
   129 H68       5.3599    5.2513   -3.3121   H         1 RES1   0.0000
   130 H69       4.0964    5.0366   -4.5011   H         1 RES1   0.0000
   131 H70       4.2270    2.4891   -3.4340   H         1 RES1   0.0000
   132 H71       5.8829    3.0219   -3.1902   H         1 RES1   0.0000
   133 H72       5.8360    1.8976   -5.2540   H         1 RES1   0.0000
   134 H73       5.8818    3.5961   -5.7098   H         1 RES1   0.0000
   135 H74       3.4603    3.5823   -6.1512   H         1 RES1   0.0000
   136 H75       3.3190    1.9335   -5.5294   H         1 RES1   0.0000
   137 H76       5.0212    2.6750   -7.9409   H         1 RES1   0.0000
   138 H77       3.3463    2.1507   -8.0504   H         1 RES1   0.0000
   139 H78       5.6758    0.5048   -6.9552   H         1 RES1   0.0000
   140 H79       4.7754    0.2201   -8.4347   H         1 RES1   0.0000
   141 H80       3.9834    0.0005   -6.8776   H         1 RES1   0.0000
   142 H81       3.2039    1.9220   -1.9306   H         1 RES1   0.0000
   143 H82       2.0036    1.7353   -3.2413   H         1 RES1   0.0000
   144 H83       3.7294   -0.2848   -1.9926   H         1 RES1   0.0000
   145 H84       2.4218   -1.1961   -2.7848   H         1 RES1   0.0000
   146 H85       4.7106   -0.1269   -0.2090   H         1 RES1   0.0000
   147 H86       5.0981   -1.0643    1.2230   H         1 RES1   0.0000
   148 H87       3.1091    1.1833    0.9421   H         1 RES1   0.0000
   149 H88       3.8116    0.5053    2.4285   H         1 RES1   0.0000
   150 H89       1.3120   -2.0665    2.5596   H         1 RES1   0.0000
   151 H90       2.8583   -1.5075    3.2603   H         1 RES1   0.0000
   152 H91       2.4448   -3.4098    1.0135   H         1 RES1   0.0000
   153 H92       3.9781   -2.9737    1.7999   H         1 RES1   0.0000
   154 O9       -0.9777    1.0583   -2.2526   O.3       1 RES1   0.0000
   155 H93      -1.6810    1.7040   -2.0442   H         1 RES1   0.0000
   156 H94      -0.8064    1.1895   -3.1970   H         1 RES1   0.0000
@<TRIPOS>BOND
     1     1    20    1
     2     1    22    1
     3     1    25    1
     4     1    29    1
     5     1    96    1
     6     1    98    1
     7     1   101    1
     8     1   105    1
     9     1   154    1
    10     2     3    1
    11     2    32    1
    12     2    33    1
    13     2    34    1
    14     3     4    1
    15     3    35    1
    16     3    36    1
    17     4     5    1
    18     4    37    1
    19     4    38    1
    20     5     6    1
    21     5    39    1
    22     5    40    1
    23     6     7    1
    24     6    41    1
    25     6    42    1
    26     7     8    1
    27     7    43    1
    28     7    44    1
    29     8     9    1
    30     8    45    1
    31     8    46    1
    32     9    10    1
    33     9    47    1
    34     9    48    1
    35    10    11    1
    36    10    19    1
    37    11    12    1
    38    11    49    1
    39    11    50    1
    40    12    13    1
    41    12    51    1
    42    12    52    1
    43    13    14    1
    44    13    53    1
    45    13    54    1
    46    14    15    1
    47    14    55    1
    48    14    56    1
    49    15    16    1
    50    15    57    1
    51    15    58    1
    52    16    17    1
    53    16    59    1
    54    16    60    1
    55    17    18    1
    56    17    61    1
    57    17    62    1
    58    18    63    1
    59    18    64    1
    60    18    65    1
    61    19    20    2
    62    19    21    1
    63    21    22    1
    64    21    66    1
    65    21    67    1
    66    22    23    1
    67    23    24    1
    68    23    68    1
    69    23    69    1
    70    24    25    2
    71    24    26    1
    72    26    27    1
    73    26    31    1
    74    27    28    1
    75    27    70    1
    76    27    71    1
    77    28    29    1
    78    28    72    1
    79    28    73    1
    80    29    30    1
    81    30    31    1
    82    30    74    1
    83    30    75    1
    84    31    76    1
    85    31    77    1
    86    78    79    1
    87    78   108    1
    88    78   109    1
    89    78   110    1
    90    79    80    1
    91    79   111    1
    92    79   112    1
    93    80    81    1
    94    80   113    1
    95    80   114    1
    96    81    82    1
    97    81   115    1
    98    81   116    1
    99    82    83    1
   100    82   117    1
   101    82   118    1
   102    83    84    1
   103    83   119    1
   104    83   120    1
   105    84    85    1
   106    84   121    1
   107    84   122    1
   108    85    86    1
   109    85   123    1
   110    85   124    1
   111    86    87    1
   112    86    95    1
   113    87    88    1
   114    87   125    1
   115    87   126    1
   116    88    89    1
   117    88   127    1
   118    88   128    1
   119    89    90    1
   120    89   129    1
   121    89   130    1
   122    90    91    1
   123    90   131    1
   124    90   132    1
   125    91    92    1
   126    91   133    1
   127    91   134    1
   128    92    93    1
   129    92   135    1
   130    92   136    1
   131    93    94    1
   132    93   137    1
   133    93   138    1
   134    94   139    1
   135    94   140    1
   136    94   141    1
   137    95    96    2
   138    95    97    1
   139    97    98    1
   140    97   142    1
   141    97   143    1
   142    98    99    1
   143    99   100    1
   144    99   144    1
   145    99   145    1
   146   100   101    2
   147   100   102    1
   148   102   103    1
   149   102   107    1
   150   103   104    1
   151   103   146    1
   152   103   147    1
   153   104   105    1
   154   104   148    1
   155   104   149    1
   156   105   106    1
   157   106   107    1
   158   106   150    1
   159   106   151    1
   160   107   152    1
   161   107   153    1
   162   154   155    1
   163   154   156    1
@<TRIPOS>SUBSTRUCTURE
     1 RES1      156 GROUP             0 ****  ****    0  
