@<TRIPOS>MOLECULE
cn9_YICLED_0_nunpairedes_0_charge_3 Charge: 3 Unpaired_Electrons: 6 XTB_Unpaired_Electrons: 0 XTB_Charge: 3
   373   381     1     0     0
SMALL
NoCharges
****
Generated from Architector

@<TRIPOS>ATOM
     1 Eu1       0.0979   -0.0762   -0.0050   Eu        1 RES1   0.0000
     2 C1        5.3376   -7.6718   -0.4758   C.3       1 RES1   0.0000
     3 C2        6.5811   -7.8980    0.3797   C.3       1 RES1   0.0000
     4 C3        6.5583   -7.2272    1.7570   C.3       1 RES1   0.0000
     5 C4        5.5337   -7.7779    2.7556   C.3       1 RES1   0.0000
     6 C5        4.1294   -7.1839    2.6430   C.3       1 RES1   0.0000
     7 C6        4.0995   -5.7015    3.0089   C.3       1 RES1   0.0000
     8 C7        2.7212   -5.0734    2.8047   C.3       1 RES1   0.0000
     9 C8        2.3467   -5.1357    1.3189   C.3       1 RES1   0.0000
    10 N1        1.1793   -4.3476    0.9633   N.am      1 RES1   0.0000
    11 C9       -0.0532   -5.0153    0.5583   C.3       1 RES1   0.0000
    12 C10      -1.2106   -4.9142    1.5417   C.3       1 RES1   0.0000
    13 C11      -0.8872   -5.4690    2.9238   C.3       1 RES1   0.0000
    14 C12      -2.1688   -5.7822    3.6911   C.3       1 RES1   0.0000
    15 C13      -1.9342   -6.0238    5.1803   C.3       1 RES1   0.0000
    16 C14      -0.9546   -7.1543    5.4856   C.3       1 RES1   0.0000
    17 C15      -1.4062   -8.5195    4.9732   C.3       1 RES1   0.0000
    18 C16      -0.4469   -9.6152    5.4233   C.3       1 RES1   0.0000
    19 C17       1.2039   -3.0248    0.8704   C.2       1 RES1   0.0000
    20 O1        0.1586   -2.3700    0.7201   O.2       1 RES1   0.0000
    21 C18       2.5528   -2.3109    0.7996   C.3       1 RES1   0.0000
    22 N2        2.4464   -0.9097    1.2387   N.pl3     1 RES1   0.0000
    23 C19       3.5404   -0.0867    0.7162   C.3       1 RES1   0.0000
    24 C20       3.2125    0.4135   -0.6759   C.2       1 RES1   0.0000
    25 O2        2.0295    0.4372   -1.0425   O.2       1 RES1   0.0000
    26 N3        4.1909    0.8340   -1.4656   N.am      1 RES1   0.0000
    27 C21       3.8915    1.1661   -2.8554   C.3       1 RES1   0.0000
    28 C22       3.4232   -0.0163   -3.7169   C.3       1 RES1   0.0000
    29 C23       4.4106   -1.1759   -3.8522   C.3       1 RES1   0.0000
    30 C24       3.9490   -2.1633   -4.9299   C.3       1 RES1   0.0000
    31 C25       4.6339   -3.5277   -4.8281   C.3       1 RES1   0.0000
    32 C26       6.1337   -3.5027   -5.1193   C.3       1 RES1   0.0000
    33 C27       6.4699   -3.0871   -6.5492   C.3       1 RES1   0.0000
    34 C28       7.9655   -3.1912   -6.8239   C.3       1 RES1   0.0000
    35 C29       5.5375    1.0561   -0.9796   C.3       1 RES1   0.0000
    36 C30       6.4136   -0.1823   -1.1096   C.3       1 RES1   0.0000
    37 C31       7.8042    0.0939   -0.5556   C.3       1 RES1   0.0000
    38 C32       8.6527   -1.1741   -0.5594   C.3       1 RES1   0.0000
    39 C33       8.2045   -2.2050    0.4763   C.3       1 RES1   0.0000
    40 C34       8.4022   -1.7261    1.9130   C.3       1 RES1   0.0000
    41 C35       8.0795   -2.8041    2.9451   C.3       1 RES1   0.0000
    42 C36       6.5898   -3.1116    3.0380   C.3       1 RES1   0.0000
    43 C37       2.4680   -0.9068    2.6850   C.ar      1 RES1   0.0000
    44 C38       1.2692   -1.1037    3.3525   C.ar      1 RES1   0.0000
    45 C39       1.2387   -1.1883    4.7350   C.ar      1 RES1   0.0000
    46 C40       2.4117   -1.0734    5.4655   C.ar      1 RES1   0.0000
    47 C41       3.6080   -0.8385    4.8051   C.ar      1 RES1   0.0000
    48 C42       3.6438   -0.7632    3.4200   C.ar      1 RES1   0.0000
    49 H1        5.5220   -7.9950   -1.4985   H         1 RES1   0.0000
    50 H2        5.0676   -6.6151   -0.5023   H         1 RES1   0.0000
    51 H3        4.4963   -8.2458   -0.0973   H         1 RES1   0.0000
    52 H4        7.4424   -7.5052   -0.1657   H         1 RES1   0.0000
    53 H5        6.7364   -8.9715    0.4993   H         1 RES1   0.0000
    54 H6        6.4249   -6.1512    1.6285   H         1 RES1   0.0000
    55 H7        7.5466   -7.3745    2.1913   H         1 RES1   0.0000
    56 H8        5.8907   -7.5936    3.7709   H         1 RES1   0.0000
    57 H9        5.4721   -8.8582    2.6279   H         1 RES1   0.0000
    58 H10       3.4572   -7.7220    3.3138   H         1 RES1   0.0000
    59 H11       3.7562   -7.3221    1.6315   H         1 RES1   0.0000
    60 H12       4.8220   -5.1630    2.3952   H         1 RES1   0.0000
    61 H13       4.3952   -5.5829    4.0518   H         1 RES1   0.0000
    62 H14       2.7193   -4.0412    3.1680   H         1 RES1   0.0000
    63 H15       1.9799   -5.6190    3.3853   H         1 RES1   0.0000
    64 H16       2.1259   -6.1682    1.0566   H         1 RES1   0.0000
    65 H17       3.1991   -4.8112    0.7141   H         1 RES1   0.0000
    66 H18       0.1841   -6.0578    0.3702   H         1 RES1   0.0000
    67 H19      -0.3492   -4.5546   -0.3890   H         1 RES1   0.0000
    68 H20      -2.0387   -5.4763    1.1051   H         1 RES1   0.0000
    69 H21      -1.5103   -3.8718    1.6308   H         1 RES1   0.0000
    70 H22      -0.2915   -4.7403    3.4776   H         1 RES1   0.0000
    71 H23      -0.3007   -6.3810    2.8213   H         1 RES1   0.0000
    72 H24      -2.6444   -6.6556    3.2451   H         1 RES1   0.0000
    73 H25      -2.8618   -4.9440    3.5815   H         1 RES1   0.0000
    74 H26      -2.8936   -6.2517    5.6467   H         1 RES1   0.0000
    75 H27      -1.5543   -5.1019    5.6287   H         1 RES1   0.0000
    76 H28      -0.8378   -7.2173    6.5677   H         1 RES1   0.0000
    77 H29       0.0268   -6.9159    5.0704   H         1 RES1   0.0000
    78 H30      -1.4581   -8.5200    3.8826   H         1 RES1   0.0000
    79 H31      -2.4058   -8.7377    5.3529   H         1 RES1   0.0000
    80 H32       0.5579   -9.4245    5.0489   H         1 RES1   0.0000
    81 H33      -0.7703  -10.5865    5.0572   H         1 RES1   0.0000
    82 H34      -0.4022   -9.6567    6.5089   H         1 RES1   0.0000
    83 H35       2.7919   -2.3379   -0.2732   H         1 RES1   0.0000
    84 H36       3.3218   -2.8293    1.3847   H         1 RES1   0.0000
    85 H37       4.4896   -0.6224    0.7424   H         1 RES1   0.0000
    86 H38       3.5853    0.7910    1.3604   H         1 RES1   0.0000
    87 H39       4.8016    1.5852   -3.2844   H         1 RES1   0.0000
    88 H40       3.1127    1.9403   -2.8493   H         1 RES1   0.0000
    89 H41       3.2515    0.3961   -4.7124   H         1 RES1   0.0000
    90 H42       2.4732   -0.3968   -3.3318   H         1 RES1   0.0000
    91 H43       4.4972   -1.6973   -2.8962   H         1 RES1   0.0000
    92 H44       5.3942   -0.7938   -4.1248   H         1 RES1   0.0000
    93 H45       4.1369   -1.7373   -5.9147   H         1 RES1   0.0000
    94 H46       2.8688   -2.3041   -4.8445   H         1 RES1   0.0000
    95 H47       4.1552   -4.2136   -5.5300   H         1 RES1   0.0000
    96 H48       4.4790   -3.9240   -3.8206   H         1 RES1   0.0000
    97 H49       6.5311   -4.5049   -4.9526   H         1 RES1   0.0000
    98 H50       6.6372   -2.8353   -4.4177   H         1 RES1   0.0000
    99 H51       6.1543   -2.0578   -6.7273   H         1 RES1   0.0000
   100 H52       5.9305   -3.7270   -7.2504   H         1 RES1   0.0000
   101 H53       8.5264   -2.5508   -6.1454   H         1 RES1   0.0000
   102 H54       8.1867   -2.8852   -7.8436   H         1 RES1   0.0000
   103 H55       8.3108   -4.2141   -6.6918   H         1 RES1   0.0000
   104 H56       5.4975    1.3838    0.0632   H         1 RES1   0.0000
   105 H57       5.9665    1.8673   -1.5708   H         1 RES1   0.0000
   106 H58       6.4837   -0.4677   -2.1573   H         1 RES1   0.0000
   107 H59       5.9556   -1.0188   -0.5795   H         1 RES1   0.0000
   108 H60       7.7159    0.4981    0.4544   H         1 RES1   0.0000
   109 H61       8.2707    0.8604   -1.1747   H         1 RES1   0.0000
   110 H62       9.6898   -0.9055   -0.3658   H         1 RES1   0.0000
   111 H63       8.6018   -1.6140   -1.5584   H         1 RES1   0.0000
   112 H64       8.7942   -3.1088    0.3281   H         1 RES1   0.0000
   113 H65       7.1590   -2.4740    0.3079   H         1 RES1   0.0000
   114 H66       7.7823   -0.8492    2.1149   H         1 RES1   0.0000
   115 H67       9.4425   -1.4277    2.0352   H         1 RES1   0.0000
   116 H68       8.4254   -2.4777    3.9266   H         1 RES1   0.0000
   117 H69       8.6157   -3.7192    2.6923   H         1 RES1   0.0000
   118 H70       6.0250   -2.2223    3.3119   H         1 RES1   0.0000
   119 H71       6.4101   -3.8686    3.7967   H         1 RES1   0.0000
   120 H72       6.2120   -3.4826    2.0861   H         1 RES1   0.0000
   121 H73       0.3656   -1.1523    2.7563   H         1 RES1   0.0000
   122 H74       0.2955   -1.3408    5.2381   H         1 RES1   0.0000
   123 H75       2.4000   -1.1709    6.5405   H         1 RES1   0.0000
   124 H76       4.5199   -0.7260    5.3743   H         1 RES1   0.0000
   125 H77       4.5918   -0.5635    2.9409   H         1 RES1   0.0000
   126 C43      -5.8628   -6.9647    3.4230   C.3       1 RES1   0.0000
   127 C44      -7.0789   -7.2238    2.5399   C.3       1 RES1   0.0000
   128 C45      -7.6459   -5.9716    1.8638   C.3       1 RES1   0.0000
   129 C46      -8.1609   -4.8881    2.8205   C.3       1 RES1   0.0000
   130 C47      -7.1169   -3.8402    3.2247   C.3       1 RES1   0.0000
   131 C48      -6.8001   -2.8694    2.0850   C.3       1 RES1   0.0000
   132 C49      -5.6244   -1.9281    2.3776   C.3       1 RES1   0.0000
   133 C50      -4.2949   -2.6955    2.3804   C.3       1 RES1   0.0000
   134 N4       -3.1105   -1.8568    2.4848   N.am      1 RES1   0.0000
   135 C51      -2.5673   -1.6444    3.8255   C.3       1 RES1   0.0000
   136 C52      -3.0661   -0.3992    4.5593   C.3       1 RES1   0.0000
   137 C53      -2.5465    0.8955    3.9413   C.3       1 RES1   0.0000
   138 C54      -2.9736    2.1596    4.6900   C.3       1 RES1   0.0000
   139 C55      -4.3315    2.7377    4.2799   C.3       1 RES1   0.0000
   140 C56      -5.5516    1.8389    4.4705   C.3       1 RES1   0.0000
   141 C57      -5.8020    1.4165    5.9165   C.3       1 RES1   0.0000
   142 C58      -7.0345    0.5253    6.0293   C.3       1 RES1   0.0000
   143 C59      -2.4843   -1.3395    1.4336   C.2       1 RES1   0.0000
   144 O3       -1.5162   -0.5591    1.5462   O.2       1 RES1   0.0000
   145 C60      -3.0342   -1.7014    0.0649   C.3       1 RES1   0.0000
   146 N5       -2.2955   -1.1792   -1.1110   N.pl3     1 RES1   0.0000
   147 C61      -1.8168   -2.2741   -1.9933   C.3       1 RES1   0.0000
   148 C62      -0.3215   -2.5358   -2.1437   C.2       1 RES1   0.0000
   149 O4        0.5386   -1.7874   -1.6603   O.2       1 RES1   0.0000
   150 N6       -0.0153   -3.6507   -2.8269   N.am      1 RES1   0.0000
   151 C63       1.3874   -4.0150   -3.0578   C.3       1 RES1   0.0000
   152 C64       1.9149   -5.2450   -2.2916   C.3       1 RES1   0.0000
   153 C65       1.1485   -6.5653   -2.4481   C.3       1 RES1   0.0000
   154 C66       1.6798   -7.6641   -1.5015   C.3       1 RES1   0.0000
   155 C67       0.5912   -8.4262   -0.7193   C.3       1 RES1   0.0000
   156 C68       0.3271   -9.8344   -1.2584   C.3       1 RES1   0.0000
   157 C69       1.4129  -10.8530   -0.9074   C.3       1 RES1   0.0000
   158 C70       0.9359  -12.2826   -1.1486   C.3       1 RES1   0.0000
   159 C71      -0.9710   -4.3588   -3.6810   C.3       1 RES1   0.0000
   160 C72      -2.0918   -5.1482   -3.0015   C.3       1 RES1   0.0000
   161 C73      -2.5577   -6.2983   -3.8964   C.3       1 RES1   0.0000
   162 C74      -3.4686   -7.2642   -3.1377   C.3       1 RES1   0.0000
   163 C75      -4.6376   -6.5933   -2.4168   C.3       1 RES1   0.0000
   164 C76      -5.5799   -5.8357   -3.3497   C.3       1 RES1   0.0000
   165 C77      -6.8219   -5.3150   -2.6263   C.3       1 RES1   0.0000
   166 C78      -6.5097   -4.2332   -1.5988   C.3       1 RES1   0.0000
   167 C79      -3.2913   -0.4268   -1.8885   C.ar      1 RES1   0.0000
   168 C80      -3.1282    0.9122   -2.1627   C.ar      1 RES1   0.0000
   169 C81      -4.0908    1.6079   -2.8756   C.ar      1 RES1   0.0000
   170 C82      -5.2481    0.9748   -3.2843   C.ar      1 RES1   0.0000
   171 C83      -5.4423   -0.3672   -2.9859   C.ar      1 RES1   0.0000
   172 C84      -4.4565   -1.0664   -2.3142   C.ar      1 RES1   0.0000
   173 H78      -5.4137   -7.9049    3.7367   H         1 RES1   0.0000
   174 H79      -5.1086   -6.3952    2.8794   H         1 RES1   0.0000
   175 H80      -6.1439   -6.4162    4.3183   H         1 RES1   0.0000
   176 H81      -6.7930   -7.9322    1.7578   H         1 RES1   0.0000
   177 H82      -7.8569   -7.7011    3.1374   H         1 RES1   0.0000
   178 H83      -6.8856   -5.5548    1.2007   H         1 RES1   0.0000
   179 H84      -8.4753   -6.2995    1.2370   H         1 RES1   0.0000
   180 H85      -8.9993   -4.3645    2.3567   H         1 RES1   0.0000
   181 H86      -8.5451   -5.3761    3.7159   H         1 RES1   0.0000
   182 H87      -7.4978   -3.2673    4.0728   H         1 RES1   0.0000
   183 H88      -6.2062   -4.3392    3.5478   H         1 RES1   0.0000
   184 H89      -6.5848   -3.4254    1.1719   H         1 RES1   0.0000
   185 H90      -7.6859   -2.2658    1.8881   H         1 RES1   0.0000
   186 H91      -5.6001   -1.1373    1.6204   H         1 RES1   0.0000
   187 H92      -5.7716   -1.4584    3.3512   H         1 RES1   0.0000
   188 H93      -4.2793   -3.3594    3.2444   H         1 RES1   0.0000
   189 H94      -4.2300   -3.3132    1.4816   H         1 RES1   0.0000
   190 H95      -2.8394   -2.5248    4.4088   H         1 RES1   0.0000
   191 H96      -1.4822   -1.5907    3.7210   H         1 RES1   0.0000
   192 H97      -4.1509   -0.4012    4.6017   H         1 RES1   0.0000
   193 H98      -2.7100   -0.4717    5.5883   H         1 RES1   0.0000
   194 H99      -1.4519    0.8338    3.9245   H         1 RES1   0.0000
   195 H100     -2.8908    0.9694    2.9112   H         1 RES1   0.0000
   196 H101     -2.9474    1.9694    5.7621   H         1 RES1   0.0000
   197 H102     -2.2352    2.9393    4.4909   H         1 RES1   0.0000
   198 H103     -4.4879    3.6531    4.8540   H         1 RES1   0.0000
   199 H104     -4.2779    3.0198    3.2240   H         1 RES1   0.0000
   200 H105     -6.4270    2.3925    4.1276   H         1 RES1   0.0000
   201 H106     -5.4672    0.9598    3.8278   H         1 RES1   0.0000
   202 H107     -4.9420    0.8795    6.3189   H         1 RES1   0.0000
   203 H108     -5.9480    2.3074    6.5281   H         1 RES1   0.0000
   204 H109     -6.9138   -0.3824    5.4368   H         1 RES1   0.0000
   205 H110     -7.2034    0.2354    7.0636   H         1 RES1   0.0000
   206 H111     -7.9192    1.0486    5.6739   H         1 RES1   0.0000
   207 H112     -3.1120   -2.7902    0.0159   H         1 RES1   0.0000
   208 H113     -4.0542   -1.3037    0.0453   H         1 RES1   0.0000
   209 H114     -2.2523   -3.2158   -1.6645   H         1 RES1   0.0000
   210 H115     -2.1737   -2.0878   -3.0113   H         1 RES1   0.0000
   211 H116      1.5090   -4.1886   -4.1299   H         1 RES1   0.0000
   212 H117      1.9975   -3.1499   -2.7821   H         1 RES1   0.0000
   213 H118      2.9308   -5.4058   -2.6589   H         1 RES1   0.0000
   214 H119      1.9909   -5.0040   -1.2340   H         1 RES1   0.0000
   215 H120      0.0943   -6.4142   -2.2367   H         1 RES1   0.0000
   216 H121      1.2294   -6.8890   -3.4850   H         1 RES1   0.0000
   217 H122      2.2515   -8.3886   -2.0741   H         1 RES1   0.0000
   218 H123      2.3801   -7.2093   -0.8018   H         1 RES1   0.0000
   219 H124      0.8767   -8.5093    0.3353   H         1 RES1   0.0000
   220 H125     -0.3494   -7.8709   -0.7747   H         1 RES1   0.0000
   221 H126     -0.6167  -10.1975   -0.8478   H         1 RES1   0.0000
   222 H127      0.2103   -9.7779   -2.3415   H         1 RES1   0.0000
   223 H128      2.3077  -10.6743   -1.5059   H         1 RES1   0.0000
   224 H129      1.6915  -10.7503    0.1449   H         1 RES1   0.0000
   225 H130      0.6648  -12.4311   -2.1918   H         1 RES1   0.0000
   226 H131      1.7204  -12.9927   -0.8967   H         1 RES1   0.0000
   227 H132      0.0646  -12.5037   -0.5343   H         1 RES1   0.0000
   228 H133     -1.3927   -3.6593   -4.4093   H         1 RES1   0.0000
   229 H134     -0.3654   -5.0761   -4.2279   H         1 RES1   0.0000
   230 H135     -1.7384   -5.5520   -2.0496   H         1 RES1   0.0000
   231 H136     -2.9601   -4.5198   -2.8130   H         1 RES1   0.0000
   232 H137     -3.0745   -5.8778   -4.7594   H         1 RES1   0.0000
   233 H138     -1.6969   -6.8579   -4.2670   H         1 RES1   0.0000
   234 H139     -3.8539   -7.9973   -3.8453   H         1 RES1   0.0000
   235 H140     -2.8651   -7.8004   -2.3996   H         1 RES1   0.0000
   236 H141     -5.2088   -7.3707   -1.9094   H         1 RES1   0.0000
   237 H142     -4.2459   -5.9256   -1.6454   H         1 RES1   0.0000
   238 H143     -5.0629   -4.9981   -3.8242   H         1 RES1   0.0000
   239 H144     -5.9017   -6.5123   -4.1409   H         1 RES1   0.0000
   240 H145     -7.5130   -4.8999   -3.3613   H         1 RES1   0.0000
   241 H146     -7.3236   -6.1438   -2.1264   H         1 RES1   0.0000
   242 H147     -6.0166   -3.3927   -2.0813   H         1 RES1   0.0000
   243 H148     -7.4254   -3.8639   -1.1437   H         1 RES1   0.0000
   244 H149     -5.8632   -4.6139   -0.8088   H         1 RES1   0.0000
   245 H150     -2.2520    1.4094   -1.7954   H         1 RES1   0.0000
   246 H151     -3.9192    2.6538   -3.0802   H         1 RES1   0.0000
   247 H152     -6.0065    1.5122   -3.8250   H         1 RES1   0.0000
   248 H153     -6.3624   -0.8538   -3.2756   H         1 RES1   0.0000
   249 H154     -4.6027   -2.1157   -2.1019   H         1 RES1   0.0000
   250 C85      -5.7935   -1.8998   -6.1626   C.3       1 RES1   0.0000
   251 C86      -4.7217   -2.7765   -6.8033   C.3       1 RES1   0.0000
   252 C87      -3.4068   -2.8467   -6.0190   C.3       1 RES1   0.0000
   253 C88      -2.4097   -1.7207   -6.3092   C.3       1 RES1   0.0000
   254 C89      -2.8724   -0.3561   -5.8083   C.3       1 RES1   0.0000
   255 C90      -1.7963    0.7327   -5.7817   C.3       1 RES1   0.0000
   256 C91      -0.6361    0.4376   -4.8313   C.3       1 RES1   0.0000
   257 C92       0.2857    1.6196   -4.5024   C.3       1 RES1   0.0000
   258 N7       -0.1582    2.6112   -3.5054   N.am      1 RES1   0.0000
   259 C93      -0.2884    3.9738   -4.0096   C.3       1 RES1   0.0000
   260 C94      -1.3403    4.0194   -5.1227   C.3       1 RES1   0.0000
   261 C95      -1.5482    5.3840   -5.7756   C.3       1 RES1   0.0000
   262 C96      -2.4645    5.2470   -7.0009   C.3       1 RES1   0.0000
   263 C97      -1.7685    4.6257   -8.2145   C.3       1 RES1   0.0000
   264 C98      -2.6795    4.4795   -9.4371   C.3       1 RES1   0.0000
   265 C99      -3.7911    3.4340   -9.3120   C.3       1 RES1   0.0000
   266 C100     -3.2773    2.0053   -9.1581   C.3       1 RES1   0.0000
   267 C101     -0.1812    2.2050   -2.2384   C.2       1 RES1   0.0000
   268 O5       -0.2169    0.9898   -1.9739   O.2       1 RES1   0.0000
   269 C102     -0.0647    3.1708   -1.0547   C.3       1 RES1   0.0000
   270 N8       -0.7952    2.6732    0.1268   N.pl3     1 RES1   0.0000
   271 C103     -0.3369    3.3184    1.3748   C.3       1 RES1   0.0000
   272 C104      0.9111    2.6672    1.9547   C.2       1 RES1   0.0000
   273 O6        1.3144    1.6085    1.4362   O.2       1 RES1   0.0000
   274 N9        1.5191    3.2458    2.9851   N.am      1 RES1   0.0000
   275 C105      2.7580    2.6678    3.5068   C.3       1 RES1   0.0000
   276 C106      4.0288    2.9878    2.7130   C.3       1 RES1   0.0000
   277 C107      4.5318    4.4342    2.7639   C.3       1 RES1   0.0000
   278 C108      3.7777    5.4026    1.8493   C.3       1 RES1   0.0000
   279 C109      3.7563    4.9736    0.3831   C.3       1 RES1   0.0000
   280 C110      3.1359    6.0557   -0.4948   C.3       1 RES1   0.0000
   281 C111      2.9067    5.6054   -1.9364   C.3       1 RES1   0.0000
   282 C112      4.2062    5.2939   -2.6708   C.3       1 RES1   0.0000
   283 C113      0.9098    4.2534    3.8454   C.3       1 RES1   0.0000
   284 C114      0.4938    3.6492    5.1946   C.3       1 RES1   0.0000
   285 C115     -0.3637    4.6257    5.9964   C.3       1 RES1   0.0000
   286 C116     -0.6250    4.0878    7.4022   C.3       1 RES1   0.0000
   287 C117     -1.5467    4.9911    8.2245   C.3       1 RES1   0.0000
   288 C118     -3.0317    4.8523    7.8613   C.3       1 RES1   0.0000
   289 C119     -3.8232    3.9193    8.7832   C.3       1 RES1   0.0000
   290 C120     -3.3331    2.4762    8.7758   C.3       1 RES1   0.0000
   291 C121     -2.2169    2.9901    0.0771   C.ar      1 RES1   0.0000
   292 C122     -3.0953    1.9955    0.4771   C.ar      1 RES1   0.0000
   293 C123     -4.4469    2.2573    0.6083   C.ar      1 RES1   0.0000
   294 C124     -4.9277    3.5327    0.3588   C.ar      1 RES1   0.0000
   295 C125     -4.0514    4.5260   -0.0514   C.ar      1 RES1   0.0000
   296 C126     -2.6973    4.2647   -0.1969   C.ar      1 RES1   0.0000
   297 H155     -6.7258   -1.9890   -6.7140   H         1 RES1   0.0000
   298 H156     -5.5161   -0.8504   -6.1536   H         1 RES1   0.0000
   299 H157     -5.9794   -2.2142   -5.1371   H         1 RES1   0.0000
   300 H158     -4.5193   -2.4303   -7.8176   H         1 RES1   0.0000
   301 H159     -5.1306   -3.7864   -6.8783   H         1 RES1   0.0000
   302 H160     -2.9167   -3.7891   -6.2742   H         1 RES1   0.0000
   303 H161     -3.6356   -2.8661   -4.9476   H         1 RES1   0.0000
   304 H162     -2.2308   -1.6704   -7.3835   H         1 RES1   0.0000
   305 H163     -1.4581   -1.9699   -5.8314   H         1 RES1   0.0000
   306 H164     -3.2949   -0.4582   -4.8058   H         1 RES1   0.0000
   307 H165     -3.6649    0.0038   -6.4618   H         1 RES1   0.0000
   308 H166     -2.3068    1.6444   -5.4775   H         1 RES1   0.0000
   309 H167     -1.4031    0.8753   -6.7908   H         1 RES1   0.0000
   310 H168      0.0101   -0.3083   -5.2991   H         1 RES1   0.0000
   311 H169     -1.0101    0.0257   -3.8961   H         1 RES1   0.0000
   312 H170      0.5247    2.1644   -5.4137   H         1 RES1   0.0000
   313 H171      1.2072    1.2060   -4.0894   H         1 RES1   0.0000
   314 H172      0.6900    4.2834   -4.3938   H         1 RES1   0.0000
   315 H173     -0.5774    4.6612   -3.2157   H         1 RES1   0.0000
   316 H174     -2.2947    3.6703   -4.7202   H         1 RES1   0.0000
   317 H175     -1.0345    3.3347   -5.9077   H         1 RES1   0.0000
   318 H176     -0.5861    5.7960   -6.0837   H         1 RES1   0.0000
   319 H177     -1.9868    6.0723   -5.0503   H         1 RES1   0.0000
   320 H178     -2.8184    6.2388   -7.2795   H         1 RES1   0.0000
   321 H179     -3.3355    4.6485   -6.7272   H         1 RES1   0.0000
   322 H180     -1.3567    3.6468   -7.9653   H         1 RES1   0.0000
   323 H181     -0.9305    5.2664   -8.4942   H         1 RES1   0.0000
   324 H182     -2.0611    4.2132  -10.2969   H         1 RES1   0.0000
   325 H183     -3.1372    5.4454   -9.6533   H         1 RES1   0.0000
   326 H184     -4.3952    3.4778  -10.2194   H         1 RES1   0.0000
   327 H185     -4.4489    3.6747   -8.4737   H         1 RES1   0.0000
   328 H186     -2.6042    1.7468   -9.9732   H         1 RES1   0.0000
   329 H187     -4.1075    1.3013   -9.1701   H         1 RES1   0.0000
   330 H188     -2.7463    1.8798   -8.2181   H         1 RES1   0.0000
   331 H189     -0.3475    4.1914   -1.3124   H         1 RES1   0.0000
   332 H190      1.0044    3.1658   -0.8106   H         1 RES1   0.0000
   333 H191     -1.1334    3.1966    2.1146   H         1 RES1   0.0000
   334 H192     -0.1752    4.3914    1.2215   H         1 RES1   0.0000
   335 H193      2.6198    1.5836    3.5618   H         1 RES1   0.0000
   336 H194      2.8936    3.0507    4.5137   H         1 RES1   0.0000
   337 H195      3.9054    2.7136    1.6674   H         1 RES1   0.0000
   338 H196      4.8055    2.3531    3.1410   H         1 RES1   0.0000
   339 H197      5.5808    4.4272    2.4564   H         1 RES1   0.0000
   340 H198      4.5092    4.8042    3.7913   H         1 RES1   0.0000
   341 H199      4.2686    6.3746    1.9160   H         1 RES1   0.0000
   342 H200      2.7524    5.5359    2.1973   H         1 RES1   0.0000
   343 H201      3.1763    4.0514    0.2690   H         1 RES1   0.0000
   344 H202      4.7765    4.7721    0.0565   H         1 RES1   0.0000
   345 H203      3.7821    6.9324   -0.4934   H         1 RES1   0.0000
   346 H204      2.1800    6.3563   -0.0613   H         1 RES1   0.0000
   347 H205      2.3849    6.4012   -2.4706   H         1 RES1   0.0000
   348 H206      2.2632    4.7176   -1.9494   H         1 RES1   0.0000
   349 H207      4.8694    6.1543   -2.6370   H         1 RES1   0.0000
   350 H208      4.0104    5.0584   -3.7152   H         1 RES1   0.0000
   351 H209      4.7178    4.4469   -2.2172   H         1 RES1   0.0000
   352 H210      0.0333    4.6960    3.3718   H         1 RES1   0.0000
   353 H211      1.6458    5.0427    4.0127   H         1 RES1   0.0000
   354 H212      1.3793    3.4133    5.7849   H         1 RES1   0.0000
   355 H213     -0.0436    2.7112    5.0274   H         1 RES1   0.0000
   356 H214     -1.3037    4.7989    5.4713   H         1 RES1   0.0000
   357 H215      0.1573    5.5820    6.0589   H         1 RES1   0.0000
   358 H216      0.3359    3.9924    7.9111   H         1 RES1   0.0000
   359 H217     -1.0555    3.0899    7.3211   H         1 RES1   0.0000
   360 H218     -1.2245    6.0246    8.0826   H         1 RES1   0.0000
   361 H219     -1.4214    4.7573    9.2815   H         1 RES1   0.0000
   362 H220     -3.1251    4.4974    6.8327   H         1 RES1   0.0000
   363 H221     -3.5044    5.8331    7.9148   H         1 RES1   0.0000
   364 H222     -4.8708    3.9318    8.4708   H         1 RES1   0.0000
   365 H223     -3.7839    4.3007    9.8046   H         1 RES1   0.0000
   366 H224     -3.3521    2.0729    7.7650   H         1 RES1   0.0000
   367 H225     -3.9740    1.8517    9.3936   H         1 RES1   0.0000
   368 H226     -2.3204    2.4028    9.1627   H         1 RES1   0.0000
   369 H227     -2.6728    1.0228    0.6842   H         1 RES1   0.0000
   370 H228     -5.1077    1.4681    0.9297   H         1 RES1   0.0000
   371 H229     -5.9746    3.7572    0.4980   H         1 RES1   0.0000
   372 H230     -4.4320    5.5201   -0.2316   H         1 RES1   0.0000
   373 H231     -2.0393    5.0717   -0.4946   H         1 RES1   0.0000
@<TRIPOS>BOND
     1     1    20    1
     2     1    22    1
     3     1    25    1
     4     1   144    1
     5     1   146    1
     6     1   149    1
     7     1   268    1
     8     1   270    1
     9     1   273    1
    10     2     3    1
    11     2    49    1
    12     2    50    1
    13     2    51    1
    14     3     4    1
    15     3    52    1
    16     3    53    1
    17     4     5    1
    18     4    54    1
    19     4    55    1
    20     5     6    1
    21     5    56    1
    22     5    57    1
    23     6     7    1
    24     6    58    1
    25     6    59    1
    26     7     8    1
    27     7    60    1
    28     7    61    1
    29     8     9    1
    30     8    62    1
    31     8    63    1
    32     9    10    1
    33     9    64    1
    34     9    65    1
    35    10    11    1
    36    10    19    1
    37    11    12    1
    38    11    66    1
    39    11    67    1
    40    12    13    1
    41    12    68    1
    42    12    69    1
    43    13    14    1
    44    13    70    1
    45    13    71    1
    46    14    15    1
    47    14    72    1
    48    14    73    1
    49    15    16    1
    50    15    74    1
    51    15    75    1
    52    16    17    1
    53    16    76    1
    54    16    77    1
    55    17    18    1
    56    17    78    1
    57    17    79    1
    58    18    80    1
    59    18    81    1
    60    18    82    1
    61    19    20    2
    62    19    21    1
    63    21    22    1
    64    21    83    1
    65    21    84    1
    66    22    23    1
    67    22    43    1
    68    23    24    1
    69    23    85    1
    70    23    86    1
    71    24    25    2
    72    24    26    1
    73    26    27    1
    74    26    35    1
    75    27    28    1
    76    27    87    1
    77    27    88    1
    78    28    29    1
    79    28    89    1
    80    28    90    1
    81    29    30    1
    82    29    91    1
    83    29    92    1
    84    30    31    1
    85    30    93    1
    86    30    94    1
    87    31    32    1
    88    31    95    1
    89    31    96    1
    90    32    33    1
    91    32    97    1
    92    32    98    1
    93    33    34    1
    94    33    99    1
    95    33   100    1
    96    34   101    1
    97    34   102    1
    98    34   103    1
    99    35    36    1
   100    35   104    1
   101    35   105    1
   102    36    37    1
   103    36   106    1
   104    36   107    1
   105    37    38    1
   106    37   108    1
   107    37   109    1
   108    38    39    1
   109    38   110    1
   110    38   111    1
   111    39    40    1
   112    39   112    1
   113    39   113    1
   114    40    41    1
   115    40   114    1
   116    40   115    1
   117    41    42    1
   118    41   116    1
   119    41   117    1
   120    42   118    1
   121    42   119    1
   122    42   120    1
   123    43    44    1
   124    43    48    2
   125    44    45    2
   126    44   121    1
   127    45    46    1
   128    45   122    1
   129    46    47    2
   130    46   123    1
   131    47    48    1
   132    47   124    1
   133    48   125    1
   134   126   127    1
   135   126   173    1
   136   126   174    1
   137   126   175    1
   138   127   128    1
   139   127   176    1
   140   127   177    1
   141   128   129    1
   142   128   178    1
   143   128   179    1
   144   129   130    1
   145   129   180    1
   146   129   181    1
   147   130   131    1
   148   130   182    1
   149   130   183    1
   150   131   132    1
   151   131   184    1
   152   131   185    1
   153   132   133    1
   154   132   186    1
   155   132   187    1
   156   133   134    1
   157   133   188    1
   158   133   189    1
   159   134   135    1
   160   134   143    1
   161   135   136    1
   162   135   190    1
   163   135   191    1
   164   136   137    1
   165   136   192    1
   166   136   193    1
   167   137   138    1
   168   137   194    1
   169   137   195    1
   170   138   139    1
   171   138   196    1
   172   138   197    1
   173   139   140    1
   174   139   198    1
   175   139   199    1
   176   140   141    1
   177   140   200    1
   178   140   201    1
   179   141   142    1
   180   141   202    1
   181   141   203    1
   182   142   204    1
   183   142   205    1
   184   142   206    1
   185   143   144    2
   186   143   145    1
   187   145   146    1
   188   145   207    1
   189   145   208    1
   190   146   147    1
   191   146   167    1
   192   147   148    1
   193   147   209    1
   194   147   210    1
   195   148   149    2
   196   148   150    1
   197   150   151    1
   198   150   159    1
   199   151   152    1
   200   151   211    1
   201   151   212    1
   202   152   153    1
   203   152   213    1
   204   152   214    1
   205   153   154    1
   206   153   215    1
   207   153   216    1
   208   154   155    1
   209   154   217    1
   210   154   218    1
   211   155   156    1
   212   155   219    1
   213   155   220    1
   214   156   157    1
   215   156   221    1
   216   156   222    1
   217   157   158    1
   218   157   223    1
   219   157   224    1
   220   158   225    1
   221   158   226    1
   222   158   227    1
   223   159   160    1
   224   159   228    1
   225   159   229    1
   226   160   161    1
   227   160   230    1
   228   160   231    1
   229   161   162    1
   230   161   232    1
   231   161   233    1
   232   162   163    1
   233   162   234    1
   234   162   235    1
   235   163   164    1
   236   163   236    1
   237   163   237    1
   238   164   165    1
   239   164   238    1
   240   164   239    1
   241   165   166    1
   242   165   240    1
   243   165   241    1
   244   166   242    1
   245   166   243    1
   246   166   244    1
   247   167   168    1
   248   167   172    2
   249   168   169    2
   250   168   245    1
   251   169   170    1
   252   169   246    1
   253   170   171    2
   254   170   247    1
   255   171   172    1
   256   171   248    1
   257   172   249    1
   258   250   251    1
   259   250   297    1
   260   250   298    1
   261   250   299    1
   262   251   252    1
   263   251   300    1
   264   251   301    1
   265   252   253    1
   266   252   302    1
   267   252   303    1
   268   253   254    1
   269   253   304    1
   270   253   305    1
   271   254   255    1
   272   254   306    1
   273   254   307    1
   274   255   256    1
   275   255   308    1
   276   255   309    1
   277   256   257    1
   278   256   310    1
   279   256   311    1
   280   257   258    1
   281   257   312    1
   282   257   313    1
   283   258   259    1
   284   258   267    1
   285   259   260    1
   286   259   314    1
   287   259   315    1
   288   260   261    1
   289   260   316    1
   290   260   317    1
   291   261   262    1
   292   261   318    1
   293   261   319    1
   294   262   263    1
   295   262   320    1
   296   262   321    1
   297   263   264    1
   298   263   322    1
   299   263   323    1
   300   264   265    1
   301   264   324    1
   302   264   325    1
   303   265   266    1
   304   265   326    1
   305   265   327    1
   306   266   328    1
   307   266   329    1
   308   266   330    1
   309   267   268    2
   310   267   269    1
   311   269   270    1
   312   269   331    1
   313   269   332    1
   314   270   271    1
   315   270   291    1
   316   271   272    1
   317   271   333    1
   318   271   334    1
   319   272   273    2
   320   272   274    1
   321   274   275    1
   322   274   283    1
   323   275   276    1
   324   275   335    1
   325   275   336    1
   326   276   277    1
   327   276   337    1
   328   276   338    1
   329   277   278    1
   330   277   339    1
   331   277   340    1
   332   278   279    1
   333   278   341    1
   334   278   342    1
   335   279   280    1
   336   279   343    1
   337   279   344    1
   338   280   281    1
   339   280   345    1
   340   280   346    1
   341   281   282    1
   342   281   347    1
   343   281   348    1
   344   282   349    1
   345   282   350    1
   346   282   351    1
   347   283   284    1
   348   283   352    1
   349   283   353    1
   350   284   285    1
   351   284   354    1
   352   284   355    1
   353   285   286    1
   354   285   356    1
   355   285   357    1
   356   286   287    1
   357   286   358    1
   358   286   359    1
   359   287   288    1
   360   287   360    1
   361   287   361    1
   362   288   289    1
   363   288   362    1
   364   288   363    1
   365   289   290    1
   366   289   364    1
   367   289   365    1
   368   290   366    1
   369   290   367    1
   370   290   368    1
   371   291   292    1
   372   291   296    2
   373   292   293    2
   374   292   369    1
   375   293   294    1
   376   293   370    1
   377   294   295    2
   378   294   371    1
   379   295   296    1
   380   295   372    1
   381   296   373    1
@<TRIPOS>SUBSTRUCTURE
     1 RES1      373 GROUP             0 ****  ****    0  
