@<TRIPOS>MOLECULE
cn9_YICLED_0_nunpairedes_0_charge_1 Charge: 1 Unpaired_Electrons: 6 XTB_Unpaired_Electrons: 0 XTB_Charge: 1
   122   128     1     0     0
SMALL
NoCharges
****
Generated from Architector

@<TRIPOS>ATOM
     1 Eu1       0.7078   -0.1657    1.3425   Eu        1 RES1   0.0000
     2 C1       -4.4939   -8.0098   -2.4100   C.3       1 RES1   0.0000
     3 C2       -5.1651   -7.0409   -3.3755   C.3       1 RES1   0.0000
     4 C3       -5.2146   -5.6296   -2.7887   C.3       1 RES1   0.0000
     5 C4       -5.8566   -4.6106   -3.7320   C.3       1 RES1   0.0000
     6 C5       -5.9537   -3.1995   -3.1416   C.3       1 RES1   0.0000
     7 C6       -4.6054   -2.4938   -3.0136   C.3       1 RES1   0.0000
     8 C7       -4.6415   -1.2918   -2.0644   C.3       1 RES1   0.0000
     9 C8       -3.2163   -0.8687   -1.6658   C.3       1 RES1   0.0000
    10 N1       -2.9731   -0.7985   -0.2322   N.am      1 RES1   0.0000
    11 C9       -2.8546   -2.0726    0.4866   C.3       1 RES1   0.0000
    12 C10      -2.0617   -3.1741   -0.2320   C.3       1 RES1   0.0000
    13 C11      -1.3601   -4.1115    0.7640   C.3       1 RES1   0.0000
    14 C12      -0.3398   -5.0196    0.0633   C.3       1 RES1   0.0000
    15 C13      -0.9454   -6.2317   -0.6462   C.3       1 RES1   0.0000
    16 C14       0.1190   -7.0714   -1.3611   C.3       1 RES1   0.0000
    17 C15       0.7152   -6.4208   -2.6116   C.3       1 RES1   0.0000
    18 C16      -0.3012   -6.2495   -3.7371   C.3       1 RES1   0.0000
    19 C17      -2.6086    0.3235    0.3815   C.2       1 RES1   0.0000
    20 S1       -2.0837    0.3546    2.0173   S.3       1 RES1   0.0000
    21 C18      -2.3447    1.5561   -0.3349   C.ar      1 RES1   0.0000
    22 C19      -2.7274    2.1738   -1.5137   C.ar      1 RES1   0.0000
    23 C20      -1.6329    2.6764   -2.2512   C.ar      1 RES1   0.0000
    24 C21      -0.4123    2.3798   -1.6563   C.ar      1 RES1   0.0000
    25 C22       0.7203    1.5542   -2.0171   C.2       1 RES1   0.0000
    26 S2        1.9208    1.3537   -0.8201   S.3       1 RES1   0.0000
    27 N2        0.6762    0.7093   -3.0496   N.am      1 RES1   0.0000
    28 C23      -0.0985    1.0083   -4.2394   C.3       1 RES1   0.0000
    29 C24      -0.7816   -0.1704   -4.9318   C.3       1 RES1   0.0000
    30 C25      -1.8961    0.2986   -5.8759   C.3       1 RES1   0.0000
    31 C26      -1.4697    1.2824   -6.9662   C.3       1 RES1   0.0000
    32 C27      -0.3551    0.8610   -7.9317   C.3       1 RES1   0.0000
    33 C28      -0.6785   -0.2692   -8.9146   C.3       1 RES1   0.0000
    34 C29      -0.4689   -1.6879   -8.3858   C.3       1 RES1   0.0000
    35 C30       0.9978   -2.0420   -8.1709   C.3       1 RES1   0.0000
    36 C31       1.1729   -0.6454   -2.8373   C.3       1 RES1   0.0000
    37 C32       2.6818   -0.9203   -2.8645   C.3       1 RES1   0.0000
    38 C33       3.3600   -0.3685   -4.1152   C.3       1 RES1   0.0000
    39 C34       3.8410    1.0724   -3.9210   C.3       1 RES1   0.0000
    40 C35       4.4021    1.6805   -5.2054   C.3       1 RES1   0.0000
    41 C36       3.3163    1.9770   -6.2359   C.3       1 RES1   0.0000
    42 C37       3.7847    2.8850   -7.3715   C.3       1 RES1   0.0000
    43 C38       4.9072    2.2669   -8.1941   C.3       1 RES1   0.0000
    44 S3       -0.7046    2.0647    0.0655   S.2       1 RES1   0.0000
    45 H1       -4.4642   -9.0103   -2.8285   H         1 RES1   0.0000
    46 H2       -5.0390   -8.0517   -1.4709   H         1 RES1   0.0000
    47 H3       -3.4734   -7.6996   -2.2004   H         1 RES1   0.0000
    48 H4       -6.1795   -7.3822   -3.5895   H         1 RES1   0.0000
    49 H5       -4.6151   -7.0242   -4.3192   H         1 RES1   0.0000
    50 H6       -4.1919   -5.3292   -2.5466   H         1 RES1   0.0000
    51 H7       -5.7793   -5.6566   -1.8539   H         1 RES1   0.0000
    52 H8       -6.8689   -4.9487   -3.9589   H         1 RES1   0.0000
    53 H9       -5.3024   -4.5793   -4.6723   H         1 RES1   0.0000
    54 H10      -6.4182   -3.2640   -2.1559   H         1 RES1   0.0000
    55 H11      -6.6106   -2.5999   -3.7714   H         1 RES1   0.0000
    56 H12      -4.2575   -2.1661   -3.9933   H         1 RES1   0.0000
    57 H13      -3.8813   -3.2129   -2.6324   H         1 RES1   0.0000
    58 H14      -5.2096   -1.5530   -1.1733   H         1 RES1   0.0000
    59 H15      -5.1461   -0.4511   -2.5381   H         1 RES1   0.0000
    60 H16      -2.9714    0.0921   -2.1144   H         1 RES1   0.0000
    61 H17      -2.5204   -1.6074   -2.0674   H         1 RES1   0.0000
    62 H18      -3.8509   -2.4247    0.7587   H         1 RES1   0.0000
    63 H19      -2.3230   -1.8554    1.4204   H         1 RES1   0.0000
    64 H20      -1.2656   -2.7212   -0.8347   H         1 RES1   0.0000
    65 H21      -2.7046   -3.7596   -0.8863   H         1 RES1   0.0000
    66 H22      -2.0937   -4.7178    1.3027   H         1 RES1   0.0000
    67 H23      -0.8246   -3.4809    1.4877   H         1 RES1   0.0000
    68 H24       0.3653   -5.3837    0.8088   H         1 RES1   0.0000
    69 H25       0.2330   -4.4202   -0.6467   H         1 RES1   0.0000
    70 H26      -1.7038   -5.9173   -1.3647   H         1 RES1   0.0000
    71 H27      -1.4391   -6.8632    0.0944   H         1 RES1   0.0000
    72 H28      -0.3273   -8.0260   -1.6499   H         1 RES1   0.0000
    73 H29       0.9264   -7.2870   -0.6573   H         1 RES1   0.0000
    74 H30       1.5286   -7.0561   -2.9690   H         1 RES1   0.0000
    75 H31       1.1496   -5.4514   -2.3540   H         1 RES1   0.0000
    76 H32      -0.7959   -7.1957   -3.9478   H         1 RES1   0.0000
    77 H33       0.1913   -5.9149   -4.6482   H         1 RES1   0.0000
    78 H34      -1.0598   -5.5142   -3.4729   H         1 RES1   0.0000
    79 H35      -3.7365    2.2003   -1.8838   H         1 RES1   0.0000
    80 H36      -1.7590    3.2066   -3.1835   H         1 RES1   0.0000
    81 H37       0.5462    1.5434   -4.9442   H         1 RES1   0.0000
    82 H38      -0.8905    1.6883   -3.9283   H         1 RES1   0.0000
    83 H39      -1.2504   -0.7983   -4.1717   H         1 RES1   0.0000
    84 H40      -0.0721   -0.7683   -5.4985   H         1 RES1   0.0000
    85 H41      -2.6744    0.7795   -5.2773   H         1 RES1   0.0000
    86 H42      -2.3384   -0.5866   -6.3334   H         1 RES1   0.0000
    87 H43      -1.1522    2.2137   -6.4874   H         1 RES1   0.0000
    88 H44      -2.3625    1.5227   -7.5460   H         1 RES1   0.0000
    89 H45       0.5432    0.6073   -7.3709   H         1 RES1   0.0000
    90 H46      -0.1215    1.7545   -8.5158   H         1 RES1   0.0000
    91 H47      -0.0334   -0.1380   -9.7857   H         1 RES1   0.0000
    92 H48      -1.7088   -0.1603   -9.2585   H         1 RES1   0.0000
    93 H49      -0.8785   -2.3845   -9.1162   H         1 RES1   0.0000
    94 H50      -1.0200   -1.8302   -7.4581   H         1 RES1   0.0000
    95 H51       1.5613   -1.9174   -9.0941   H         1 RES1   0.0000
    96 H52       1.0929   -3.0793   -7.8540   H         1 RES1   0.0000
    97 H53       1.4606   -1.4155   -7.4089   H         1 RES1   0.0000
    98 H54       0.7271   -1.2627   -3.6116   H         1 RES1   0.0000
    99 H55       0.7810   -0.9634   -1.8535   H         1 RES1   0.0000
   100 H56       2.7754   -2.0085   -2.8217   H         1 RES1   0.0000
   101 H57       3.1759   -0.5202   -1.9774   H         1 RES1   0.0000
   102 H58       2.6706   -0.4325   -4.9609   H         1 RES1   0.0000
   103 H59       4.2212   -0.9948   -4.3505   H         1 RES1   0.0000
   104 H60       4.6208    1.0729   -3.1529   H         1 RES1   0.0000
   105 H61       3.0280    1.7058   -3.5517   H         1 RES1   0.0000
   106 H62       5.1413    0.9974   -5.6204   H         1 RES1   0.0000
   107 H63       4.9132    2.6084   -4.9503   H         1 RES1   0.0000
   108 H64       2.4813    2.4717   -5.7293   H         1 RES1   0.0000
   109 H65       2.9518    1.0426   -6.6666   H         1 RES1   0.0000
   110 H66       4.1139    3.8440   -6.9659   H         1 RES1   0.0000
   111 H67       2.9337    3.0864   -8.0272   H         1 RES1   0.0000
   112 H68       5.8038    2.1407   -7.5938   H         1 RES1   0.0000
   113 H69       5.1521    2.9045   -9.0402   H         1 RES1   0.0000
   114 H70       4.6029    1.2926   -8.5705   H         1 RES1   0.0000
   115 N3        1.9690   -2.1057    0.7784   N.3       1 RES1   0.0000
   116 O1        2.3966   -3.2012    0.8466   O.2       1 RES1   0.0000
   117 O2        2.5789   -1.1096    1.1837   O.co2     1 RES1   0.0000
   118 O3        0.8394   -1.8793    0.2461   O.co2     1 RES1   0.0000
   119 N4        1.4440    0.0769    3.5898   N.3       1 RES1   0.0000
   120 O4        2.0806    0.1155    4.5781   O.2       1 RES1   0.0000
   121 O5        0.7912   -0.9366    3.2493   O.co2     1 RES1   0.0000
   122 O6        1.3625    1.0513    2.8041   O.co2     1 RES1   0.0000
@<TRIPOS>BOND
     1     1    10    1
     2     1    20    1
     3     1    26    1
     4     1    27    1
     5     1    44    1
     6     1   117    1
     7     1   118    1
     8     1   121    1
     9     1   122    1
    10     2     3    1
    11     2    45    1
    12     2    46    1
    13     2    47    1
    14     3     4    1
    15     3    48    1
    16     3    49    1
    17     4     5    1
    18     4    50    1
    19     4    51    1
    20     5     6    1
    21     5    52    1
    22     5    53    1
    23     6     7    1
    24     6    54    1
    25     6    55    1
    26     7     8    1
    27     7    56    1
    28     7    57    1
    29     8     9    1
    30     8    58    1
    31     8    59    1
    32     9    10    1
    33     9    60    1
    34     9    61    1
    35    10    11    1
    36    10    19    1
    37    11    12    1
    38    11    62    1
    39    11    63    1
    40    12    13    1
    41    12    64    1
    42    12    65    1
    43    13    14    1
    44    13    66    1
    45    13    67    1
    46    14    15    1
    47    14    68    1
    48    14    69    1
    49    15    16    1
    50    15    70    1
    51    15    71    1
    52    16    17    1
    53    16    72    1
    54    16    73    1
    55    17    18    1
    56    17    74    1
    57    17    75    1
    58    18    76    1
    59    18    77    1
    60    18    78    1
    61    19    20    2
    62    19    21    1
    63    21    22    2
    64    21    44    1
    65    22    23    1
    66    22    79    1
    67    23    24    2
    68    23    80    1
    69    24    25    1
    70    24    44    1
    71    25    26    2
    72    25    27    1
    73    27    28    1
    74    27    36    1
    75    28    29    1
    76    28    81    1
    77    28    82    1
    78    29    30    1
    79    29    83    1
    80    29    84    1
    81    30    31    1
    82    30    85    1
    83    30    86    1
    84    31    32    1
    85    31    87    1
    86    31    88    1
    87    32    33    1
    88    32    89    1
    89    32    90    1
    90    33    34    1
    91    33    91    1
    92    33    92    1
    93    34    35    1
    94    34    93    1
    95    34    94    1
    96    35    95    1
    97    35    96    1
    98    35    97    1
    99    36    37    1
   100    36    98    1
   101    36    99    1
   102    37    38    1
   103    37   100    1
   104    37   101    1
   105    38    39    1
   106    38   102    1
   107    38   103    1
   108    39    40    1
   109    39   104    1
   110    39   105    1
   111    40    41    1
   112    40   106    1
   113    40   107    1
   114    41    42    1
   115    41   108    1
   116    41   109    1
   117    42    43    1
   118    42   110    1
   119    42   111    1
   120    43   112    1
   121    43   113    1
   122    43   114    1
   123   115   116    2
   124   115   117    1
   125   115   118    1
   126   119   120    2
   127   119   121    1
   128   119   122    1
@<TRIPOS>SUBSTRUCTURE
     1 RES1      122 GROUP             0 ****  ****    0  
