@<TRIPOS>MOLECULE
am_c3_9H2O_c0_0_nunpairedes_0_charge_3 Charge: 3 Unpaired_Electrons: 6 XTB_Unpaired_Electrons: 0 XTB_Charge: 3
   284   291     1     0     0
SMALL
NoCharges
****
Generated from Architector

@<TRIPOS>ATOM
     1 Eu1       0.1437    0.0110    0.0906   Eu        1 RES1   0.0000
     2 C1        5.0152   -1.2566    1.9136   C.3       1 RES1   0.0000
     3 C2        4.8327    0.2278    2.2023   C.3       1 RES1   0.0000
     4 C3        6.1644    0.9073    2.5260   C.3       1 RES1   0.0000
     5 C4        6.1057    2.3891    2.9285   C.3       1 RES1   0.0000
     6 C5        5.4738    3.3723    1.9317   C.3       1 RES1   0.0000
     7 C6        3.9467    3.3951    2.0152   C.3       1 RES1   0.0000
     8 C7        3.3198    4.5923    1.3144   C.3       1 RES1   0.0000
     9 C8        1.8182    4.4063    1.0532   C.3       1 RES1   0.0000
    10 P1        1.5352    3.3547   -0.4500   P.3       1 RES1   0.0000
    11 O1        1.6065    1.9114   -0.0698   O.2       1 RES1   0.0000
    12 C9       -0.0843    3.9176   -1.2479   C.3       1 RES1   0.0000
    13 C10      -0.9191    2.8332   -1.9068   C.2       1 RES1   0.0000
    14 O2       -0.8230    1.6517   -1.5382   O.2       1 RES1   0.0000
    15 N1       -1.8065    3.1853   -2.8570   N.am      1 RES1   0.0000
    16 C11      -2.7082    2.1486   -3.3508   C.3       1 RES1   0.0000
    17 C12      -2.1426    1.1033   -4.3368   C.3       1 RES1   0.0000
    18 C13      -1.1412    1.6561   -5.3424   C.3       1 RES1   0.0000
    19 C14      -3.3222    0.4829   -5.0923   C.3       1 RES1   0.0000
    20 C15      -2.2469    4.5488   -3.1457   C.3       1 RES1   0.0000
    21 C16      -2.1531    5.0166   -4.6136   C.3       1 RES1   0.0000
    22 C17      -2.1442    6.5460   -4.5932   C.3       1 RES1   0.0000
    23 C18      -3.2953    4.5601   -5.5222   C.3       1 RES1   0.0000
    24 C19       2.8339    3.8750   -1.6112   C.ar      1 RES1   0.0000
    25 C20       3.5706    2.9470   -2.3228   C.ar      1 RES1   0.0000
    26 C21       4.7331    3.3220   -2.9775   C.ar      1 RES1   0.0000
    27 C22       5.1630    4.6374   -2.9256   C.ar      1 RES1   0.0000
    28 C23       4.3892    5.5908   -2.2773   C.ar      1 RES1   0.0000
    29 C24       3.2297    5.2108   -1.6265   C.ar      1 RES1   0.0000
    30 H1        5.7696   -1.3948    1.1434   H         1 RES1   0.0000
    31 H2        4.0772   -1.6800    1.5561   H         1 RES1   0.0000
    32 H3        5.3416   -1.7905    2.8047   H         1 RES1   0.0000
    33 H4        4.1348    0.3466    3.0293   H         1 RES1   0.0000
    34 H5        4.3737    0.6875    1.3304   H         1 RES1   0.0000
    35 H6        6.8183    0.8087    1.6573   H         1 RES1   0.0000
    36 H7        6.6406    0.3634    3.3500   H         1 RES1   0.0000
    37 H8        7.1378    2.6985    3.1068   H         1 RES1   0.0000
    38 H9        5.5828    2.4892    3.8810   H         1 RES1   0.0000
    39 H10       5.7985    3.1354    0.9185   H         1 RES1   0.0000
    40 H11       5.8511    4.3731    2.1566   H         1 RES1   0.0000
    41 H12       3.6778    3.4372    3.0678   H         1 RES1   0.0000
    42 H13       3.5382    2.4882    1.5721   H         1 RES1   0.0000
    43 H14       3.8546    4.7359    0.3802   H         1 RES1   0.0000
    44 H15       3.4780    5.4922    1.9065   H         1 RES1   0.0000
    45 H16       1.3242    5.3734    0.9576   H         1 RES1   0.0000
    46 H17       1.3623    3.8655    1.8874   H         1 RES1   0.0000
    47 H18       0.2015    4.6802   -1.9727   H         1 RES1   0.0000
    48 H19      -0.6978    4.3816   -0.4689   H         1 RES1   0.0000
    49 H20      -3.5411    2.6570   -3.8269   H         1 RES1   0.0000
    50 H21      -3.0825    1.6077   -2.4752   H         1 RES1   0.0000
    51 H22      -1.6275    0.3423   -3.7373   H         1 RES1   0.0000
    52 H23      -1.6187    2.2902   -6.0827   H         1 RES1   0.0000
    53 H24      -0.6736    0.8374   -5.8883   H         1 RES1   0.0000
    54 H25      -0.3733    2.2193   -4.8255   H         1 RES1   0.0000
    55 H26      -3.7869    1.2259   -5.7379   H         1 RES1   0.0000
    56 H27      -4.0879    0.1084   -4.4158   H         1 RES1   0.0000
    57 H28      -2.9995   -0.3373   -5.7283   H         1 RES1   0.0000
    58 H29      -1.6598    5.2398   -2.5457   H         1 RES1   0.0000
    59 H30      -3.2865    4.6309   -2.8062   H         1 RES1   0.0000
    60 H31      -1.2131    4.6566   -5.0336   H         1 RES1   0.0000
    61 H32      -3.0940    6.9114   -4.2124   H         1 RES1   0.0000
    62 H33      -2.0087    6.9414   -5.5954   H         1 RES1   0.0000
    63 H34      -1.3523    6.9379   -3.9603   H         1 RES1   0.0000
    64 H35      -4.2629    4.7516   -5.0632   H         1 RES1   0.0000
    65 H36      -3.2316    3.5099   -5.7876   H         1 RES1   0.0000
    66 H37      -3.2506    5.1267   -6.4497   H         1 RES1   0.0000
    67 H38       3.2141    1.9338   -2.3560   H         1 RES1   0.0000
    68 H39       5.3203    2.5876   -3.5098   H         1 RES1   0.0000
    69 H40       6.0879    4.9231   -3.4031   H         1 RES1   0.0000
    70 H41       4.6934    6.6262   -2.2676   H         1 RES1   0.0000
    71 H42       2.6298    5.9509   -1.1224   H         1 RES1   0.0000
    72 C25      -5.2119   -2.7559    0.7795   C.3       1 RES1   0.0000
    73 C26      -6.2687   -3.8383    0.5882   C.3       1 RES1   0.0000
    74 C27      -5.7544   -5.2427    0.9198   C.3       1 RES1   0.0000
    75 C28      -5.8279   -5.6512    2.3955   C.3       1 RES1   0.0000
    76 C29      -5.0644   -4.7765    3.3952   C.3       1 RES1   0.0000
    77 C30      -3.5763   -4.6271    3.0749   C.3       1 RES1   0.0000
    78 C31      -2.8752   -3.6556    4.0210   C.3       1 RES1   0.0000
    79 C32      -1.3707   -3.5323    3.7219   C.3       1 RES1   0.0000
    80 P2       -0.9006   -1.8014    3.3044   P.3       1 RES1   0.0000
    81 O3       -1.1477   -1.3988    1.8894   O.2       1 RES1   0.0000
    82 C33       0.9210   -1.7168    3.6146   C.3       1 RES1   0.0000
    83 C34       1.2642   -0.2599    3.5932   C.2       1 RES1   0.0000
    84 O4        1.0128    0.3608    2.5319   O.2       1 RES1   0.0000
    85 N2        1.8120    0.3244    4.6596   N.am      1 RES1   0.0000
    86 C35       2.3605    1.6626    4.4727   C.3       1 RES1   0.0000
    87 C36       1.6931    2.8630    5.1644   C.3       1 RES1   0.0000
    88 C37       0.1918    2.8930    4.9184   C.3       1 RES1   0.0000
    89 C38       2.0218    3.0131    6.6506   C.3       1 RES1   0.0000
    90 C39       1.9269   -0.2905    5.9804   C.3       1 RES1   0.0000
    91 C40       3.2512   -0.9900    6.3824   C.3       1 RES1   0.0000
    92 C41       3.4943   -2.3180    5.6697   C.3       1 RES1   0.0000
    93 C42       4.4893   -0.1059    6.2454   C.3       1 RES1   0.0000
    94 C43      -1.6382   -0.6515    4.5005   C.ar      1 RES1   0.0000
    95 C44      -2.2480    0.4728    3.9697   C.ar      1 RES1   0.0000
    96 C45      -2.7697    1.4472    4.7982   C.ar      1 RES1   0.0000
    97 C46      -2.6813    1.3021    6.1729   C.ar      1 RES1   0.0000
    98 C47      -2.0895    0.1690    6.7100   C.ar      1 RES1   0.0000
    99 C48      -1.5710   -0.8093    5.8783   C.ar      1 RES1   0.0000
   100 H43      -5.5766   -1.8026    0.4195   H         1 RES1   0.0000
   101 H44      -4.3011   -3.0047    0.2360   H         1 RES1   0.0000
   102 H45      -4.9602   -2.6398    1.8257   H         1 RES1   0.0000
   103 H46      -6.6011   -3.8274   -0.4544   H         1 RES1   0.0000
   104 H47      -7.1409   -3.6138    1.2040   H         1 RES1   0.0000
   105 H48      -4.7273   -5.3321    0.5656   H         1 RES1   0.0000
   106 H49      -6.3477   -5.9686    0.3565   H         1 RES1   0.0000
   107 H50      -5.4589   -6.6766    2.4619   H         1 RES1   0.0000
   108 H51      -6.8772   -5.6757    2.6955   H         1 RES1   0.0000
   109 H52      -5.1677   -5.2409    4.3775   H         1 RES1   0.0000
   110 H53      -5.5430   -3.7971    3.4508   H         1 RES1   0.0000
   111 H54      -3.4444   -4.2547    2.0610   H         1 RES1   0.0000
   112 H55      -3.1015   -5.6073    3.1376   H         1 RES1   0.0000
   113 H56      -3.0340   -3.9781    5.0506   H         1 RES1   0.0000
   114 H57      -3.3421   -2.6695    3.9224   H         1 RES1   0.0000
   115 H58      -1.0935   -4.1327    2.8517   H         1 RES1   0.0000
   116 H59      -0.7789   -3.8734    4.5713   H         1 RES1   0.0000
   117 H60       1.3785   -2.1342    2.7113   H         1 RES1   0.0000
   118 H61       1.2291   -2.2642    4.4939   H         1 RES1   0.0000
   119 H62       2.3198    1.8268    3.3954   H         1 RES1   0.0000
   120 H63       3.4052    1.6428    4.7782   H         1 RES1   0.0000
   121 H64       2.1321    3.7312    4.6602   H         1 RES1   0.0000
   122 H65      -0.2717    1.9782    5.2732   H         1 RES1   0.0000
   123 H66      -0.0173    2.9928    3.8540   H         1 RES1   0.0000
   124 H67      -0.2554    3.7351    5.4398   H         1 RES1   0.0000
   125 H68       1.4003    2.3840    7.2836   H         1 RES1   0.0000
   126 H69       1.8564    4.0444    6.9527   H         1 RES1   0.0000
   127 H70       3.0669    2.7821    6.8412   H         1 RES1   0.0000
   128 H71       1.1134   -1.0060    6.1084   H         1 RES1   0.0000
   129 H72       1.7556    0.5059    6.7042   H         1 RES1   0.0000
   130 H73       3.1179   -1.2134    7.4477   H         1 RES1   0.0000
   131 H74       3.6575   -2.1595    4.6073   H         1 RES1   0.0000
   132 H75       2.6683   -3.0114    5.8248   H         1 RES1   0.0000
   133 H76       4.3884   -2.7872    6.0744   H         1 RES1   0.0000
   134 H77       4.7850    0.0052    5.2044   H         1 RES1   0.0000
   135 H78       5.3212   -0.5698    6.7689   H         1 RES1   0.0000
   136 H79       4.3265    0.8718    6.6915   H         1 RES1   0.0000
   137 H80      -2.3073    0.5347    2.8950   H         1 RES1   0.0000
   138 H81      -3.2314    2.3276    4.3833   H         1 RES1   0.0000
   139 H82      -3.0732    2.0707    6.8207   H         1 RES1   0.0000
   140 H83      -2.0335    0.0512    7.7801   H         1 RES1   0.0000
   141 H84      -1.1322   -1.6973    6.3026   H         1 RES1   0.0000
   142 C49       1.6666    7.2264   -3.7934   C.3       1 RES1   0.0000
   143 C50       2.3256    6.2931   -4.8048   C.3       1 RES1   0.0000
   144 C51       1.4050    5.1294   -5.1686   C.3       1 RES1   0.0000
   145 C52       1.9725    4.1862   -6.2387   C.3       1 RES1   0.0000
   146 C53       2.9437    3.1036   -5.7458   C.3       1 RES1   0.0000
   147 C54       2.2211    1.8887   -5.1541   C.3       1 RES1   0.0000
   148 C55       3.1117    0.6654   -4.9375   C.3       1 RES1   0.0000
   149 C56       2.3222   -0.5574   -4.4300   C.3       1 RES1   0.0000
   150 P3        2.4818   -0.8060   -2.6073   P.3       1 RES1   0.0000
   151 O5        1.4530    0.0131   -1.9003   O.2       1 RES1   0.0000
   152 C57       2.2729   -2.6047   -2.2114   C.3       1 RES1   0.0000
   153 C58       2.1042   -2.8474   -0.7289   C.2       1 RES1   0.0000
   154 O6        1.7318   -1.9319    0.0305   O.2       1 RES1   0.0000
   155 N3        2.2748   -4.1066   -0.2956   N.am      1 RES1   0.0000
   156 C59       1.4958   -4.5283    0.8684   C.3       1 RES1   0.0000
   157 C60       2.1403   -5.2029    2.0971   C.3       1 RES1   0.0000
   158 C61       3.2404   -4.3795    2.7547   C.3       1 RES1   0.0000
   159 C62       2.6357   -6.6254    1.8473   C.3       1 RES1   0.0000
   160 C63       2.8297   -5.1731   -1.1260   C.3       1 RES1   0.0000
   161 C64       4.3442   -5.0842   -1.4348   C.3       1 RES1   0.0000
   162 C65       4.8438   -6.4786   -1.8140   C.3       1 RES1   0.0000
   163 C66       5.1573   -4.5177   -0.2771   C.3       1 RES1   0.0000
   164 C67       4.2345   -0.5250   -2.2289   C.ar      1 RES1   0.0000
   165 C68       4.6272    0.3669   -1.2473   C.ar      1 RES1   0.0000
   166 C69       5.9649    0.6865   -1.1009   C.ar      1 RES1   0.0000
   167 C70       6.9167    0.0840   -1.9044   C.ar      1 RES1   0.0000
   168 C71       6.5339   -0.8610   -2.8442   C.ar      1 RES1   0.0000
   169 C72       5.1952   -1.1539   -3.0134   C.ar      1 RES1   0.0000
   170 H85       2.3821    7.9536   -3.4219   H         1 RES1   0.0000
   171 H86       1.2768    6.6640   -2.9452   H         1 RES1   0.0000
   172 H87       0.8428    7.7674   -4.2519   H         1 RES1   0.0000
   173 H88       3.2633    5.9100   -4.4038   H         1 RES1   0.0000
   174 H89       2.5584    6.8565   -5.7089   H         1 RES1   0.0000
   175 H90       0.4852    5.5694   -5.5612   H         1 RES1   0.0000
   176 H91       1.1587    4.5655   -4.2611   H         1 RES1   0.0000
   177 H92       2.4801    4.8020   -6.9824   H         1 RES1   0.0000
   178 H93       1.1373    3.6939   -6.7426   H         1 RES1   0.0000
   179 H94       3.6248    3.5409   -5.0185   H         1 RES1   0.0000
   180 H95       3.5362    2.7691   -6.5995   H         1 RES1   0.0000
   181 H96       1.4436    1.6006   -5.8610   H         1 RES1   0.0000
   182 H97       1.7539    2.1538   -4.2005   H         1 RES1   0.0000
   183 H98       3.9071    0.9127   -4.2357   H         1 RES1   0.0000
   184 H99       3.5955    0.4088   -5.8803   H         1 RES1   0.0000
   185 H100      2.6520   -1.4541   -4.9523   H         1 RES1   0.0000
   186 H101      1.2533   -0.4218   -4.6111   H         1 RES1   0.0000
   187 H102      3.1072   -3.1509   -2.6387   H         1 RES1   0.0000
   188 H103      1.3384   -2.9493   -2.6641   H         1 RES1   0.0000
   189 H104      0.7353   -5.2205    0.4826   H         1 RES1   0.0000
   190 H105      0.9913   -3.6226    1.2170   H         1 RES1   0.0000
   191 H106      1.3021   -5.2706    2.8057   H         1 RES1   0.0000
   192 H107      3.5058   -4.8122    3.7158   H         1 RES1   0.0000
   193 H108      2.9165   -3.3591    2.9190   H         1 RES1   0.0000
   194 H109      4.1333   -4.3624    2.1429   H         1 RES1   0.0000
   195 H110      3.5690   -6.6227    1.2930   H         1 RES1   0.0000
   196 H111      1.8948   -7.2187    1.3149   H         1 RES1   0.0000
   197 H112      2.8275   -7.1122    2.7998   H         1 RES1   0.0000
   198 H113      2.2697   -5.2404   -2.0671   H         1 RES1   0.0000
   199 H114      2.6589   -6.0980   -0.5807   H         1 RES1   0.0000
   200 H115      4.5097   -4.4349   -2.2983   H         1 RES1   0.0000
   201 H116      4.7726   -7.1683   -0.9759   H         1 RES1   0.0000
   202 H117      5.8858   -6.4289   -2.1170   H         1 RES1   0.0000
   203 H118      4.2699   -6.8829   -2.6441   H         1 RES1   0.0000
   204 H119      5.1835   -5.2253    0.5471   H         1 RES1   0.0000
   205 H120      6.1826   -4.3423   -0.5912   H         1 RES1   0.0000
   206 H121      4.7455   -3.5687    0.0601   H         1 RES1   0.0000
   207 H122      3.8626    0.8177   -0.6339   H         1 RES1   0.0000
   208 H123      6.2615    1.4224   -0.3729   H         1 RES1   0.0000
   209 H124      7.9541    0.3600   -1.8063   H         1 RES1   0.0000
   210 H125      7.2736   -1.3492   -3.4584   H         1 RES1   0.0000
   211 H126      4.8920   -1.8586   -3.7721   H         1 RES1   0.0000
   212 C73       5.3292   -4.6536   -5.0385   C.3       1 RES1   0.0000
   213 C74       3.9250   -5.2302   -5.1732   C.3       1 RES1   0.0000
   214 C75       3.0399   -4.3793   -6.0849   C.3       1 RES1   0.0000
   215 C76       1.6774   -5.0189   -6.3762   C.3       1 RES1   0.0000
   216 C77       0.7037   -5.0667   -5.1942   C.3       1 RES1   0.0000
   217 C78       0.0431   -3.7171   -4.9269   C.3       1 RES1   0.0000
   218 C79      -0.9381   -3.7895   -3.7602   C.3       1 RES1   0.0000
   219 C80      -1.6262   -2.4419   -3.5240   C.3       1 RES1   0.0000
   220 P4       -2.0469   -2.2180   -1.7433   P.3       1 RES1   0.0000
   221 O7       -0.8269   -1.7587   -1.0130   O.2       1 RES1   0.0000
   222 C81      -3.5030   -1.0530   -1.7111   C.3       1 RES1   0.0000
   223 C82      -3.5177   -0.0930   -0.5448   C.2       1 RES1   0.0000
   224 O8       -2.4704    0.1352    0.0805   O.2       1 RES1   0.0000
   225 N4       -4.6812    0.5334   -0.2527   N.am      1 RES1   0.0000
   226 C83      -4.6078    1.5838    0.7668   C.3       1 RES1   0.0000
   227 C84      -5.4208    1.4834    2.0801   C.3       1 RES1   0.0000
   228 C85      -5.4237    0.0873    2.6985   C.3       1 RES1   0.0000
   229 C86      -6.8375    2.0356    1.9558   C.3       1 RES1   0.0000
   230 C87      -5.7732    0.6774   -1.2279   C.3       1 RES1   0.0000
   231 C88      -6.7849   -0.4588   -1.4915   C.3       1 RES1   0.0000
   232 C89      -7.4462   -0.1538   -2.8360   C.3       1 RES1   0.0000
   233 C90      -7.8664   -0.5546   -0.4185   C.3       1 RES1   0.0000
   234 C91      -2.5796   -3.8693   -1.2413   C.ar      1 RES1   0.0000
   235 C92      -1.9175   -4.5004   -0.2015   C.ar      1 RES1   0.0000
   236 C93      -2.1094   -5.8520    0.0214   C.ar      1 RES1   0.0000
   237 C94      -2.9579   -6.5722   -0.8039   C.ar      1 RES1   0.0000
   238 C95      -3.6631   -5.9309   -1.8129   C.ar      1 RES1   0.0000
   239 C96      -3.4755   -4.5798   -2.0315   C.ar      1 RES1   0.0000
   240 H127      5.8103   -4.6033   -6.0109   H         1 RES1   0.0000
   241 H128      5.3031   -3.6484   -4.6228   H         1 RES1   0.0000
   242 H129      5.9366   -5.2771   -4.3897   H         1 RES1   0.0000
   243 H130      3.4590   -5.3135   -4.1873   H         1 RES1   0.0000
   244 H131      3.9962   -6.2352   -5.5918   H         1 RES1   0.0000
   245 H132      3.5589   -4.2376   -7.0371   H         1 RES1   0.0000
   246 H133      2.9031   -3.3865   -5.6424   H         1 RES1   0.0000
   247 H134      1.8558   -6.0354   -6.7309   H         1 RES1   0.0000
   248 H135      1.2029   -4.4694   -7.1926   H         1 RES1   0.0000
   249 H136      1.2190   -5.4145   -4.2956   H         1 RES1   0.0000
   250 H137     -0.0746   -5.7952   -5.4238   H         1 RES1   0.0000
   251 H138     -0.4971   -3.3995   -5.8207   H         1 RES1   0.0000
   252 H139      0.8098   -2.9674   -4.7215   H         1 RES1   0.0000
   253 H140     -0.4204   -4.1018   -2.8449   H         1 RES1   0.0000
   254 H141     -1.6759   -4.5628   -3.9761   H         1 RES1   0.0000
   255 H142     -2.4990   -2.3359   -4.1655   H         1 RES1   0.0000
   256 H143     -0.9196   -1.6380   -3.7520   H         1 RES1   0.0000
   257 H144     -4.4075   -1.6534   -1.7542   H         1 RES1   0.0000
   258 H145     -3.4394   -0.4788   -2.6354   H         1 RES1   0.0000
   259 H146     -4.8512    2.5402    0.2912   H         1 RES1   0.0000
   260 H147     -3.5573    1.6121    1.0582   H         1 RES1   0.0000
   261 H148     -4.8798    2.1489    2.7638   H         1 RES1   0.0000
   262 H149     -6.1965   -0.5267    2.2505   H         1 RES1   0.0000
   263 H150     -5.6358    0.1430    3.7641   H         1 RES1   0.0000
   264 H151     -4.4645   -0.4070    2.5624   H         1 RES1   0.0000
   265 H152     -7.4431    1.4212    1.3010   H         1 RES1   0.0000
   266 H153     -6.8262    3.0572    1.5808   H         1 RES1   0.0000
   267 H154     -7.3106    2.0455    2.9339   H         1 RES1   0.0000
   268 H155     -5.3196    0.9512   -2.1877   H         1 RES1   0.0000
   269 H156     -6.3625    1.5331   -0.8978   H         1 RES1   0.0000
   270 H157     -6.2852   -1.4262   -1.5682   H         1 RES1   0.0000
   271 H158     -7.9452    0.8104   -2.7874   H         1 RES1   0.0000
   272 H159     -8.1930   -0.9056   -3.0709   H         1 RES1   0.0000
   273 H160     -6.7205   -0.1283   -3.6469   H         1 RES1   0.0000
   274 H161     -8.4882    0.3387   -0.4268   H         1 RES1   0.0000
   275 H162     -7.4403   -0.6913    0.5707   H         1 RES1   0.0000
   276 H163     -8.5088   -1.4075   -0.6189   H         1 RES1   0.0000
   277 H164     -1.2682   -3.9002    0.4153   H         1 RES1   0.0000
   278 H165     -1.5994   -6.3517    0.8307   H         1 RES1   0.0000
   279 H166     -3.0786   -7.6331   -0.6543   H         1 RES1   0.0000
   280 H167     -4.3552   -6.4859   -2.4257   H         1 RES1   0.0000
   281 H168     -4.0240   -4.0742   -2.8104   H         1 RES1   0.0000
   282 O9       -0.7963    2.0752    1.2657   O.3       1 RES1   0.0000
   283 H169     -1.7352    1.8726    1.3739   H         1 RES1   0.0000
   284 H170     -0.3978    2.0254    2.1479   H         1 RES1   0.0000
@<TRIPOS>BOND
     1     1    11    1
     2     1    14    1
     3     1    81    1
     4     1    84    1
     5     1   151    1
     6     1   154    1
     7     1   221    1
     8     1   224    1
     9     1   282    1
    10     2     3    1
    11     2    30    1
    12     2    31    1
    13     2    32    1
    14     3     4    1
    15     3    33    1
    16     3    34    1
    17     4     5    1
    18     4    35    1
    19     4    36    1
    20     5     6    1
    21     5    37    1
    22     5    38    1
    23     6     7    1
    24     6    39    1
    25     6    40    1
    26     7     8    1
    27     7    41    1
    28     7    42    1
    29     8     9    1
    30     8    43    1
    31     8    44    1
    32     9    10    1
    33     9    45    1
    34     9    46    1
    35    10    11    2
    36    10    12    1
    37    10    24    1
    38    12    13    1
    39    12    47    1
    40    12    48    1
    41    13    14    2
    42    13    15    1
    43    15    16    1
    44    15    20    1
    45    16    17    1
    46    16    49    1
    47    16    50    1
    48    17    18    1
    49    17    19    1
    50    17    51    1
    51    18    52    1
    52    18    53    1
    53    18    54    1
    54    19    55    1
    55    19    56    1
    56    19    57    1
    57    20    21    1
    58    20    58    1
    59    20    59    1
    60    21    22    1
    61    21    23    1
    62    21    60    1
    63    22    61    1
    64    22    62    1
    65    22    63    1
    66    23    64    1
    67    23    65    1
    68    23    66    1
    69    24    25    1
    70    24    29    2
    71    25    26    2
    72    25    67    1
    73    26    27    1
    74    26    68    1
    75    27    28    2
    76    27    69    1
    77    28    29    1
    78    28    70    1
    79    29    71    1
    80    72    73    1
    81    72   100    1
    82    72   101    1
    83    72   102    1
    84    73    74    1
    85    73   103    1
    86    73   104    1
    87    74    75    1
    88    74   105    1
    89    74   106    1
    90    75    76    1
    91    75   107    1
    92    75   108    1
    93    76    77    1
    94    76   109    1
    95    76   110    1
    96    77    78    1
    97    77   111    1
    98    77   112    1
    99    78    79    1
   100    78   113    1
   101    78   114    1
   102    79    80    1
   103    79   115    1
   104    79   116    1
   105    80    81    2
   106    80    82    1
   107    80    94    1
   108    82    83    1
   109    82   117    1
   110    82   118    1
   111    83    84    2
   112    83    85    1
   113    85    86    1
   114    85    90    1
   115    86    87    1
   116    86   119    1
   117    86   120    1
   118    87    88    1
   119    87    89    1
   120    87   121    1
   121    88   122    1
   122    88   123    1
   123    88   124    1
   124    89   125    1
   125    89   126    1
   126    89   127    1
   127    90    91    1
   128    90   128    1
   129    90   129    1
   130    91    92    1
   131    91    93    1
   132    91   130    1
   133    92   131    1
   134    92   132    1
   135    92   133    1
   136    93   134    1
   137    93   135    1
   138    93   136    1
   139    94    95    1
   140    94    99    2
   141    95    96    2
   142    95   137    1
   143    96    97    1
   144    96   138    1
   145    97    98    2
   146    97   139    1
   147    98    99    1
   148    98   140    1
   149    99   141    1
   150   142   143    1
   151   142   170    1
   152   142   171    1
   153   142   172    1
   154   143   144    1
   155   143   173    1
   156   143   174    1
   157   144   145    1
   158   144   175    1
   159   144   176    1
   160   145   146    1
   161   145   177    1
   162   145   178    1
   163   146   147    1
   164   146   179    1
   165   146   180    1
   166   147   148    1
   167   147   181    1
   168   147   182    1
   169   148   149    1
   170   148   183    1
   171   148   184    1
   172   149   150    1
   173   149   185    1
   174   149   186    1
   175   150   151    2
   176   150   152    1
   177   150   164    1
   178   152   153    1
   179   152   187    1
   180   152   188    1
   181   153   154    2
   182   153   155    1
   183   155   156    1
   184   155   160    1
   185   156   157    1
   186   156   189    1
   187   156   190    1
   188   157   158    1
   189   157   159    1
   190   157   191    1
   191   158   192    1
   192   158   193    1
   193   158   194    1
   194   159   195    1
   195   159   196    1
   196   159   197    1
   197   160   161    1
   198   160   198    1
   199   160   199    1
   200   161   162    1
   201   161   163    1
   202   161   200    1
   203   162   201    1
   204   162   202    1
   205   162   203    1
   206   163   204    1
   207   163   205    1
   208   163   206    1
   209   164   165    1
   210   164   169    2
   211   165   166    2
   212   165   207    1
   213   166   167    1
   214   166   208    1
   215   167   168    2
   216   167   209    1
   217   168   169    1
   218   168   210    1
   219   169   211    1
   220   212   213    1
   221   212   240    1
   222   212   241    1
   223   212   242    1
   224   213   214    1
   225   213   243    1
   226   213   244    1
   227   214   215    1
   228   214   245    1
   229   214   246    1
   230   215   216    1
   231   215   247    1
   232   215   248    1
   233   216   217    1
   234   216   249    1
   235   216   250    1
   236   217   218    1
   237   217   251    1
   238   217   252    1
   239   218   219    1
   240   218   253    1
   241   218   254    1
   242   219   220    1
   243   219   255    1
   244   219   256    1
   245   220   221    2
   246   220   222    1
   247   220   234    1
   248   222   223    1
   249   222   257    1
   250   222   258    1
   251   223   224    2
   252   223   225    1
   253   225   226    1
   254   225   230    1
   255   226   227    1
   256   226   259    1
   257   226   260    1
   258   227   228    1
   259   227   229    1
   260   227   261    1
   261   228   262    1
   262   228   263    1
   263   228   264    1
   264   229   265    1
   265   229   266    1
   266   229   267    1
   267   230   231    1
   268   230   268    1
   269   230   269    1
   270   231   232    1
   271   231   233    1
   272   231   270    1
   273   232   271    1
   274   232   272    1
   275   232   273    1
   276   233   274    1
   277   233   275    1
   278   233   276    1
   279   234   235    1
   280   234   239    2
   281   235   236    2
   282   235   277    1
   283   236   237    1
   284   236   278    1
   285   237   238    2
   286   237   279    1
   287   238   239    1
   288   238   280    1
   289   239   281    1
   290   282   283    1
   291   282   284    1
@<TRIPOS>SUBSTRUCTURE
     1 RES1      284 GROUP             0 ****  ****    0  
