@<TRIPOS>MOLECULE
capped_square_antiprismatic_0_nunpairedes_0_charge_3 Charge: 3 Unpaired_Electrons: 6 XTB_Unpaired_Electrons: 0 XTB_Charge: 3
   344   347     1     0     0
SMALL
NoCharges
****
Generated from Architector

@<TRIPOS>ATOM
     1 Eu1       0.0984   -0.0165   -0.2903   Eu        1 RES1   0.0000
     2 C1        2.6116    4.8072    7.2303   C.3       1 RES1   0.0000
     3 C2        3.4934    5.4361    6.1540   C.3       1 RES1   0.0000
     4 C3        2.8130    6.4960    5.2820   C.3       1 RES1   0.0000
     5 C4        1.9668    5.9761    4.1196   C.3       1 RES1   0.0000
     6 C5        0.6741    5.3235    4.5997   C.3       1 RES1   0.0000
     7 C6       -0.4436    5.2771    3.5600   C.3       1 RES1   0.0000
     8 C7       -1.6828    4.5838    4.1610   C.3       1 RES1   0.0000
     9 C8       -2.1587    3.4060    3.3141   C.3       1 RES1   0.0000
    10 N1       -2.4799    3.8026    1.9474   N.am      1 RES1   0.0000
    11 C9       -3.2474    5.0261    1.8204   C.3       1 RES1   0.0000
    12 C10      -2.0306    3.0354    0.9525   C.2       1 RES1   0.0000
    13 O1       -1.4734    1.9438    1.1631   O.2       1 RES1   0.0000
    14 C11      -2.1972    3.5126   -0.4861   C.3       1 RES1   0.0000
    15 C12      -0.8538    4.1971   -0.8640   C.3       1 RES1   0.0000
    16 C13      -1.0232    5.3377   -1.8906   C.3       1 RES1   0.0000
    17 C14      -0.3474    6.7038   -1.6404   C.3       1 RES1   0.0000
    18 C15       1.1070    6.9049   -2.0915   C.3       1 RES1   0.0000
    19 C16       1.3498    6.9845   -3.6068   C.3       1 RES1   0.0000
    20 C17       0.8882    8.2740   -4.2781   C.3       1 RES1   0.0000
    21 C18      -2.5812    2.2422   -1.2676   C.2       1 RES1   0.0000
    22 O2       -1.7302    1.4157   -1.6281   O.2       1 RES1   0.0000
    23 N2       -3.9031    2.0267   -1.4057   N.am      1 RES1   0.0000
    24 C19      -4.8732    2.7332   -0.5853   C.3       1 RES1   0.0000
    25 C20      -4.5050    1.0694   -2.3465   C.3       1 RES1   0.0000
    26 C21      -3.7299    0.8809   -3.6532   C.3       1 RES1   0.0000
    27 C22      -4.5523    0.1386   -4.7327   C.3       1 RES1   0.0000
    28 C23      -4.5879    0.8260   -6.1078   C.3       1 RES1   0.0000
    29 C24      -5.9171    1.5234   -6.3897   C.3       1 RES1   0.0000
    30 C25      -5.8407    2.4988   -7.5640   C.3       1 RES1   0.0000
    31 C26      -7.1023    3.3627   -7.6402   C.3       1 RES1   0.0000
    32 C27      -6.8893    4.6615   -8.4048   C.3       1 RES1   0.0000
    33 H1        1.8497    4.1510    6.8154   H         1 RES1   0.0000
    34 H2        2.1166    5.5819    7.8095   H         1 RES1   0.0000
    35 H3        3.2264    4.2224    7.9108   H         1 RES1   0.0000
    36 H4        3.9181    4.6567    5.5166   H         1 RES1   0.0000
    37 H5        4.3271    5.9221    6.6630   H         1 RES1   0.0000
    38 H6        3.5911    7.1307    4.8618   H         1 RES1   0.0000
    39 H7        2.1892    7.1284    5.9139   H         1 RES1   0.0000
    40 H8        2.5442    5.2642    3.5227   H         1 RES1   0.0000
    41 H9        1.7203    6.8211    3.4730   H         1 RES1   0.0000
    42 H10       0.2917    5.8746    5.4603   H         1 RES1   0.0000
    43 H11       0.8851    4.3004    4.9191   H         1 RES1   0.0000
    44 H12      -0.1102    4.7330    2.6691   H         1 RES1   0.0000
    45 H13      -0.6858    6.2971    3.2491   H         1 RES1   0.0000
    46 H14      -2.4876    5.3006    4.3226   H         1 RES1   0.0000
    47 H15      -1.4405    4.1832    5.1462   H         1 RES1   0.0000
    48 H16      -3.0400    2.9388    3.7707   H         1 RES1   0.0000
    49 H17      -1.3662    2.6560    3.2305   H         1 RES1   0.0000
    50 H18      -3.9462    5.0855    2.6532   H         1 RES1   0.0000
    51 H19      -2.5989    5.9005    1.8533   H         1 RES1   0.0000
    52 H20      -3.8329    5.0564    0.9083   H         1 RES1   0.0000
    53 H21      -2.9888    4.2517   -0.5746   H         1 RES1   0.0000
    54 H22      -0.1778    3.4135   -1.2090   H         1 RES1   0.0000
    55 H23      -0.4237    4.5998    0.0528   H         1 RES1   0.0000
    56 H24      -2.0884    5.5540   -1.9724   H         1 RES1   0.0000
    57 H25      -0.7139    4.9734   -2.8633   H         1 RES1   0.0000
    58 H26      -0.4169    6.9621   -0.5819   H         1 RES1   0.0000
    59 H27      -0.9540    7.4328   -2.1769   H         1 RES1   0.0000
    60 H28       1.7340    6.1213   -1.6561   H         1 RES1   0.0000
    61 H29       1.4481    7.8479   -1.6615   H         1 RES1   0.0000
    62 H30       0.8652    6.1536   -4.1157   H         1 RES1   0.0000
    63 H31       2.4274    6.8899   -3.7615   H         1 RES1   0.0000
    64 H32      -0.1949    8.3706   -4.2678   H         1 RES1   0.0000
    65 H33       1.2175    8.2699   -5.3148   H         1 RES1   0.0000
    66 H34       1.3292    9.1405   -3.7958   H         1 RES1   0.0000
    67 H35      -4.4753    2.8783    0.4166   H         1 RES1   0.0000
    68 H36      -5.7787    2.1359   -0.4967   H         1 RES1   0.0000
    69 H37      -5.1482    3.6999   -1.0098   H         1 RES1   0.0000
    70 H38      -5.4913    1.4781   -2.5822   H         1 RES1   0.0000
    71 H39      -4.6660    0.1077   -1.8432   H         1 RES1   0.0000
    72 H40      -2.8055    0.3414   -3.4333   H         1 RES1   0.0000
    73 H41      -3.4633    1.8730   -4.0155   H         1 RES1   0.0000
    74 H42      -5.5782   -0.0023   -4.3931   H         1 RES1   0.0000
    75 H43      -4.1405   -0.8563   -4.8699   H         1 RES1   0.0000
    76 H44      -4.4040    0.0897   -6.8902   H         1 RES1   0.0000
    77 H45      -3.7844    1.5578   -6.1731   H         1 RES1   0.0000
    78 H46      -6.2342    2.0758   -5.5030   H         1 RES1   0.0000
    79 H47      -6.6810    0.7718   -6.5883   H         1 RES1   0.0000
    80 H48      -5.7084    1.9533   -8.5001   H         1 RES1   0.0000
    81 H49      -4.9678    3.1459   -7.4420   H         1 RES1   0.0000
    82 H50      -7.4328    3.6093   -6.6283   H         1 RES1   0.0000
    83 H51      -7.9021    2.7866   -8.1046   H         1 RES1   0.0000
    84 H52      -6.1357    5.2777   -7.9189   H         1 RES1   0.0000
    85 H53      -7.8130    5.2303   -8.4460   H         1 RES1   0.0000
    86 H54      -6.5670    4.4620   -9.4206   H         1 RES1   0.0000
    87 C28      -3.6451   -2.4518   -2.5125   C.3       1 RES1   0.0000
    88 C29      -4.9548   -3.1722   -2.2070   C.3       1 RES1   0.0000
    89 C30      -5.2019   -4.3838   -3.1112   C.3       1 RES1   0.0000
    90 C31      -4.6235   -5.6957   -2.5869   C.3       1 RES1   0.0000
    91 C32      -3.0993   -5.6681   -2.5357   C.3       1 RES1   0.0000
    92 C33      -2.4837   -7.0044   -2.1415   C.3       1 RES1   0.0000
    93 C34      -0.9546   -6.9481   -2.1123   C.3       1 RES1   0.0000
    94 C35      -0.3525   -5.9614   -1.1003   C.3       1 RES1   0.0000
    95 N3       -0.3450   -4.5311   -1.4441   N.am      1 RES1   0.0000
    96 C36      -0.1419   -4.1357   -2.8300   C.3       1 RES1   0.0000
    97 C37      -0.2994   -3.5210   -0.5642   C.2       1 RES1   0.0000
    98 O3       -0.2948   -2.3340   -0.9632   O.2       1 RES1   0.0000
    99 C38      -0.2676   -3.8258    0.9253   C.3       1 RES1   0.0000
   100 C39      -1.4647   -3.1750    1.6602   C.3       1 RES1   0.0000
   101 C40      -2.8351   -3.4729    1.0553   C.3       1 RES1   0.0000
   102 C41      -3.3244   -4.9054    1.2859   C.3       1 RES1   0.0000
   103 C42      -4.2853   -5.0201    2.4716   C.3       1 RES1   0.0000
   104 C43      -3.6738   -4.5954    3.8090   C.3       1 RES1   0.0000
   105 C44      -2.5392   -5.5112    4.2655   C.3       1 RES1   0.0000
   106 C45       0.9476   -3.1587    1.5759   C.2       1 RES1   0.0000
   107 O4        1.2352   -1.9983    1.2351   O.2       1 RES1   0.0000
   108 N4        1.5805   -3.7884    2.5784   N.am      1 RES1   0.0000
   109 C46       1.4413   -5.1800    2.9685   C.3       1 RES1   0.0000
   110 C47       2.5009   -3.0404    3.4486   C.3       1 RES1   0.0000
   111 C48       3.9030   -3.6613    3.5774   C.3       1 RES1   0.0000
   112 C49       4.9128   -2.7291    4.2893   C.3       1 RES1   0.0000
   113 C50       5.6898   -3.4040    5.4359   C.3       1 RES1   0.0000
   114 C51       7.1687   -3.0110    5.4717   C.3       1 RES1   0.0000
   115 C52       7.4556   -1.6177    6.0354   C.3       1 RES1   0.0000
   116 C53       7.4210   -1.5631    7.5645   C.3       1 RES1   0.0000
   117 C54       7.7503   -0.1712    8.1017   C.3       1 RES1   0.0000
   118 H55      -2.7873   -3.0929   -2.3611   H         1 RES1   0.0000
   119 H56      -3.6415   -2.1330   -3.5498   H         1 RES1   0.0000
   120 H57      -3.5171   -1.5735   -1.8829   H         1 RES1   0.0000
   121 H58      -5.7692   -2.4622   -2.3522   H         1 RES1   0.0000
   122 H59      -4.9923   -3.4892   -1.1634   H         1 RES1   0.0000
   123 H60      -4.7950   -4.1814   -4.1006   H         1 RES1   0.0000
   124 H61      -6.2733   -4.5132   -3.2415   H         1 RES1   0.0000
   125 H62      -4.9428   -6.5039   -3.2471   H         1 RES1   0.0000
   126 H63      -5.0273   -5.8947   -1.5912   H         1 RES1   0.0000
   127 H64      -2.7828   -4.9296   -1.7984   H         1 RES1   0.0000
   128 H65      -2.7263   -5.3811   -3.5229   H         1 RES1   0.0000
   129 H66      -2.7792   -7.7751   -2.8554   H         1 RES1   0.0000
   130 H67      -2.8623   -7.3018   -1.1609   H         1 RES1   0.0000
   131 H68      -0.5735   -6.7759   -3.1170   H         1 RES1   0.0000
   132 H69      -0.5867   -7.9318   -1.8162   H         1 RES1   0.0000
   133 H70       0.6806   -6.2754   -0.9166   H         1 RES1   0.0000
   134 H71      -0.9225   -6.0956   -0.1817   H         1 RES1   0.0000
   135 H72      -0.2735   -4.9743   -3.5052   H         1 RES1   0.0000
   136 H73       0.8680   -3.7326   -2.9295   H         1 RES1   0.0000
   137 H74      -0.8532   -3.3506   -3.0830   H         1 RES1   0.0000
   138 H75      -0.2509   -4.8939    1.0891   H         1 RES1   0.0000
   139 H76      -1.3069   -2.0914    1.6622   H         1 RES1   0.0000
   140 H77      -1.4395   -3.5354    2.6856   H         1 RES1   0.0000
   141 H78      -2.8045   -3.2529   -0.0094   H         1 RES1   0.0000
   142 H79      -3.5550   -2.7891    1.5112   H         1 RES1   0.0000
   143 H80      -2.4780   -5.5729    1.4417   H         1 RES1   0.0000
   144 H81      -3.8454   -5.2633    0.3997   H         1 RES1   0.0000
   145 H82      -4.6307   -6.0530    2.5477   H         1 RES1   0.0000
   146 H83      -5.1642   -4.3995    2.2761   H         1 RES1   0.0000
   147 H84      -4.4593   -4.6105    4.5671   H         1 RES1   0.0000
   148 H85      -3.3269   -3.5584    3.7379   H         1 RES1   0.0000
   149 H86      -2.9289   -6.4987    4.4999   H         1 RES1   0.0000
   150 H87      -2.0746   -5.1048    5.1601   H         1 RES1   0.0000
   151 H88      -1.7702   -5.6251    3.5021   H         1 RES1   0.0000
   152 H89       0.7944   -5.7366    2.3033   H         1 RES1   0.0000
   153 H90       1.0563   -5.2553    3.9879   H         1 RES1   0.0000
   154 H91       2.4207   -5.6575    2.9359   H         1 RES1   0.0000
   155 H92       2.0418   -2.9782    4.4454   H         1 RES1   0.0000
   156 H93       2.5610   -2.0308    3.0356   H         1 RES1   0.0000
   157 H94       4.2709   -3.9056    2.5766   H         1 RES1   0.0000
   158 H95       3.8340   -4.5930    4.1417   H         1 RES1   0.0000
   159 H96       4.3937   -1.8511    4.6793   H         1 RES1   0.0000
   160 H97       5.6339   -2.3786    3.5493   H         1 RES1   0.0000
   161 H98       5.6423   -4.4865    5.3209   H         1 RES1   0.0000
   162 H99       5.2276   -3.1644    6.3926   H         1 RES1   0.0000
   163 H100      7.5681   -3.0754    4.4590   H         1 RES1   0.0000
   164 H101      7.7069   -3.7440    6.0696   H         1 RES1   0.0000
   165 H102      8.4449   -1.2963    5.7037   H         1 RES1   0.0000
   166 H103      6.7364   -0.9075    5.6218   H         1 RES1   0.0000
   167 H104      8.1485   -2.2761    7.9566   H         1 RES1   0.0000
   168 H105      6.4379   -1.8725    7.9316   H         1 RES1   0.0000
   169 H106      8.7950    0.0714    7.9218   H         1 RES1   0.0000
   170 H107      7.5716   -0.1325    9.1736   H         1 RES1   0.0000
   171 H108      7.1382    0.5911    7.6227   H         1 RES1   0.0000
   172 C55      -4.3305   -4.4844    7.6353   C.3       1 RES1   0.0000
   173 C56      -3.0260   -3.6962    7.7155   C.3       1 RES1   0.0000
   174 C57      -1.8414   -4.5991    8.0597   C.3       1 RES1   0.0000
   175 C58      -0.5093   -3.8582    8.1937   C.3       1 RES1   0.0000
   176 C59       0.0902   -3.3693    6.8667   C.3       1 RES1   0.0000
   177 C60      -0.2287   -1.9067    6.4963   C.3       1 RES1   0.0000
   178 C61      -0.7404   -1.7742    5.0579   C.3       1 RES1   0.0000
   179 C62      -1.2325   -0.3712    4.6777   C.3       1 RES1   0.0000
   180 N5       -0.1311    0.5502    4.4231   N.am      1 RES1   0.0000
   181 C63       0.1779    1.4156    5.5467   C.3       1 RES1   0.0000
   182 C64       0.4571    0.4977    3.2183   C.2       1 RES1   0.0000
   183 O5       -0.0665   -0.1113    2.2726   O.2       1 RES1   0.0000
   184 C65       1.8146    1.2049    3.0554   C.3       1 RES1   0.0000
   185 C66       2.8350    0.7942    4.1199   C.3       1 RES1   0.0000
   186 C67       3.9409    1.8328    4.2786   C.3       1 RES1   0.0000
   187 C68       4.9269    1.5152    5.4041   C.3       1 RES1   0.0000
   188 C69       4.3285    1.3625    6.8122   C.3       1 RES1   0.0000
   189 C70       4.0174   -0.0842    7.2029   C.3       1 RES1   0.0000
   190 C71       3.5522   -0.2021    8.6485   C.3       1 RES1   0.0000
   191 C72       2.2468    1.1614    1.5867   C.2       1 RES1   0.0000
   192 O6        1.3947    1.5605    0.7631   O.2       1 RES1   0.0000
   193 N6        3.5160    0.9817    1.1530   N.am      1 RES1   0.0000
   194 C73       3.7529    1.5499   -0.1727   C.3       1 RES1   0.0000
   195 C74       4.4054   -0.1487    1.4246   C.3       1 RES1   0.0000
   196 C75       3.9975   -1.3570    0.5581   C.3       1 RES1   0.0000
   197 C76       5.1421   -2.1854   -0.0253   C.3       1 RES1   0.0000
   198 C77       4.6143   -3.1894   -1.0597   C.3       1 RES1   0.0000
   199 C78       4.1983   -4.5370   -0.4737   C.3       1 RES1   0.0000
   200 C79       3.2827   -5.3045   -1.4264   C.3       1 RES1   0.0000
   201 C80       3.9071   -5.6093   -2.7880   C.3       1 RES1   0.0000
   202 C81       2.9980   -6.4675   -3.6645   C.3       1 RES1   0.0000
   203 H109     -5.1631   -3.8227    7.4082   H         1 RES1   0.0000
   204 H110     -4.5359   -4.9795    8.5803   H         1 RES1   0.0000
   205 H111     -4.2774   -5.2460    6.8603   H         1 RES1   0.0000
   206 H112     -3.1168   -2.9303    8.4913   H         1 RES1   0.0000
   207 H113     -2.8537   -3.1920    6.7589   H         1 RES1   0.0000
   208 H114     -1.7428   -5.3872    7.3075   H         1 RES1   0.0000
   209 H115     -2.0555   -5.0941    9.0092   H         1 RES1   0.0000
   210 H116      0.1981   -4.5469    8.6538   H         1 RES1   0.0000
   211 H117     -0.6328   -3.0204    8.8793   H         1 RES1   0.0000
   212 H118     -0.2546   -4.0307    6.0701   H         1 RES1   0.0000
   213 H119      1.1720   -3.4828    6.9232   H         1 RES1   0.0000
   214 H120      0.6766   -1.3078    6.6194   H         1 RES1   0.0000
   215 H121     -0.9877   -1.5097    7.1719   H         1 RES1   0.0000
   216 H122     -1.5830   -2.4546    4.9224   H         1 RES1   0.0000
   217 H123      0.0361   -2.0605    4.3464   H         1 RES1   0.0000
   218 H124     -1.8362    0.0371    5.4867   H         1 RES1   0.0000
   219 H125     -1.8400   -0.4291    3.7710   H         1 RES1   0.0000
   220 H126     -0.7642    1.8157    5.9314   H         1 RES1   0.0000
   221 H127      0.8129    2.2471    5.2577   H         1 RES1   0.0000
   222 H128      0.6521    0.8537    6.3550   H         1 RES1   0.0000
   223 H129      1.5918    2.2757    3.1873   H         1 RES1   0.0000
   224 H130      3.2381   -0.1895    3.8954   H         1 RES1   0.0000
   225 H131      2.3377    0.7029    5.0775   H         1 RES1   0.0000
   226 H132      3.4759    2.7959    4.4902   H         1 RES1   0.0000
   227 H133      4.4991    1.9335    3.3469   H         1 RES1   0.0000
   228 H134      5.6542    2.3269    5.4262   H         1 RES1   0.0000
   229 H135      5.4718    0.6076    5.1450   H         1 RES1   0.0000
   230 H136      3.4365    1.9831    6.9150   H         1 RES1   0.0000
   231 H137      5.0546    1.7442    7.5330   H         1 RES1   0.0000
   232 H138      4.9228   -0.6729    7.0715   H         1 RES1   0.0000
   233 H139      3.2561   -0.5127    6.5451   H         1 RES1   0.0000
   234 H140      4.3438    0.0960    9.3276   H         1 RES1   0.0000
   235 H141      3.2783   -1.2284    8.8747   H         1 RES1   0.0000
   236 H142      2.6884    0.4311    8.8328   H         1 RES1   0.0000
   237 H143      3.3027    2.5391   -0.2217   H         1 RES1   0.0000
   238 H144      3.2998    0.9513   -0.9670   H         1 RES1   0.0000
   239 H145      4.8269    1.6284   -0.3217   H         1 RES1   0.0000
   240 H146      4.3955   -0.4043    2.4774   H         1 RES1   0.0000
   241 H147      5.4267    0.1516    1.1775   H         1 RES1   0.0000
   242 H148      3.3925   -0.9933   -0.2745   H         1 RES1   0.0000
   243 H149      3.3413   -2.0204    1.1091   H         1 RES1   0.0000
   244 H150      5.6704   -2.7239    0.7615   H         1 RES1   0.0000
   245 H151      5.8663   -1.5269   -0.5047   H         1 RES1   0.0000
   246 H152      5.3879   -3.3616   -1.8055   H         1 RES1   0.0000
   247 H153      3.7531   -2.7549   -1.5733   H         1 RES1   0.0000
   248 H154      3.6560   -4.3830    0.4621   H         1 RES1   0.0000
   249 H155      5.0870   -5.1274   -0.2513   H         1 RES1   0.0000
   250 H156      2.3762   -4.7121   -1.5752   H         1 RES1   0.0000
   251 H157      2.9982   -6.2483   -0.9573   H         1 RES1   0.0000
   252 H158      4.8535   -6.1304   -2.6400   H         1 RES1   0.0000
   253 H159      4.1223   -4.6751   -3.3104   H         1 RES1   0.0000
   254 H160      2.7526   -7.4019   -3.1645   H         1 RES1   0.0000
   255 H161      3.5004   -6.7063   -4.5991   H         1 RES1   0.0000
   256 H162      2.0714   -5.9433   -3.8960   H         1 RES1   0.0000
   257 C82      -7.3891    3.9141   -3.1427   C.3       1 RES1   0.0000
   258 C83      -6.8852    5.1198   -3.9303   C.3       1 RES1   0.0000
   259 C84      -5.3704    5.3427   -3.8298   C.3       1 RES1   0.0000
   260 C85      -4.5448    4.3567   -4.6589   C.3       1 RES1   0.0000
   261 C86      -3.0297    4.5151   -4.4645   C.3       1 RES1   0.0000
   262 C87      -2.1949    3.9223   -5.6125   C.3       1 RES1   0.0000
   263 C88      -0.6603    4.1191   -5.4870   C.3       1 RES1   0.0000
   264 C89       0.2394    2.8609   -5.3394   C.3       1 RES1   0.0000
   265 N7        0.8360    2.7052   -4.0165   N.am      1 RES1   0.0000
   266 C90       1.7721    3.6962   -3.5062   C.3       1 RES1   0.0000
   267 C91       0.8274    1.5460   -3.3287   C.2       1 RES1   0.0000
   268 O7        0.8721    1.5426   -2.0879   O.2       1 RES1   0.0000
   269 C92       1.1283    0.2768   -4.1221   C.3       1 RES1   0.0000
   270 C93       0.0442   -0.8066   -4.1722   C.3       1 RES1   0.0000
   271 C94      -0.8207   -0.7266   -5.4342   C.3       1 RES1   0.0000
   272 C95      -0.0507   -0.8705   -6.7606   C.3       1 RES1   0.0000
   273 C96      -0.1729   -2.2472   -7.4170   C.3       1 RES1   0.0000
   274 C97       0.4290   -3.3907   -6.5992   C.3       1 RES1   0.0000
   275 C98       1.9291   -3.2383   -6.3573   C.3       1 RES1   0.0000
   276 C99       2.3500   -0.2241   -3.3293   C.2       1 RES1   0.0000
   277 O8        2.1526   -0.6873   -2.1900   O.2       1 RES1   0.0000
   278 N8        3.5665   -0.0685   -3.8654   N.am      1 RES1   0.0000
   279 C100      3.8344    0.2985   -5.2477   C.3       1 RES1   0.0000
   280 C101      4.7898   -0.3638   -3.1178   C.3       1 RES1   0.0000
   281 C102      5.7338    0.8472   -3.0211   C.3       1 RES1   0.0000
   282 C103      6.9478    0.5622   -2.1261   C.3       1 RES1   0.0000
   283 C104      7.8705   -0.5080   -2.7118   C.3       1 RES1   0.0000
   284 C105      9.1047   -0.7995   -1.8533   C.3       1 RES1   0.0000
   285 C106      8.8962   -1.8220   -0.7333   C.3       1 RES1   0.0000
   286 C107      8.6812   -3.2471   -1.2471   C.3       1 RES1   0.0000
   287 C108      8.5838   -4.2631   -0.1127   C.3       1 RES1   0.0000
   288 H163     -8.4369    3.7233   -3.3609   H         1 RES1   0.0000
   289 H164     -7.3000    4.0946   -2.0729   H         1 RES1   0.0000
   290 H165     -6.8294    3.0181   -3.4021   H         1 RES1   0.0000
   291 H166     -7.3950    6.0086   -3.5522   H         1 RES1   0.0000
   292 H167     -7.1664    5.0112   -4.9785   H         1 RES1   0.0000
   293 H168     -5.0774    5.3035   -2.7757   H         1 RES1   0.0000
   294 H169     -5.1621    6.3512   -4.1848   H         1 RES1   0.0000
   295 H170     -4.8029    4.5055   -5.7058   H         1 RES1   0.0000
   296 H171     -4.8351    3.3430   -4.3946   H         1 RES1   0.0000
   297 H172     -2.7448    4.0321   -3.5269   H         1 RES1   0.0000
   298 H173     -2.7947    5.5791   -4.3918   H         1 RES1   0.0000
   299 H174     -2.5198    4.4190   -6.5284   H         1 RES1   0.0000
   300 H175     -2.4216    2.8611   -5.7303   H         1 RES1   0.0000
   301 H176     -0.4649    4.7845   -4.6521   H         1 RES1   0.0000
   302 H177     -0.3267    4.6438   -6.3812   H         1 RES1   0.0000
   303 H178      1.0325    2.9203   -6.0924   H         1 RES1   0.0000
   304 H179     -0.3517    1.9702   -5.5479   H         1 RES1   0.0000
   305 H180      2.2076    4.2393   -4.3415   H         1 RES1   0.0000
   306 H181      2.5686    3.1670   -2.9819   H         1 RES1   0.0000
   307 H182      1.3337    4.3895   -2.7999   H         1 RES1   0.0000
   308 H183      1.4149    0.5787   -5.1253   H         1 RES1   0.0000
   309 H184     -0.5853   -0.7184   -3.2731   H         1 RES1   0.0000
   310 H185      0.5393   -1.7763   -4.1492   H         1 RES1   0.0000
   311 H186     -1.3714    0.2145   -5.4376   H         1 RES1   0.0000
   312 H187     -1.5647   -1.5207   -5.3731   H         1 RES1   0.0000
   313 H188      1.0100   -0.6648   -6.6183   H         1 RES1   0.0000
   314 H189     -0.4291   -0.1355   -7.4733   H         1 RES1   0.0000
   315 H190      0.3251   -2.2029   -8.3879   H         1 RES1   0.0000
   316 H191     -1.2264   -2.4584   -7.6083   H         1 RES1   0.0000
   317 H192      0.2517   -4.3172   -7.1464   H         1 RES1   0.0000
   318 H193     -0.0973   -3.4695   -5.6449   H         1 RES1   0.0000
   319 H194      2.4288   -2.9566   -7.2811   H         1 RES1   0.0000
   320 H195      2.3502   -4.1782   -6.0117   H         1 RES1   0.0000
   321 H196      2.1373   -2.4826   -5.6011   H         1 RES1   0.0000
   322 H197      3.8251    1.3794   -5.3999   H         1 RES1   0.0000
   323 H198      3.1310   -0.1761   -5.9258   H         1 RES1   0.0000
   324 H199      4.8274   -0.0674   -5.5043   H         1 RES1   0.0000
   325 H200      5.2961   -1.1962   -3.6197   H         1 RES1   0.0000
   326 H201      4.5069   -0.6849   -2.1183   H         1 RES1   0.0000
   327 H202      5.1746    1.6988   -2.6215   H         1 RES1   0.0000
   328 H203      6.1089    1.1241   -4.0075   H         1 RES1   0.0000
   329 H204      6.6106    0.2723   -1.1288   H         1 RES1   0.0000
   330 H205      7.5154    1.4891   -2.0223   H         1 RES1   0.0000
   331 H206      8.2008   -0.1619   -3.6922   H         1 RES1   0.0000
   332 H207      7.3207   -1.4357   -2.8589   H         1 RES1   0.0000
   333 H208      9.4639    0.1332   -1.4197   H         1 RES1   0.0000
   334 H209      9.8910   -1.1730   -2.5069   H         1 RES1   0.0000
   335 H210      8.0588   -1.5251   -0.0982   H         1 RES1   0.0000
   336 H211      9.7883   -1.8186   -0.1043   H         1 RES1   0.0000
   337 H212      9.5195   -3.5133   -1.8940   H         1 RES1   0.0000
   338 H213      7.7694   -3.3012   -1.8495   H         1 RES1   0.0000
   339 H214      9.5034   -4.2772    0.4672   H         1 RES1   0.0000
   340 H215      8.4202   -5.2595   -0.5168   H         1 RES1   0.0000
   341 H216      7.7583   -4.0209    0.5557   H         1 RES1   0.0000
   342 O9       -2.3682   -0.4830    0.1970   O.3       1 RES1   0.0000
   343 H217     -3.2413   -0.8412   -0.0152   H         1 RES1   0.0000
   344 H218     -2.5077    0.2681    0.8000   H         1 RES1   0.0000
@<TRIPOS>BOND
     1     1    13    1
     2     1    22    1
     3     1    98    1
     4     1   107    1
     5     1   183    1
     6     1   192    1
     7     1   268    1
     8     1   277    1
     9     1   342    1
    10     2     3    1
    11     2    33    1
    12     2    34    1
    13     2    35    1
    14     3     4    1
    15     3    36    1
    16     3    37    1
    17     4     5    1
    18     4    38    1
    19     4    39    1
    20     5     6    1
    21     5    40    1
    22     5    41    1
    23     6     7    1
    24     6    42    1
    25     6    43    1
    26     7     8    1
    27     7    44    1
    28     7    45    1
    29     8     9    1
    30     8    46    1
    31     8    47    1
    32     9    10    1
    33     9    48    1
    34     9    49    1
    35    10    11    1
    36    10    12    1
    37    11    50    1
    38    11    51    1
    39    11    52    1
    40    12    13    2
    41    12    14    1
    42    14    15    1
    43    14    21    1
    44    14    53    1
    45    15    16    1
    46    15    54    1
    47    15    55    1
    48    16    17    1
    49    16    56    1
    50    16    57    1
    51    17    18    1
    52    17    58    1
    53    17    59    1
    54    18    19    1
    55    18    60    1
    56    18    61    1
    57    19    20    1
    58    19    62    1
    59    19    63    1
    60    20    64    1
    61    20    65    1
    62    20    66    1
    63    21    22    2
    64    21    23    1
    65    23    24    1
    66    23    25    1
    67    24    67    1
    68    24    68    1
    69    24    69    1
    70    25    26    1
    71    25    70    1
    72    25    71    1
    73    26    27    1
    74    26    72    1
    75    26    73    1
    76    27    28    1
    77    27    74    1
    78    27    75    1
    79    28    29    1
    80    28    76    1
    81    28    77    1
    82    29    30    1
    83    29    78    1
    84    29    79    1
    85    30    31    1
    86    30    80    1
    87    30    81    1
    88    31    32    1
    89    31    82    1
    90    31    83    1
    91    32    84    1
    92    32    85    1
    93    32    86    1
    94    87    88    1
    95    87   118    1
    96    87   119    1
    97    87   120    1
    98    88    89    1
    99    88   121    1
   100    88   122    1
   101    89    90    1
   102    89   123    1
   103    89   124    1
   104    90    91    1
   105    90   125    1
   106    90   126    1
   107    91    92    1
   108    91   127    1
   109    91   128    1
   110    92    93    1
   111    92   129    1
   112    92   130    1
   113    93    94    1
   114    93   131    1
   115    93   132    1
   116    94    95    1
   117    94   133    1
   118    94   134    1
   119    95    96    1
   120    95    97    1
   121    96   135    1
   122    96   136    1
   123    96   137    1
   124    97    98    2
   125    97    99    1
   126    99   100    1
   127    99   106    1
   128    99   138    1
   129   100   101    1
   130   100   139    1
   131   100   140    1
   132   101   102    1
   133   101   141    1
   134   101   142    1
   135   102   103    1
   136   102   143    1
   137   102   144    1
   138   103   104    1
   139   103   145    1
   140   103   146    1
   141   104   105    1
   142   104   147    1
   143   104   148    1
   144   105   149    1
   145   105   150    1
   146   105   151    1
   147   106   107    2
   148   106   108    1
   149   108   109    1
   150   108   110    1
   151   109   152    1
   152   109   153    1
   153   109   154    1
   154   110   111    1
   155   110   155    1
   156   110   156    1
   157   111   112    1
   158   111   157    1
   159   111   158    1
   160   112   113    1
   161   112   159    1
   162   112   160    1
   163   113   114    1
   164   113   161    1
   165   113   162    1
   166   114   115    1
   167   114   163    1
   168   114   164    1
   169   115   116    1
   170   115   165    1
   171   115   166    1
   172   116   117    1
   173   116   167    1
   174   116   168    1
   175   117   169    1
   176   117   170    1
   177   117   171    1
   178   172   173    1
   179   172   203    1
   180   172   204    1
   181   172   205    1
   182   173   174    1
   183   173   206    1
   184   173   207    1
   185   174   175    1
   186   174   208    1
   187   174   209    1
   188   175   176    1
   189   175   210    1
   190   175   211    1
   191   176   177    1
   192   176   212    1
   193   176   213    1
   194   177   178    1
   195   177   214    1
   196   177   215    1
   197   178   179    1
   198   178   216    1
   199   178   217    1
   200   179   180    1
   201   179   218    1
   202   179   219    1
   203   180   181    1
   204   180   182    1
   205   181   220    1
   206   181   221    1
   207   181   222    1
   208   182   183    2
   209   182   184    1
   210   184   185    1
   211   184   191    1
   212   184   223    1
   213   185   186    1
   214   185   224    1
   215   185   225    1
   216   186   187    1
   217   186   226    1
   218   186   227    1
   219   187   188    1
   220   187   228    1
   221   187   229    1
   222   188   189    1
   223   188   230    1
   224   188   231    1
   225   189   190    1
   226   189   232    1
   227   189   233    1
   228   190   234    1
   229   190   235    1
   230   190   236    1
   231   191   192    2
   232   191   193    1
   233   193   194    1
   234   193   195    1
   235   194   237    1
   236   194   238    1
   237   194   239    1
   238   195   196    1
   239   195   240    1
   240   195   241    1
   241   196   197    1
   242   196   242    1
   243   196   243    1
   244   197   198    1
   245   197   244    1
   246   197   245    1
   247   198   199    1
   248   198   246    1
   249   198   247    1
   250   199   200    1
   251   199   248    1
   252   199   249    1
   253   200   201    1
   254   200   250    1
   255   200   251    1
   256   201   202    1
   257   201   252    1
   258   201   253    1
   259   202   254    1
   260   202   255    1
   261   202   256    1
   262   257   258    1
   263   257   288    1
   264   257   289    1
   265   257   290    1
   266   258   259    1
   267   258   291    1
   268   258   292    1
   269   259   260    1
   270   259   293    1
   271   259   294    1
   272   260   261    1
   273   260   295    1
   274   260   296    1
   275   261   262    1
   276   261   297    1
   277   261   298    1
   278   262   263    1
   279   262   299    1
   280   262   300    1
   281   263   264    1
   282   263   301    1
   283   263   302    1
   284   264   265    1
   285   264   303    1
   286   264   304    1
   287   265   266    1
   288   265   267    1
   289   266   305    1
   290   266   306    1
   291   266   307    1
   292   267   268    2
   293   267   269    1
   294   269   270    1
   295   269   276    1
   296   269   308    1
   297   270   271    1
   298   270   309    1
   299   270   310    1
   300   271   272    1
   301   271   311    1
   302   271   312    1
   303   272   273    1
   304   272   313    1
   305   272   314    1
   306   273   274    1
   307   273   315    1
   308   273   316    1
   309   274   275    1
   310   274   317    1
   311   274   318    1
   312   275   319    1
   313   275   320    1
   314   275   321    1
   315   276   277    2
   316   276   278    1
   317   278   279    1
   318   278   280    1
   319   279   322    1
   320   279   323    1
   321   279   324    1
   322   280   281    1
   323   280   325    1
   324   280   326    1
   325   281   282    1
   326   281   327    1
   327   281   328    1
   328   282   283    1
   329   282   329    1
   330   282   330    1
   331   283   284    1
   332   283   331    1
   333   283   332    1
   334   284   285    1
   335   284   333    1
   336   284   334    1
   337   285   286    1
   338   285   335    1
   339   285   336    1
   340   286   287    1
   341   286   337    1
   342   286   338    1
   343   287   339    1
   344   287   340    1
   345   287   341    1
   346   342   343    1
   347   342   344    1
@<TRIPOS>SUBSTRUCTURE
     1 RES1      344 GROUP             0 ****  ****    0  
