@<TRIPOS>MOLECULE
cn9_YICLED_0_nunpairedes_0_charge_3 Charge: 3 Unpaired_Electrons: 6 XTB_Unpaired_Electrons: 0 XTB_Charge: 3
   226   234     1     0     0
SMALL
NoCharges
****
Generated from Architector

@<TRIPOS>ATOM
     1 Eu1      -0.0582    0.3389   -0.0305   Eu        1 RES1   0.0000
     2 C1       -3.2294   -4.2406   -3.1534   C.3       1 RES1   0.0000
     3 C2       -4.3270   -3.2493   -2.7894   C.3       1 RES1   0.0000
     4 C3       -5.4885   -3.8915   -2.0347   C.3       1 RES1   0.0000
     5 C4       -5.1419   -4.4315   -0.6468   C.3       1 RES1   0.0000
     6 C5       -4.8439   -3.3859    0.4368   C.3       1 RES1   0.0000
     7 C6       -4.7680   -4.0951    1.7925   C.3       1 RES1   0.0000
     8 C7       -4.8802   -3.2250    3.0489   C.3       1 RES1   0.0000
     9 C8       -3.5942   -2.5702    3.5761   C.3       1 RES1   0.0000
    10 N1       -3.1917   -1.3379    2.9011   N.am      1 RES1   0.0000
    11 C9       -4.1045   -0.2034    3.0615   C.3       1 RES1   0.0000
    12 C10      -3.9183    0.5451    4.3927   C.3       1 RES1   0.0000
    13 C11      -2.8087    1.5960    4.3363   C.3       1 RES1   0.0000
    14 C12      -3.1908    2.7804    3.4550   C.3       1 RES1   0.0000
    15 C13      -2.0885    3.8292    3.3626   C.3       1 RES1   0.0000
    16 C14      -0.7861    3.2974    2.7551   C.3       1 RES1   0.0000
    17 C15       0.0472    4.4117    2.1265   C.3       1 RES1   0.0000
    18 C16      -0.5275    4.8844    0.7971   C.3       1 RES1   0.0000
    19 C17      -2.0490   -1.1638    2.2515   C.2       1 RES1   0.0000
    20 O1       -1.7586   -0.1174    1.6329   O.2       1 RES1   0.0000
    21 C18      -1.0533   -2.3253    2.1879   C.3       1 RES1   0.0000
    22 O2        0.1905   -1.9298    1.6230   O.3       1 RES1   0.0000
    23 C19       1.2656   -1.7599    2.5325   C.3       1 RES1   0.0000
    24 C20       1.5984   -0.2828    2.7548   C.2       1 RES1   0.0000
    25 O3        1.0210    0.5862    2.0764   O.2       1 RES1   0.0000
    26 N2        2.5343    0.0076    3.6380   N.am      1 RES1   0.0000
    27 C21       2.8963    1.4000    3.9065   C.3       1 RES1   0.0000
    28 C22       4.1585    1.2945    4.7517   C.3       1 RES1   0.0000
    29 C23       3.9250   -0.0036    5.5183   C.3       1 RES1   0.0000
    30 C24       3.3159   -0.9147    4.4558   C.3       1 RES1   0.0000
    31 H1       -2.4806   -3.7692   -3.7895   H         1 RES1   0.0000
    32 H2       -3.6427   -5.0841   -3.6970   H         1 RES1   0.0000
    33 H3       -2.7371   -4.6227   -2.2642   H         1 RES1   0.0000
    34 H4       -4.7193   -2.8120   -3.7093   H         1 RES1   0.0000
    35 H5       -3.9054   -2.4480   -2.1819   H         1 RES1   0.0000
    36 H6       -5.8669   -4.7223   -2.6329   H         1 RES1   0.0000
    37 H7       -6.3009   -3.1674   -1.9404   H         1 RES1   0.0000
    38 H8       -4.2979   -5.1187   -0.7170   H         1 RES1   0.0000
    39 H9       -6.0008   -5.0153   -0.3117   H         1 RES1   0.0000
    40 H10      -5.6488   -2.6466    0.4584   H         1 RES1   0.0000
    41 H11      -3.9060   -2.8633    0.2246   H         1 RES1   0.0000
    42 H12      -3.8657   -4.7096    1.8337   H         1 RES1   0.0000
    43 H13      -5.6163   -4.7800    1.8344   H         1 RES1   0.0000
    44 H14      -5.2013   -3.8818    3.8596   H         1 RES1   0.0000
    45 H15      -5.6690   -2.4872    2.9014   H         1 RES1   0.0000
    46 H16      -2.8038   -3.3157    3.5211   H         1 RES1   0.0000
    47 H17      -3.7461   -2.3212    4.6316   H         1 RES1   0.0000
    48 H18      -5.1232   -0.5858    3.0016   H         1 RES1   0.0000
    49 H19      -3.9227    0.4839    2.2332   H         1 RES1   0.0000
    50 H20      -3.6908   -0.1755    5.1796   H         1 RES1   0.0000
    51 H21      -4.8589    1.0369    4.6587   H         1 RES1   0.0000
    52 H22      -1.8915    1.1378    3.9606   H         1 RES1   0.0000
    53 H23      -2.6108    1.9642    5.3444   H         1 RES1   0.0000
    54 H24      -4.0931    3.2449    3.8596   H         1 RES1   0.0000
    55 H25      -3.4131    2.4259    2.4459   H         1 RES1   0.0000
    56 H26      -1.8839    4.2208    4.3606   H         1 RES1   0.0000
    57 H27      -2.4641    4.6590    2.7616   H         1 RES1   0.0000
    58 H28      -0.9828    2.5321    1.9787   H         1 RES1   0.0000
    59 H29      -0.1999    2.8173    3.5415   H         1 RES1   0.0000
    60 H30       1.0546    4.0272    1.9630   H         1 RES1   0.0000
    61 H31       0.1107    5.2525    2.8203   H         1 RES1   0.0000
    62 H32      -0.6122    4.0458    0.1032   H         1 RES1   0.0000
    63 H33       0.1107    5.6392    0.3505   H         1 RES1   0.0000
    64 H34      -1.5075    5.3348    0.9275   H         1 RES1   0.0000
    65 H35      -1.4670   -3.0880    1.5174   H         1 RES1   0.0000
    66 H36      -0.8935   -2.7401    3.1855   H         1 RES1   0.0000
    67 H37       2.1479   -2.2421    2.0911   H         1 RES1   0.0000
    68 H38       1.0515   -2.2518    3.4863   H         1 RES1   0.0000
    69 H39       2.0821    1.8670    4.4678   H         1 RES1   0.0000
    70 H40       3.0247    1.9432    2.9683   H         1 RES1   0.0000
    71 H41       4.2813    2.1502    5.4065   H         1 RES1   0.0000
    72 H42       5.0469    1.2092    4.1263   H         1 RES1   0.0000
    73 H43       3.2017    0.1575    6.3164   H         1 RES1   0.0000
    74 H44       4.8265   -0.4243    5.9503   H         1 RES1   0.0000
    75 H45       2.6986   -1.7050    4.8870   H         1 RES1   0.0000
    76 H46       4.0892   -1.3767    3.8294   H         1 RES1   0.0000
    77 C25      -1.6213    6.4578   -4.8278   C.3       1 RES1   0.0000
    78 C26      -1.5475    5.1643   -4.0290   C.3       1 RES1   0.0000
    79 C27      -2.9032    4.4699   -3.8841   C.3       1 RES1   0.0000
    80 C28      -3.5486    4.0232   -5.2001   C.3       1 RES1   0.0000
    81 C29      -2.6934    3.0856   -6.0546   C.3       1 RES1   0.0000
    82 C30      -2.3057    1.7993   -5.3241   C.3       1 RES1   0.0000
    83 C31      -1.5361    0.8553   -6.2454   C.3       1 RES1   0.0000
    84 C32      -1.0259   -0.4118   -5.5485   C.3       1 RES1   0.0000
    85 N3       -0.1407   -0.0673   -4.4484   N.am      1 RES1   0.0000
    86 C33       1.1832    0.4412   -4.7928   C.3       1 RES1   0.0000
    87 C34       2.2815   -0.5496   -4.4033   C.3       1 RES1   0.0000
    88 C35       3.6580    0.0444   -4.6950   C.3       1 RES1   0.0000
    89 C36       4.8070   -0.8197   -4.1729   C.3       1 RES1   0.0000
    90 C37       6.1829   -0.1535   -4.2910   C.3       1 RES1   0.0000
    91 C38       6.5638    0.7752   -3.1340   C.3       1 RES1   0.0000
    92 C39       5.6931    2.0175   -2.9389   C.3       1 RES1   0.0000
    93 C40       5.6386    2.9288   -4.1582   C.3       1 RES1   0.0000
    94 C41      -0.5123   -0.0179   -3.1783   C.2       1 RES1   0.0000
    95 O4        0.2009    0.4770   -2.2865   O.2       1 RES1   0.0000
    96 C42      -1.8306   -0.6892   -2.7963   C.3       1 RES1   0.0000
    97 O5       -2.0177   -0.7123   -1.3826   O.3       1 RES1   0.0000
    98 C43      -3.1790   -0.0327   -0.9487   C.3       1 RES1   0.0000
    99 C44      -2.8816    1.4421   -0.6842   C.2       1 RES1   0.0000
   100 O6       -1.6956    1.8267   -0.6203   O.2       1 RES1   0.0000
   101 N4       -3.9137    2.2298   -0.4973   N.am      1 RES1   0.0000
   102 C45      -5.3171    1.8409   -0.5714   C.3       1 RES1   0.0000
   103 C46      -6.0399    3.0627   -0.0174   C.3       1 RES1   0.0000
   104 C47      -5.1618    4.2077   -0.5137   C.3       1 RES1   0.0000
   105 C48      -3.7558    3.6667   -0.2920   C.3       1 RES1   0.0000
   106 H47      -0.6522    6.9495   -4.8398   H         1 RES1   0.0000
   107 H48      -1.9147    6.2698   -5.8560   H         1 RES1   0.0000
   108 H49      -2.3423    7.1400   -4.3855   H         1 RES1   0.0000
   109 H50      -0.8342    4.4851   -4.4987   H         1 RES1   0.0000
   110 H51      -1.1691    5.3897   -3.0279   H         1 RES1   0.0000
   111 H52      -2.7839    3.5986   -3.2299   H         1 RES1   0.0000
   112 H53      -3.5921    5.1619   -3.3931   H         1 RES1   0.0000
   113 H54      -4.4956    3.5242   -4.9709   H         1 RES1   0.0000
   114 H55      -3.7914    4.9030   -5.7956   H         1 RES1   0.0000
   115 H56      -3.2614    2.8228   -6.9493   H         1 RES1   0.0000
   116 H57      -1.7910    3.6022   -6.3840   H         1 RES1   0.0000
   117 H58      -1.6870    2.0502   -4.4586   H         1 RES1   0.0000
   118 H59      -3.2164    1.3100   -4.9667   H         1 RES1   0.0000
   119 H60      -2.1742    0.5467   -7.0709   H         1 RES1   0.0000
   120 H61      -0.6905    1.3943   -6.6719   H         1 RES1   0.0000
   121 H62      -1.8643   -1.0072   -5.1879   H         1 RES1   0.0000
   122 H63      -0.4521   -1.0250   -6.2479   H         1 RES1   0.0000
   123 H64       1.2266    0.6329   -5.8629   H         1 RES1   0.0000
   124 H65       1.3531    1.3816   -4.2613   H         1 RES1   0.0000
   125 H66       2.1906   -0.7561   -3.3346   H         1 RES1   0.0000
   126 H67       2.1508   -1.4864   -4.9473   H         1 RES1   0.0000
   127 H68       3.7764    0.1719   -5.7713   H         1 RES1   0.0000
   128 H69       3.6888    1.0329   -4.2458   H         1 RES1   0.0000
   129 H70       4.6258   -1.0820   -3.1240   H         1 RES1   0.0000
   130 H71       4.8157   -1.7518   -4.7434   H         1 RES1   0.0000
   131 H72       6.9395   -0.9401   -4.3282   H         1 RES1   0.0000
   132 H73       6.2388    0.3874   -5.2355   H         1 RES1   0.0000
   133 H74       6.5747    0.1980   -2.1997   H         1 RES1   0.0000
   134 H75       7.5872    1.1091   -3.3129   H         1 RES1   0.0000
   135 H76       4.6810    1.7294   -2.6384   H         1 RES1   0.0000
   136 H77       6.1213    2.5892   -2.1174   H         1 RES1   0.0000
   137 H78       5.2145    2.4258   -5.0211   H         1 RES1   0.0000
   138 H79       5.0293    3.8063   -3.9462   H         1 RES1   0.0000
   139 H80       6.6380    3.2591   -4.4224   H         1 RES1   0.0000
   140 H81      -2.6722   -0.1978   -3.2907   H         1 RES1   0.0000
   141 H82      -1.7881   -1.7343   -3.1187   H         1 RES1   0.0000
   142 H83      -3.9919   -0.1411   -1.6747   H         1 RES1   0.0000
   143 H84      -3.4770   -0.5007   -0.0032   H         1 RES1   0.0000
   144 H85      -5.5851    1.6701   -1.6198   H         1 RES1   0.0000
   145 H86      -5.5210    0.9303   -0.0029   H         1 RES1   0.0000
   146 H87      -7.0639    3.1214   -0.3693   H         1 RES1   0.0000
   147 H88      -6.0485    3.0219    1.0716   H         1 RES1   0.0000
   148 H89      -5.3407    4.3766   -1.5759   H         1 RES1   0.0000
   149 H90      -5.3390    5.1332    0.0220   H         1 RES1   0.0000
   150 H91      -3.0151    4.0614   -0.9907   H         1 RES1   0.0000
   151 H92      -3.4066    3.8342    0.7296   H         1 RES1   0.0000
   152 C49       3.0912    9.6234   -2.3624   C.3       1 RES1   0.0000
   153 C50       2.1311    8.6124   -2.9711   C.3       1 RES1   0.0000
   154 C51       2.4105    7.1564   -2.5977   C.3       1 RES1   0.0000
   155 C52       2.0762    6.7768   -1.1521   C.3       1 RES1   0.0000
   156 C53       3.1858    7.0786   -0.1395   C.3       1 RES1   0.0000
   157 C54       2.9967    6.3348    1.1899   C.3       1 RES1   0.0000
   158 C55       3.7252    4.9873    1.3240   C.3       1 RES1   0.0000
   159 C56       3.3931    3.9711    0.2326   C.3       1 RES1   0.0000
   160 N5        3.7660    2.5584    0.4598   N.am      1 RES1   0.0000
   161 C57       5.0942    2.0642    0.8674   C.3       1 RES1   0.0000
   162 C58       6.1150    2.9627    1.5792   C.3       1 RES1   0.0000
   163 C59       7.2526    3.4374    0.6731   C.3       1 RES1   0.0000
   164 C60       6.9325    4.5215   -0.3546   C.3       1 RES1   0.0000
   165 C61       8.0589    4.5968   -1.3882   C.3       1 RES1   0.0000
   166 C62       7.7709    5.5081   -2.5788   C.3       1 RES1   0.0000
   167 C63       8.7860    5.2917   -3.7001   C.3       1 RES1   0.0000
   168 C64       8.4393    6.0736   -4.9574   C.3       1 RES1   0.0000
   169 C65       2.8871    1.6442    0.0411   C.2       1 RES1   0.0000
   170 O7        1.7113    1.8895   -0.2854   O.2       1 RES1   0.0000
   171 C66       3.3739    0.1877   -0.0680   C.3       1 RES1   0.0000
   172 O8        2.2614   -0.6471   -0.3325   O.3       1 RES1   0.0000
   173 C67       2.6371   -1.9412   -0.7829   C.3       1 RES1   0.0000
   174 C68       1.3361   -2.6727   -1.1356   C.2       1 RES1   0.0000
   175 O9        0.2629   -2.0602   -1.0165   O.2       1 RES1   0.0000
   176 N6        1.4258   -3.9211   -1.5569   N.am      1 RES1   0.0000
   177 C69       0.2502   -4.6881   -1.9676   C.3       1 RES1   0.0000
   178 C70       0.8301   -5.9097   -2.6698   C.3       1 RES1   0.0000
   179 C71       2.1236   -6.1388   -1.8974   C.3       1 RES1   0.0000
   180 C72       2.6412   -4.7174   -1.6938   C.3       1 RES1   0.0000
   181 H93       2.9482   10.5936   -2.8297   H         1 RES1   0.0000
   182 H94       4.1219    9.3180   -2.5212   H         1 RES1   0.0000
   183 H95       2.9274    9.7428   -1.2966   H         1 RES1   0.0000
   184 H96       2.1986    8.6912   -4.0573   H         1 RES1   0.0000
   185 H97       1.1071    8.8662   -2.6891   H         1 RES1   0.0000
   186 H98       3.4603    6.9222   -2.7924   H         1 RES1   0.0000
   187 H99       1.8007    6.5273   -3.2544   H         1 RES1   0.0000
   188 H100      1.8586    5.7058   -1.1333   H         1 RES1   0.0000
   189 H101      1.1697    7.3065   -0.8484   H         1 RES1   0.0000
   190 H102      3.1838    8.1469    0.0729   H         1 RES1   0.0000
   191 H103      4.1618    6.8469   -0.5694   H         1 RES1   0.0000
   192 H104      1.9311    6.2157    1.3773   H         1 RES1   0.0000
   193 H105      3.3945    6.9544    1.9964   H         1 RES1   0.0000
   194 H106      3.4719    4.5688    2.3013   H         1 RES1   0.0000
   195 H107      4.7883    5.2117    1.3082   H         1 RES1   0.0000
   196 H108      3.8642    4.2824   -0.7029   H         1 RES1   0.0000
   197 H109      2.3111    3.9591    0.0808   H         1 RES1   0.0000
   198 H110      5.5841    1.6494   -0.0200   H         1 RES1   0.0000
   199 H111      4.9018    1.2340    1.5556   H         1 RES1   0.0000
   200 H112      6.5859    2.3260    2.3325   H         1 RES1   0.0000
   201 H113      5.6330    3.7766    2.1039   H         1 RES1   0.0000
   202 H114      7.6333    2.5543    0.1526   H         1 RES1   0.0000
   203 H115      8.0606    3.8035    1.3062   H         1 RES1   0.0000
   204 H116      6.8273    5.4839    0.1470   H         1 RES1   0.0000
   205 H117      5.9925    4.3073   -0.8649   H         1 RES1   0.0000
   206 H118      8.2538    3.5901   -1.7664   H         1 RES1   0.0000
   207 H119      8.9684    4.9311   -0.8913   H         1 RES1   0.0000
   208 H120      7.7988    6.5497   -2.2612   H         1 RES1   0.0000
   209 H121      6.7677    5.3097   -2.9602   H         1 RES1   0.0000
   210 H122      8.8374    4.2282   -3.9440   H         1 RES1   0.0000
   211 H123      9.7748    5.5881   -3.3528   H         1 RES1   0.0000
   212 H124      7.4595    5.7906   -5.3352   H         1 RES1   0.0000
   213 H125      9.1706    5.8803   -5.7363   H         1 RES1   0.0000
   214 H126      8.4327    7.1401   -4.7566   H         1 RES1   0.0000
   215 H127      3.8699   -0.1517    0.8516   H         1 RES1   0.0000
   216 H128      4.0990    0.1321   -0.8947   H         1 RES1   0.0000
   217 H129      3.2038   -2.4810   -0.0082   H         1 RES1   0.0000
   218 H130      3.2805   -1.8661   -1.6736   H         1 RES1   0.0000
   219 H131     -0.3973   -4.0854   -2.6046   H         1 RES1   0.0000
   220 H132     -0.3046   -4.9837   -1.0721   H         1 RES1   0.0000
   221 H133      1.0477   -5.7008   -3.7168   H         1 RES1   0.0000
   222 H134      0.1590   -6.7603   -2.6244   H         1 RES1   0.0000
   223 H135      2.8403   -6.7516   -2.4323   H         1 RES1   0.0000
   224 H136      1.9140   -6.6110   -0.9380   H         1 RES1   0.0000
   225 H137      3.1842   -4.3734   -2.5795   H         1 RES1   0.0000
   226 H138      3.2881   -4.6317   -0.8175   H         1 RES1   0.0000
@<TRIPOS>BOND
     1     1    20    1
     2     1    22    1
     3     1    25    1
     4     1    95    1
     5     1    97    1
     6     1   100    1
     7     1   170    1
     8     1   172    1
     9     1   175    1
    10     2     3    1
    11     2    31    1
    12     2    32    1
    13     2    33    1
    14     3     4    1
    15     3    34    1
    16     3    35    1
    17     4     5    1
    18     4    36    1
    19     4    37    1
    20     5     6    1
    21     5    38    1
    22     5    39    1
    23     6     7    1
    24     6    40    1
    25     6    41    1
    26     7     8    1
    27     7    42    1
    28     7    43    1
    29     8     9    1
    30     8    44    1
    31     8    45    1
    32     9    10    1
    33     9    46    1
    34     9    47    1
    35    10    11    1
    36    10    19    1
    37    11    12    1
    38    11    48    1
    39    11    49    1
    40    12    13    1
    41    12    50    1
    42    12    51    1
    43    13    14    1
    44    13    52    1
    45    13    53    1
    46    14    15    1
    47    14    54    1
    48    14    55    1
    49    15    16    1
    50    15    56    1
    51    15    57    1
    52    16    17    1
    53    16    58    1
    54    16    59    1
    55    17    18    1
    56    17    60    1
    57    17    61    1
    58    18    62    1
    59    18    63    1
    60    18    64    1
    61    19    20    2
    62    19    21    1
    63    21    22    1
    64    21    65    1
    65    21    66    1
    66    22    23    1
    67    23    24    1
    68    23    67    1
    69    23    68    1
    70    24    25    2
    71    24    26    1
    72    26    27    1
    73    26    30    1
    74    27    28    1
    75    27    69    1
    76    27    70    1
    77    28    29    1
    78    28    71    1
    79    28    72    1
    80    29    30    1
    81    29    73    1
    82    29    74    1
    83    30    75    1
    84    30    76    1
    85    77    78    1
    86    77   106    1
    87    77   107    1
    88    77   108    1
    89    78    79    1
    90    78   109    1
    91    78   110    1
    92    79    80    1
    93    79   111    1
    94    79   112    1
    95    80    81    1
    96    80   113    1
    97    80   114    1
    98    81    82    1
    99    81   115    1
   100    81   116    1
   101    82    83    1
   102    82   117    1
   103    82   118    1
   104    83    84    1
   105    83   119    1
   106    83   120    1
   107    84    85    1
   108    84   121    1
   109    84   122    1
   110    85    86    1
   111    85    94    1
   112    86    87    1
   113    86   123    1
   114    86   124    1
   115    87    88    1
   116    87   125    1
   117    87   126    1
   118    88    89    1
   119    88   127    1
   120    88   128    1
   121    89    90    1
   122    89   129    1
   123    89   130    1
   124    90    91    1
   125    90   131    1
   126    90   132    1
   127    91    92    1
   128    91   133    1
   129    91   134    1
   130    92    93    1
   131    92   135    1
   132    92   136    1
   133    93   137    1
   134    93   138    1
   135    93   139    1
   136    94    95    2
   137    94    96    1
   138    96    97    1
   139    96   140    1
   140    96   141    1
   141    97    98    1
   142    98    99    1
   143    98   142    1
   144    98   143    1
   145    99   100    2
   146    99   101    1
   147   101   102    1
   148   101   105    1
   149   102   103    1
   150   102   144    1
   151   102   145    1
   152   103   104    1
   153   103   146    1
   154   103   147    1
   155   104   105    1
   156   104   148    1
   157   104   149    1
   158   105   150    1
   159   105   151    1
   160   152   153    1
   161   152   181    1
   162   152   182    1
   163   152   183    1
   164   153   154    1
   165   153   184    1
   166   153   185    1
   167   154   155    1
   168   154   186    1
   169   154   187    1
   170   155   156    1
   171   155   188    1
   172   155   189    1
   173   156   157    1
   174   156   190    1
   175   156   191    1
   176   157   158    1
   177   157   192    1
   178   157   193    1
   179   158   159    1
   180   158   194    1
   181   158   195    1
   182   159   160    1
   183   159   196    1
   184   159   197    1
   185   160   161    1
   186   160   169    1
   187   161   162    1
   188   161   198    1
   189   161   199    1
   190   162   163    1
   191   162   200    1
   192   162   201    1
   193   163   164    1
   194   163   202    1
   195   163   203    1
   196   164   165    1
   197   164   204    1
   198   164   205    1
   199   165   166    1
   200   165   206    1
   201   165   207    1
   202   166   167    1
   203   166   208    1
   204   166   209    1
   205   167   168    1
   206   167   210    1
   207   167   211    1
   208   168   212    1
   209   168   213    1
   210   168   214    1
   211   169   170    2
   212   169   171    1
   213   171   172    1
   214   171   215    1
   215   171   216    1
   216   172   173    1
   217   173   174    1
   218   173   217    1
   219   173   218    1
   220   174   175    2
   221   174   176    1
   222   176   177    1
   223   176   180    1
   224   177   178    1
   225   177   219    1
   226   177   220    1
   227   178   179    1
   228   178   221    1
   229   178   222    1
   230   179   180    1
   231   179   223    1
   232   179   224    1
   233   180   225    1
   234   180   226    1
@<TRIPOS>SUBSTRUCTURE
     1 RES1      226 GROUP             0 ****  ****    0  
