@<TRIPOS>MOLECULE
am_c3_9H2O_c0_0_nunpairedes_0_charge_3 Charge: 3 Unpaired_Electrons: 6 XTB_Unpaired_Electrons: 0 XTB_Charge: 3
   268   273     1     0     0
SMALL
NoCharges
****
Generated from Architector

@<TRIPOS>ATOM
     1 Eu1      -0.1261    0.1503    0.2658   Eu        1 RES1   0.0000
     2 C1       -1.4249   -7.4093    2.0681   C.3       1 RES1   0.0000
     3 C2       -1.0671   -6.0640    1.4491   C.3       1 RES1   0.0000
     4 C3       -1.5876   -5.8779    0.0244   C.3       1 RES1   0.0000
     5 C4       -3.1042   -6.0116   -0.0853   C.3       1 RES1   0.0000
     6 C5       -3.6199   -5.5899   -1.4627   C.3       1 RES1   0.0000
     7 C6       -3.6738   -4.0670   -1.6433   C.3       1 RES1   0.0000
     8 C7       -4.9214   -3.4847   -0.9710   C.3       1 RES1   0.0000
     9 C8       -4.6860   -2.1254   -0.3172   C.3       1 RES1   0.0000
    10 N1       -4.2588   -1.0627   -1.2274   N.am      1 RES1   0.0000
    11 C9       -5.1893   -0.6535   -2.2688   C.3       1 RES1   0.0000
    12 C10      -6.0509    0.5759   -1.9190   C.3       1 RES1   0.0000
    13 C11      -6.7851    0.4074   -0.5913   C.3       1 RES1   0.0000
    14 C12      -7.0413    0.8038   -3.0576   C.3       1 RES1   0.0000
    15 C13      -3.0982   -0.4629   -1.0258   C.2       1 RES1   0.0000
    16 O1       -2.2898   -0.7759   -0.1256   O.2       1 RES1   0.0000
    17 C14      -2.6782    0.7232   -1.9103   C.3       1 RES1   0.0000
    18 O2       -1.8957    1.5944   -1.1043   O.3       1 RES1   0.0000
    19 C15      -2.6796    2.3606   -0.1953   C.3       1 RES1   0.0000
    20 C16      -1.9040    2.5904    1.1067   C.2       1 RES1   0.0000
    21 O3       -1.2815    1.6148    1.5769   O.2       1 RES1   0.0000
    22 N2       -2.0850    3.7179    1.7803   N.am      1 RES1   0.0000
    23 C17      -2.3169    5.0476    1.2411   C.3       1 RES1   0.0000
    24 C18      -1.1700    5.9964    1.6399   C.3       1 RES1   0.0000
    25 C19       0.0543    5.8609    0.7334   C.3       1 RES1   0.0000
    26 C20       1.3665    6.1943    1.4440   C.3       1 RES1   0.0000
    27 C21       2.0207    4.9501    2.0378   C.3       1 RES1   0.0000
    28 C22       3.4472    5.2230    2.5288   C.3       1 RES1   0.0000
    29 C23       3.5395    5.4559    4.0367   C.3       1 RES1   0.0000
    30 C24       2.9517    6.7926    4.4729   C.3       1 RES1   0.0000
    31 C25      -2.0925    3.6249    3.2365   C.3       1 RES1   0.0000
    32 C26      -3.3335    2.8405    3.7104   C.3       1 RES1   0.0000
    33 C27      -4.5890    3.2378    2.9347   C.3       1 RES1   0.0000
    34 C28      -3.5784    3.0956    5.1942   C.3       1 RES1   0.0000
    35 H1       -0.9530   -7.5137    3.0432   H         1 RES1   0.0000
    36 H2       -1.0796   -8.2218    1.4346   H         1 RES1   0.0000
    37 H3       -2.4976   -7.5065    2.2037   H         1 RES1   0.0000
    38 H4        0.0257   -5.9776    1.4350   H         1 RES1   0.0000
    39 H5       -1.4647   -5.2631    2.0786   H         1 RES1   0.0000
    40 H6       -1.1214   -6.6173   -0.6291   H         1 RES1   0.0000
    41 H7       -1.2930   -4.8815   -0.3253   H         1 RES1   0.0000
    42 H8       -3.5835   -5.4095    0.6895   H         1 RES1   0.0000
    43 H9       -3.3796   -7.0516    0.0803   H         1 RES1   0.0000
    44 H10      -4.6242   -5.9923   -1.6089   H         1 RES1   0.0000
    45 H11      -2.9814   -6.0313   -2.2282   H         1 RES1   0.0000
    46 H12      -3.6924   -3.8279   -2.7096   H         1 RES1   0.0000
    47 H13      -2.7789   -3.6033   -1.2123   H         1 RES1   0.0000
    48 H14      -5.2360   -4.1492   -0.1663   H         1 RES1   0.0000
    49 H15      -5.7507   -3.4597   -1.6806   H         1 RES1   0.0000
    50 H16      -3.8971   -2.2188    0.4325   H         1 RES1   0.0000
    51 H17      -5.6149   -1.8021    0.1555   H         1 RES1   0.0000
    52 H18      -5.8567   -1.4938   -2.4447   H         1 RES1   0.0000
    53 H19      -4.6429   -0.4828   -3.2002   H         1 RES1   0.0000
    54 H20      -5.4108    1.4628   -1.8381   H         1 RES1   0.0000
    55 H21      -7.3890   -0.4975   -0.5984   H         1 RES1   0.0000
    56 H22      -7.4476    1.2546   -0.4358   H         1 RES1   0.0000
    57 H23      -6.0851    0.3746    0.2427   H         1 RES1   0.0000
    58 H24      -7.7263   -0.0346   -3.1464   H         1 RES1   0.0000
    59 H25      -6.5261    0.9284   -4.0058   H         1 RES1   0.0000
    60 H26      -7.6200    1.7011   -2.8642   H         1 RES1   0.0000
    61 H27      -3.5068    1.2914   -2.3318   H         1 RES1   0.0000
    62 H28      -2.0076    0.3916   -2.7136   H         1 RES1   0.0000
    63 H29      -3.5587    1.7823    0.1255   H         1 RES1   0.0000
    64 H30      -3.0497    3.2715   -0.6757   H         1 RES1   0.0000
    65 H31      -3.2644    5.4266    1.6309   H         1 RES1   0.0000
    66 H32      -2.3799    5.0194    0.1536   H         1 RES1   0.0000
    67 H33      -0.8701    5.8136    2.6707   H         1 RES1   0.0000
    68 H34      -1.5484    7.0175    1.5950   H         1 RES1   0.0000
    69 H35      -0.0739    6.5327   -0.1175   H         1 RES1   0.0000
    70 H36       0.1112    4.8313    0.3705   H         1 RES1   0.0000
    71 H37       1.1897    6.9488    2.2089   H         1 RES1   0.0000
    72 H38       2.0599    6.6272    0.7241   H         1 RES1   0.0000
    73 H39       2.0428    4.1789    1.2595   H         1 RES1   0.0000
    74 H40       1.4153    4.5528    2.8551   H         1 RES1   0.0000
    75 H41       3.8529    6.0947    2.0116   H         1 RES1   0.0000
    76 H42       4.0857    4.3780    2.2691   H         1 RES1   0.0000
    77 H43       4.5904    5.4198    4.3306   H         1 RES1   0.0000
    78 H44       3.0218    4.6474    4.5606   H         1 RES1   0.0000
    79 H45       3.3869    7.6035    3.8940   H         1 RES1   0.0000
    80 H46       3.1639    6.9755    5.5231   H         1 RES1   0.0000
    81 H47       1.8724    6.8104    4.3403   H         1 RES1   0.0000
    82 H48      -2.1334    4.6336    3.6381   H         1 RES1   0.0000
    83 H49      -1.1766    3.1350    3.5653   H         1 RES1   0.0000
    84 H50      -3.1504    1.7727    3.5452   H         1 RES1   0.0000
    85 H51      -4.8179    4.2891    3.0834   H         1 RES1   0.0000
    86 H52      -5.4339    2.6627    3.3011   H         1 RES1   0.0000
    87 H53      -4.4869    3.0496    1.8683   H         1 RES1   0.0000
    88 H54      -3.8010    4.1436    5.3693   H         1 RES1   0.0000
    89 H55      -2.7228    2.8304    5.8051   H         1 RES1   0.0000
    90 H56      -4.4292    2.5097    5.5255   H         1 RES1   0.0000
    91 C29       6.7235    2.5174   -2.3233   C.3       1 RES1   0.0000
    92 C30       7.0214    1.7045   -3.5806   C.3       1 RES1   0.0000
    93 C31       6.4099    0.3031   -3.5634   C.3       1 RES1   0.0000
    94 C32       7.0383   -0.6128   -2.5142   C.3       1 RES1   0.0000
    95 C33       6.2828   -1.9387   -2.3586   C.3       1 RES1   0.0000
    96 C34       6.4736   -2.6195   -0.9938   C.3       1 RES1   0.0000
    97 C35       5.3780   -2.2905    0.0294   C.3       1 RES1   0.0000
    98 C36       5.4550   -0.8420    0.5424   C.3       1 RES1   0.0000
    99 N3        4.2371   -0.4570    1.2405   N.am      1 RES1   0.0000
   100 C37       4.1757   -0.7116    2.6748   C.3       1 RES1   0.0000
   101 C38       4.5932    0.4933    3.5376   C.3       1 RES1   0.0000
   102 C39       6.0200    0.9651    3.2691   C.3       1 RES1   0.0000
   103 C40       3.6134    1.6456    3.3539   C.3       1 RES1   0.0000
   104 C41       3.1590   -0.0273    0.5996   C.2       1 RES1   0.0000
   105 O4        2.0462    0.1348    1.1387   O.2       1 RES1   0.0000
   106 C42       3.2916    0.2999   -0.8958   C.3       1 RES1   0.0000
   107 O5        1.9841    0.4212   -1.4402   O.3       1 RES1   0.0000
   108 C43       1.8259    1.4013   -2.4589   C.3       1 RES1   0.0000
   109 C44       0.9493    2.5431   -1.9165   C.2       1 RES1   0.0000
   110 O6        0.4666    2.3629   -0.7787   O.2       1 RES1   0.0000
   111 N4        0.6578    3.5744   -2.7034   N.am      1 RES1   0.0000
   112 C45      -0.4262    4.4636   -2.2937   C.3       1 RES1   0.0000
   113 C46      -1.3912    4.9473   -3.3900   C.3       1 RES1   0.0000
   114 C47      -2.6758    4.1160   -3.5371   C.3       1 RES1   0.0000
   115 C48      -2.7904    3.2181   -4.7746   C.3       1 RES1   0.0000
   116 C49      -4.2205    2.6702   -4.8394   C.3       1 RES1   0.0000
   117 C50      -4.7006    2.1050   -6.1749   C.3       1 RES1   0.0000
   118 C51      -4.0757    0.7649   -6.5881   C.3       1 RES1   0.0000
   119 C52      -3.0394    0.9415   -7.6905   C.3       1 RES1   0.0000
   120 C53       1.4719    4.0009   -3.8302   C.3       1 RES1   0.0000
   121 C54       2.4156    5.2008   -3.5667   C.3       1 RES1   0.0000
   122 C55       3.2707    4.9921   -2.3202   C.3       1 RES1   0.0000
   123 C56       1.7041    6.5520   -3.5084   C.3       1 RES1   0.0000
   124 H57       7.0602    3.5423   -2.4546   H         1 RES1   0.0000
   125 H58       5.6505    2.5357   -2.1199   H         1 RES1   0.0000
   126 H59       7.2353    2.1170   -1.4515   H         1 RES1   0.0000
   127 H60       6.6262    2.2442   -4.4435   H         1 RES1   0.0000
   128 H61       8.1003    1.6251   -3.7063   H         1 RES1   0.0000
   129 H62       5.3334    0.3928   -3.3783   H         1 RES1   0.0000
   130 H63       6.5277   -0.1442   -4.5502   H         1 RES1   0.0000
   131 H64       8.0683   -0.8267   -2.7954   H         1 RES1   0.0000
   132 H65       7.0798   -0.0862   -1.5619   H         1 RES1   0.0000
   133 H66       5.2116   -1.7842   -2.5329   H         1 RES1   0.0000
   134 H67       6.6180   -2.6218   -3.1388   H         1 RES1   0.0000
   135 H68       6.4706   -3.7018   -1.1331   H         1 RES1   0.0000
   136 H69       7.4461   -2.3539   -0.5785   H         1 RES1   0.0000
   137 H70       4.3944   -2.4694   -0.4213   H         1 RES1   0.0000
   138 H71       5.4729   -2.9736    0.8776   H         1 RES1   0.0000
   139 H72       6.2950   -0.7576    1.2296   H         1 RES1   0.0000
   140 H73       5.6320   -0.1536   -0.2806   H         1 RES1   0.0000
   141 H74       3.1412   -0.9632    2.9239   H         1 RES1   0.0000
   142 H75       4.8216   -1.5604    2.9003   H         1 RES1   0.0000
   143 H76       4.5409    0.1440    4.5747   H         1 RES1   0.0000
   144 H77       6.1053    1.4076    2.2789   H         1 RES1   0.0000
   145 H78       6.2967    1.7246    3.9958   H         1 RES1   0.0000
   146 H79       6.7328    0.1497    3.3616   H         1 RES1   0.0000
   147 H80       3.6829    2.0521    2.3473   H         1 RES1   0.0000
   148 H81       2.5887    1.3188    3.5141   H         1 RES1   0.0000
   149 H82       3.8420    2.4403    4.0569   H         1 RES1   0.0000
   150 H83       3.8482    1.2407   -0.9913   H         1 RES1   0.0000
   151 H84       3.8231   -0.4909   -1.4411   H         1 RES1   0.0000
   152 H85       2.7939    1.7346   -2.8374   H         1 RES1   0.0000
   153 H86       1.2566    0.9130   -3.2622   H         1 RES1   0.0000
   154 H87      -0.9793    3.9095   -1.5328   H         1 RES1   0.0000
   155 H88       0.0102    5.3403   -1.8181   H         1 RES1   0.0000
   156 H89      -1.6833    5.9585   -3.1020   H         1 RES1   0.0000
   157 H90      -0.9115    5.0497   -4.3619   H         1 RES1   0.0000
   158 H91      -2.8084    3.5034   -2.6453   H         1 RES1   0.0000
   159 H92      -3.5196    4.8077   -3.5723   H         1 RES1   0.0000
   160 H93      -2.5877    3.8112   -5.6666   H         1 RES1   0.0000
   161 H94      -2.0576    2.4076   -4.7351   H         1 RES1   0.0000
   162 H95      -4.3449    1.9022   -4.0719   H         1 RES1   0.0000
   163 H96      -4.8930    3.4911   -4.5821   H         1 RES1   0.0000
   164 H97      -5.7799    1.9800   -6.0849   H         1 RES1   0.0000
   165 H98      -4.5355    2.8416   -6.9610   H         1 RES1   0.0000
   166 H99      -3.6261    0.2717   -5.7185   H         1 RES1   0.0000
   167 H100     -4.8567    0.1003   -6.9610   H         1 RES1   0.0000
   168 H101     -2.6258   -0.0163   -7.9995   H         1 RES1   0.0000
   169 H102     -2.2344    1.5942   -7.3626   H         1 RES1   0.0000
   170 H103     -3.5068    1.3910   -8.5615   H         1 RES1   0.0000
   171 H104      2.0757    3.1652   -4.1657   H         1 RES1   0.0000
   172 H105      0.8076    4.2673   -4.6505   H         1 RES1   0.0000
   173 H106      3.0707    5.2204   -4.4442   H         1 RES1   0.0000
   174 H107      2.6464    4.9128   -1.4316   H         1 RES1   0.0000
   175 H108      3.8798    4.0946   -2.4109   H         1 RES1   0.0000
   176 H109      3.9377    5.8405   -2.1913   H         1 RES1   0.0000
   177 H110      1.2479    6.7180   -2.5380   H         1 RES1   0.0000
   178 H111      2.4197    7.3548   -3.6651   H         1 RES1   0.0000
   179 H112      0.9385    6.6329   -4.2748   H         1 RES1   0.0000
   180 C57      -0.4891    1.1108    5.1738   C.3       1 RES1   0.0000
   181 C58       0.3806    1.4257    6.3838   C.3       1 RES1   0.0000
   182 C59       1.6085    0.5197    6.4956   C.3       1 RES1   0.0000
   183 C60       1.2819   -0.9446    6.2171   C.3       1 RES1   0.0000
   184 C61       2.4921   -1.8608    6.3510   C.3       1 RES1   0.0000
   185 C62       2.1429   -3.3269    6.0889   C.3       1 RES1   0.0000
   186 C63       1.9050   -3.6495    4.5991   C.3       1 RES1   0.0000
   187 C64       0.4428   -3.9810    4.2277   C.3       1 RES1   0.0000
   188 N5       -0.2946   -2.8774    3.6225   N.am      1 RES1   0.0000
   189 C65      -1.3881   -2.2795    4.3887   C.3       1 RES1   0.0000
   190 C66      -2.7469   -2.9968    4.2901   C.3       1 RES1   0.0000
   191 C67      -3.2960   -2.9464    2.8683   C.3       1 RES1   0.0000
   192 C68      -2.7210   -4.4239    4.8273   C.3       1 RES1   0.0000
   193 C69       0.0210   -2.3094    2.4641   C.2       1 RES1   0.0000
   194 O7       -0.4747   -1.2302    2.0832   O.2       1 RES1   0.0000
   195 C70       0.9890   -3.0080    1.4802   C.3       1 RES1   0.0000
   196 O8        0.8664   -2.2936    0.2477   O.3       1 RES1   0.0000
   197 C71       1.1208   -3.0355   -0.9340   C.3       1 RES1   0.0000
   198 C72       0.4316   -2.2869   -2.0842   C.2       1 RES1   0.0000
   199 O9       -0.1281   -1.2014   -1.8233   O.2       1 RES1   0.0000
   200 N6        0.4248   -2.8356   -3.2942   N.am      1 RES1   0.0000
   201 C73      -0.3078   -2.1591   -4.3614   C.3       1 RES1   0.0000
   202 C74       0.5890   -1.2711   -5.2400   C.3       1 RES1   0.0000
   203 C75      -0.1906   -0.0643   -5.7683   C.3       1 RES1   0.0000
   204 C76       0.5877    0.7682   -6.7925   C.3       1 RES1   0.0000
   205 C77       1.9319    1.2720   -6.2648   C.3       1 RES1   0.0000
   206 C78       2.3735    2.6220   -6.8327   C.3       1 RES1   0.0000
   207 C79       2.8581    2.5868   -8.2825   C.3       1 RES1   0.0000
   208 C80       1.7339    2.6456   -9.3100   C.3       1 RES1   0.0000
   209 C81       1.1692   -4.0320   -3.6717   C.3       1 RES1   0.0000
   210 C82       0.4931   -5.3783   -3.3558   C.3       1 RES1   0.0000
   211 C83      -0.8387   -5.5529   -4.0786   C.3       1 RES1   0.0000
   212 C84       1.4610   -6.4884   -3.7586   C.3       1 RES1   0.0000
   213 H113     -1.2431    1.8745    5.0586   H         1 RES1   0.0000
   214 H114      0.0829    1.0466    4.2473   H         1 RES1   0.0000
   215 H115     -1.0126    0.1759    5.3290   H         1 RES1   0.0000
   216 H116      0.7098    2.4664    6.3478   H         1 RES1   0.0000
   217 H117     -0.2413    1.3114    7.2722   H         1 RES1   0.0000
   218 H118      2.3686    0.8553    5.7890   H         1 RES1   0.0000
   219 H119      2.0218    0.6186    7.4988   H         1 RES1   0.0000
   220 H120      0.5046   -1.2725    6.9106   H         1 RES1   0.0000
   221 H121      0.8989   -1.0246    5.2002   H         1 RES1   0.0000
   222 H122      3.2697   -1.5401    5.6522   H         1 RES1   0.0000
   223 H123      2.8976   -1.7789    7.3578   H         1 RES1   0.0000
   224 H124      2.9618   -3.9472    6.4531   H         1 RES1   0.0000
   225 H125      1.2639   -3.5942    6.6790   H         1 RES1   0.0000
   226 H126      2.2487   -2.8078    3.9930   H         1 RES1   0.0000
   227 H127      2.5104   -4.5176    4.3299   H         1 RES1   0.0000
   228 H128      0.4262   -4.8438    3.5580   H         1 RES1   0.0000
   229 H129     -0.0970   -4.2592    5.1320   H         1 RES1   0.0000
   230 H130     -1.0953   -2.2276    5.4356   H         1 RES1   0.0000
   231 H131     -1.5186   -1.2728    3.9902   H         1 RES1   0.0000
   232 H132     -3.4177   -2.4107    4.9281   H         1 RES1   0.0000
   233 H133     -2.6201   -3.4416    2.1743   H         1 RES1   0.0000
   234 H134     -4.2618   -3.4435    2.8223   H         1 RES1   0.0000
   235 H135     -3.4208   -1.9131    2.5518   H         1 RES1   0.0000
   236 H136     -2.1357   -5.0771    4.1872   H         1 RES1   0.0000
   237 H137     -2.3133   -4.4493    5.8344   H         1 RES1   0.0000
   238 H138     -3.7307   -4.8224    4.8750   H         1 RES1   0.0000
   239 H139      2.0321   -2.9764    1.8251   H         1 RES1   0.0000
   240 H140      0.6914   -4.0530    1.3427   H         1 RES1   0.0000
   241 H141      2.2042   -3.1321   -1.1044   H         1 RES1   0.0000
   242 H142      0.6825   -4.0363   -0.8620   H         1 RES1   0.0000
   243 H143     -0.7993   -2.9121   -4.9766   H         1 RES1   0.0000
   244 H144     -1.0748   -1.5443   -3.8826   H         1 RES1   0.0000
   245 H145      1.4386   -0.9271   -4.6473   H         1 RES1   0.0000
   246 H146      0.9870   -1.8340   -6.0851   H         1 RES1   0.0000
   247 H147     -1.1119   -0.4127   -6.2384   H         1 RES1   0.0000
   248 H148     -0.4726    0.5706   -4.9184   H         1 RES1   0.0000
   249 H149      0.7349    0.1744   -7.6933   H         1 RES1   0.0000
   250 H150     -0.0305    1.6240   -7.0646   H         1 RES1   0.0000
   251 H151      1.8442    1.3798   -5.1812   H         1 RES1   0.0000
   252 H152      2.7098    0.5335   -6.4622   H         1 RES1   0.0000
   253 H153      1.5535    3.3396   -6.7504   H         1 RES1   0.0000
   254 H154      3.1968    2.9870   -6.2133   H         1 RES1   0.0000
   255 H155      3.5066    3.4509   -8.4382   H         1 RES1   0.0000
   256 H156      3.4601    1.6909   -8.4427   H         1 RES1   0.0000
   257 H157      1.0614    3.4707   -9.0842   H         1 RES1   0.0000
   258 H158      2.1485    2.8102  -10.3007   H         1 RES1   0.0000
   259 H159      1.1561    1.7262   -9.3363   H         1 RES1   0.0000
   260 H160      1.3286   -3.9802   -4.7490   H         1 RES1   0.0000
   261 H161      2.1524   -4.0090   -3.1958   H         1 RES1   0.0000
   262 H162      0.3120   -5.4432   -2.2787   H         1 RES1   0.0000
   263 H163     -0.7070   -5.5067   -5.1567   H         1 RES1   0.0000
   264 H164     -1.2492   -6.5306   -3.8405   H         1 RES1   0.0000
   265 H165     -1.5578   -4.7995   -3.7678   H         1 RES1   0.0000
   266 H166      1.6257   -6.4816   -4.8322   H         1 RES1   0.0000
   267 H167      2.4218   -6.3739   -3.2642   H         1 RES1   0.0000
   268 H168      1.0545   -7.4570   -3.4893   H         1 RES1   0.0000
@<TRIPOS>BOND
     1     1    16    1
     2     1    18    1
     3     1    21    1
     4     1   105    1
     5     1   107    1
     6     1   110    1
     7     1   194    1
     8     1   196    1
     9     1   199    1
    10     2     3    1
    11     2    35    1
    12     2    36    1
    13     2    37    1
    14     3     4    1
    15     3    38    1
    16     3    39    1
    17     4     5    1
    18     4    40    1
    19     4    41    1
    20     5     6    1
    21     5    42    1
    22     5    43    1
    23     6     7    1
    24     6    44    1
    25     6    45    1
    26     7     8    1
    27     7    46    1
    28     7    47    1
    29     8     9    1
    30     8    48    1
    31     8    49    1
    32     9    10    1
    33     9    50    1
    34     9    51    1
    35    10    11    1
    36    10    15    1
    37    11    12    1
    38    11    52    1
    39    11    53    1
    40    12    13    1
    41    12    14    1
    42    12    54    1
    43    13    55    1
    44    13    56    1
    45    13    57    1
    46    14    58    1
    47    14    59    1
    48    14    60    1
    49    15    16    2
    50    15    17    1
    51    17    18    1
    52    17    61    1
    53    17    62    1
    54    18    19    1
    55    19    20    1
    56    19    63    1
    57    19    64    1
    58    20    21    2
    59    20    22    1
    60    22    23    1
    61    22    31    1
    62    23    24    1
    63    23    65    1
    64    23    66    1
    65    24    25    1
    66    24    67    1
    67    24    68    1
    68    25    26    1
    69    25    69    1
    70    25    70    1
    71    26    27    1
    72    26    71    1
    73    26    72    1
    74    27    28    1
    75    27    73    1
    76    27    74    1
    77    28    29    1
    78    28    75    1
    79    28    76    1
    80    29    30    1
    81    29    77    1
    82    29    78    1
    83    30    79    1
    84    30    80    1
    85    30    81    1
    86    31    32    1
    87    31    82    1
    88    31    83    1
    89    32    33    1
    90    32    34    1
    91    32    84    1
    92    33    85    1
    93    33    86    1
    94    33    87    1
    95    34    88    1
    96    34    89    1
    97    34    90    1
    98    91    92    1
    99    91   124    1
   100    91   125    1
   101    91   126    1
   102    92    93    1
   103    92   127    1
   104    92   128    1
   105    93    94    1
   106    93   129    1
   107    93   130    1
   108    94    95    1
   109    94   131    1
   110    94   132    1
   111    95    96    1
   112    95   133    1
   113    95   134    1
   114    96    97    1
   115    96   135    1
   116    96   136    1
   117    97    98    1
   118    97   137    1
   119    97   138    1
   120    98    99    1
   121    98   139    1
   122    98   140    1
   123    99   100    1
   124    99   104    1
   125   100   101    1
   126   100   141    1
   127   100   142    1
   128   101   102    1
   129   101   103    1
   130   101   143    1
   131   102   144    1
   132   102   145    1
   133   102   146    1
   134   103   147    1
   135   103   148    1
   136   103   149    1
   137   104   105    2
   138   104   106    1
   139   106   107    1
   140   106   150    1
   141   106   151    1
   142   107   108    1
   143   108   109    1
   144   108   152    1
   145   108   153    1
   146   109   110    2
   147   109   111    1
   148   111   112    1
   149   111   120    1
   150   112   113    1
   151   112   154    1
   152   112   155    1
   153   113   114    1
   154   113   156    1
   155   113   157    1
   156   114   115    1
   157   114   158    1
   158   114   159    1
   159   115   116    1
   160   115   160    1
   161   115   161    1
   162   116   117    1
   163   116   162    1
   164   116   163    1
   165   117   118    1
   166   117   164    1
   167   117   165    1
   168   118   119    1
   169   118   166    1
   170   118   167    1
   171   119   168    1
   172   119   169    1
   173   119   170    1
   174   120   121    1
   175   120   171    1
   176   120   172    1
   177   121   122    1
   178   121   123    1
   179   121   173    1
   180   122   174    1
   181   122   175    1
   182   122   176    1
   183   123   177    1
   184   123   178    1
   185   123   179    1
   186   180   181    1
   187   180   213    1
   188   180   214    1
   189   180   215    1
   190   181   182    1
   191   181   216    1
   192   181   217    1
   193   182   183    1
   194   182   218    1
   195   182   219    1
   196   183   184    1
   197   183   220    1
   198   183   221    1
   199   184   185    1
   200   184   222    1
   201   184   223    1
   202   185   186    1
   203   185   224    1
   204   185   225    1
   205   186   187    1
   206   186   226    1
   207   186   227    1
   208   187   188    1
   209   187   228    1
   210   187   229    1
   211   188   189    1
   212   188   193    1
   213   189   190    1
   214   189   230    1
   215   189   231    1
   216   190   191    1
   217   190   192    1
   218   190   232    1
   219   191   233    1
   220   191   234    1
   221   191   235    1
   222   192   236    1
   223   192   237    1
   224   192   238    1
   225   193   194    2
   226   193   195    1
   227   195   196    1
   228   195   239    1
   229   195   240    1
   230   196   197    1
   231   197   198    1
   232   197   241    1
   233   197   242    1
   234   198   199    2
   235   198   200    1
   236   200   201    1
   237   200   209    1
   238   201   202    1
   239   201   243    1
   240   201   244    1
   241   202   203    1
   242   202   245    1
   243   202   246    1
   244   203   204    1
   245   203   247    1
   246   203   248    1
   247   204   205    1
   248   204   249    1
   249   204   250    1
   250   205   206    1
   251   205   251    1
   252   205   252    1
   253   206   207    1
   254   206   253    1
   255   206   254    1
   256   207   208    1
   257   207   255    1
   258   207   256    1
   259   208   257    1
   260   208   258    1
   261   208   259    1
   262   209   210    1
   263   209   260    1
   264   209   261    1
   265   210   211    1
   266   210   212    1
   267   210   262    1
   268   211   263    1
   269   211   264    1
   270   211   265    1
   271   212   266    1
   272   212   267    1
   273   212   268    1
@<TRIPOS>SUBSTRUCTURE
     1 RES1      268 GROUP             0 ****  ****    0  
