@<TRIPOS>MOLECULE
ICIGOT_geomtry_0_nunpairedes_0_charge_1 Charge: 1 Unpaired_Electrons: 5 XTB_Unpaired_Electrons: 0 XTB_Charge: 1
   103   111     1     0     0
SMALL
NoCharges
****
Generated from Architector

@<TRIPOS>ATOM
     1 Sm1      -0.3706    0.0882   -0.0882   Sm        1 RES1   0.0000
     2 C1        3.3025    3.4739   -0.6160   C.3       1 RES1   0.0000
     3 C2        3.2535    4.7542    0.2125   C.3       1 RES1   0.0000
     4 C3        2.4650    5.8874   -0.4466   C.3       1 RES1   0.0000
     5 C4        0.9835    5.6099   -0.7027   C.3       1 RES1   0.0000
     6 C5        0.1163    5.5504    0.5643   C.3       1 RES1   0.0000
     7 C6        0.2587    4.2994    1.3509   C.ar      1 RES1   0.0000
     8 N1       -0.0465    3.1801    0.7212   N.ar      1 RES1   0.0000
     9 N2        0.1518    2.0156    1.2875   N.ar      1 RES1   0.0000
    10 C7        0.7211    1.9868    2.4956   C.ar      1 RES1   0.0000
    11 C8        1.2098    0.6681    2.9290   C.ar      1 RES1   0.0000
    12 C9        1.6295    0.4088    4.2325   C.ar      1 RES1   0.0000
    13 C10       2.1663   -0.8413    4.5014   C.ar      1 RES1   0.0000
    14 C11       2.2602   -1.7811    3.4846   C.ar      1 RES1   0.0000
    15 C12       1.8136   -1.4415    2.2045   C.ar      1 RES1   0.0000
    16 C13       1.9686   -2.3084    1.0100   C.ar      1 RES1   0.0000
    17 C14       2.7165   -3.4868    1.0248   C.ar      1 RES1   0.0000
    18 C15       2.9636   -4.1412   -0.1724   C.ar      1 RES1   0.0000
    19 C16       2.4215   -3.6413   -1.3477   C.ar      1 RES1   0.0000
    20 C17       1.6258   -2.4998   -1.2684   C.ar      1 RES1   0.0000
    21 C18       0.9492   -1.9317   -2.4523   C.ar      1 RES1   0.0000
    22 N3        0.1002   -0.9381   -2.1955   N.ar      1 RES1   0.0000
    23 N4       -0.6664   -0.4854   -3.1559   N.ar      1 RES1   0.0000
    24 C19      -0.5197   -0.9270   -4.3938   C.ar      1 RES1   0.0000
    25 C20      -1.4475   -0.3703   -5.4126   C.3       1 RES1   0.0000
    26 C21      -2.9357   -0.6044   -5.1197   C.3       1 RES1   0.0000
    27 C22      -3.3893   -2.0389   -5.3779   C.3       1 RES1   0.0000
    28 C23      -2.8031   -3.0610   -4.4072   C.3       1 RES1   0.0000
    29 C24      -3.3949   -4.4456   -4.6458   C.3       1 RES1   0.0000
    30 C25       0.5704   -1.8016   -4.6863   C.ar      1 RES1   0.0000
    31 C26       1.0025   -2.1455   -6.0690   C.3       1 RES1   0.0000
    32 C27       1.5078   -0.9389   -6.8799   C.3       1 RES1   0.0000
    33 C28       2.6129   -0.1677   -6.1635   C.3       1 RES1   0.0000
    34 C29       3.0667    1.0497   -6.9700   C.3       1 RES1   0.0000
    35 C30       4.1121    1.8580   -6.2108   C.3       1 RES1   0.0000
    36 N5        1.2317   -2.3517   -3.6831   N.ar      1 RES1   0.0000
    37 N6        1.4283   -1.8367   -0.1208   N.ar      1 RES1   0.0000
    38 N7        1.2947   -0.2365    1.9463   N.ar      1 RES1   0.0000
    39 N8        0.8955    3.0636    3.2561   N.ar      1 RES1   0.0000
    40 C31       0.6177    4.2432    2.7316   C.ar      1 RES1   0.0000
    41 C32       0.7719    5.4551    3.5792   C.3       1 RES1   0.0000
    42 C33      -0.5409    6.2195    3.8391   C.3       1 RES1   0.0000
    43 C34      -0.3154    7.5305    4.6005   C.3       1 RES1   0.0000
    44 C35       0.4078    8.6201    3.8058   C.3       1 RES1   0.0000
    45 C36       0.5073    9.9216    4.5978   C.3       1 RES1   0.0000
    46 H1        3.9480    2.7448   -0.1295   H         1 RES1   0.0000
    47 H2        3.7096    3.6858   -1.6017   H         1 RES1   0.0000
    48 H3        2.3153    3.0274   -0.7409   H         1 RES1   0.0000
    49 H4        4.2779    5.1065    0.3615   H         1 RES1   0.0000
    50 H5        2.8430    4.5374    1.2032   H         1 RES1   0.0000
    51 H6        2.9304    6.1083   -1.4097   H         1 RES1   0.0000
    52 H7        2.5607    6.7857    0.1709   H         1 RES1   0.0000
    53 H8        0.8553    4.6910   -1.2726   H         1 RES1   0.0000
    54 H9        0.5928    6.4354   -1.2981   H         1 RES1   0.0000
    55 H10      -0.9278    5.5842    0.2426   H         1 RES1   0.0000
    56 H11       0.3234    6.4174    1.1853   H         1 RES1   0.0000
    57 H12       1.5420    1.1744    4.9907   H         1 RES1   0.0000
    58 H13       2.5132   -1.0939    5.4929   H         1 RES1   0.0000
    59 H14       2.6738   -2.7581    3.6821   H         1 RES1   0.0000
    60 H15       3.1140   -3.8609    1.9559   H         1 RES1   0.0000
    61 H16       3.5766   -5.0303   -0.1790   H         1 RES1   0.0000
    62 H17       2.5920   -4.1077   -2.3072   H         1 RES1   0.0000
    63 H18      -1.2156   -0.7705   -6.3957   H         1 RES1   0.0000
    64 H19      -1.2784    0.7100   -5.4232   H         1 RES1   0.0000
    65 H20      -3.4907    0.0538   -5.7888   H         1 RES1   0.0000
    66 H21      -3.1516   -0.3196   -4.0895   H         1 RES1   0.0000
    67 H22      -3.1423   -2.3292   -6.4033   H         1 RES1   0.0000
    68 H23      -4.4774   -2.0675   -5.2930   H         1 RES1   0.0000
    69 H24      -3.0065   -2.7453   -3.3797   H         1 RES1   0.0000
    70 H25      -1.7162   -3.1133   -4.5352   H         1 RES1   0.0000
    71 H26      -4.4736   -4.4222   -4.5130   H         1 RES1   0.0000
    72 H27      -2.9786   -5.1680   -3.9489   H         1 RES1   0.0000
    73 H28      -3.1804   -4.7803   -5.6584   H         1 RES1   0.0000
    74 H29       0.1553   -2.5921   -6.5941   H         1 RES1   0.0000
    75 H30       1.7909   -2.8949   -6.0010   H         1 RES1   0.0000
    76 H31       0.6902   -0.2526   -7.1044   H         1 RES1   0.0000
    77 H32       1.8882   -1.3140   -7.8309   H         1 RES1   0.0000
    78 H33       3.4687   -0.8237   -5.9869   H         1 RES1   0.0000
    79 H34       2.2484    0.1719   -5.1889   H         1 RES1   0.0000
    80 H35       2.2047    1.6876   -7.1839   H         1 RES1   0.0000
    81 H36       3.4828    0.7197   -7.9249   H         1 RES1   0.0000
    82 H37       3.7102    2.2057   -5.2611   H         1 RES1   0.0000
    83 H38       4.4181    2.7253   -6.7886   H         1 RES1   0.0000
    84 H39       4.9922    1.2512   -6.0122   H         1 RES1   0.0000
    85 H40       1.4606    6.1264    3.0624   H         1 RES1   0.0000
    86 H41       1.2229    5.1659    4.5289   H         1 RES1   0.0000
    87 H42      -1.2042    5.5843    4.4283   H         1 RES1   0.0000
    88 H43      -1.0466    6.4384    2.8971   H         1 RES1   0.0000
    89 H44       0.2350    7.3321    5.5219   H         1 RES1   0.0000
    90 H45      -1.2950    7.9163    4.8891   H         1 RES1   0.0000
    91 H46      -0.1323    8.8130    2.8745   H         1 RES1   0.0000
    92 H47       1.4195    8.2930    3.5519   H         1 RES1   0.0000
    93 H48      -0.4815   10.2995    4.8466   H         1 RES1   0.0000
    94 H49       1.0239   10.6797    4.0140   H         1 RES1   0.0000
    95 H50       1.0599    9.7695    5.5222   H         1 RES1   0.0000
    96 N9       -1.9974   -1.4697    1.0662   N.3       1 RES1   0.0000
    97 O1       -2.8148   -2.1618    1.5843   O.2       1 RES1   0.0000
    98 O2       -1.4926   -1.7656   -0.0301   O.co2     1 RES1   0.0000
    99 O3       -1.5736   -0.4361    1.6141   O.co2     1 RES1   0.0000
   100 N10      -1.4061    1.8497   -1.4690   N.3       1 RES1   0.0000
   101 O4       -1.8961    2.7469   -2.0753   O.2       1 RES1   0.0000
   102 O5       -2.0973    1.0689   -0.7946   O.co2     1 RES1   0.0000
   103 O6       -0.1744    1.6588   -1.4845   O.co2     1 RES1   0.0000
@<TRIPOS>BOND
     1     1     9    1
     2     1    22    1
     3     1    37    1
     4     1    38    1
     5     1    98    1
     6     1    99    1
     7     1   102    1
     8     1   103    1
     9     2     3    1
    10     2    46    1
    11     2    47    1
    12     2    48    1
    13     3     4    1
    14     3    49    1
    15     3    50    1
    16     4     5    1
    17     4    51    1
    18     4    52    1
    19     5     6    1
    20     5    53    1
    21     5    54    1
    22     6     7    1
    23     6    55    1
    24     6    56    1
    25     7     8    1
    26     7    40    2
    27     8     9    2
    28     9    10    1
    29    10    11    1
    30    10    39    2
    31    11    12    1
    32    11    38    2
    33    12    13    2
    34    12    57    1
    35    13    14    1
    36    13    58    1
    37    14    15    2
    38    14    59    1
    39    15    16    1
    40    15    38    1
    41    16    17    1
    42    16    37    2
    43    17    18    2
    44    17    60    1
    45    18    19    1
    46    18    61    1
    47    19    20    2
    48    19    62    1
    49    20    21    1
    50    20    37    1
    51    21    22    1
    52    21    36    2
    53    22    23    2
    54    23    24    1
    55    24    25    1
    56    24    30    2
    57    25    26    1
    58    25    63    1
    59    25    64    1
    60    26    27    1
    61    26    65    1
    62    26    66    1
    63    27    28    1
    64    27    67    1
    65    27    68    1
    66    28    29    1
    67    28    69    1
    68    28    70    1
    69    29    71    1
    70    29    72    1
    71    29    73    1
    72    30    31    1
    73    30    36    1
    74    31    32    1
    75    31    74    1
    76    31    75    1
    77    32    33    1
    78    32    76    1
    79    32    77    1
    80    33    34    1
    81    33    78    1
    82    33    79    1
    83    34    35    1
    84    34    80    1
    85    34    81    1
    86    35    82    1
    87    35    83    1
    88    35    84    1
    89    39    40    1
    90    40    41    1
    91    41    42    1
    92    41    85    1
    93    41    86    1
    94    42    43    1
    95    42    87    1
    96    42    88    1
    97    43    44    1
    98    43    89    1
    99    43    90    1
   100    44    45    1
   101    44    91    1
   102    44    92    1
   103    45    93    1
   104    45    94    1
   105    45    95    1
   106    96    97    2
   107    96    98    1
   108    96    99    1
   109   100   101    2
   110   100   102    1
   111   100   103    1
@<TRIPOS>SUBSTRUCTURE
     1 RES1      103 GROUP             0 ****  ****    0  
