@<TRIPOS>MOLECULE
ICIGOT_geomtry_0_nunpairedes_0_charge_1 Charge: 1 Unpaired_Electrons: 5 XTB_Unpaired_Electrons: 0 XTB_Charge: 1
    87    97     1     0     0
SMALL
NoCharges
****
Generated from Architector

@<TRIPOS>ATOM
     1 Sm1      -0.3798    0.0826   -0.0716   Sm        1 RES1   0.0000
     2 C1        1.2045    2.0006   -5.2093   C.3       1 RES1   0.0000
     3 C2        0.4305    0.6945   -5.4403   C.3       1 RES1   0.0000
     4 C3       -1.0683    1.0111   -5.3636   C.3       1 RES1   0.0000
     5 C4        0.7429    0.1094   -6.8186   C.3       1 RES1   0.0000
     6 C5        2.0996   -0.5707   -6.8433   C.3       1 RES1   0.0000
     7 C6        2.1907   -1.7697   -5.8901   C.3       1 RES1   0.0000
     8 C7        1.4337   -2.9642   -6.4823   C.3       1 RES1   0.0000
     9 C8        3.6706   -2.1436   -5.7481   C.3       1 RES1   0.0000
    10 C9        1.5816   -1.4474   -4.5536   C.ar      1 RES1   0.0000
    11 N1        1.7600   -2.2651   -3.5224   N.ar      1 RES1   0.0000
    12 C10       1.3628   -1.8560   -2.3236   C.ar      1 RES1   0.0000
    13 C11       1.5706   -2.6588   -1.0993   C.ar      1 RES1   0.0000
    14 C12       2.1057   -3.9431   -1.0772   C.ar      1 RES1   0.0000
    15 C13       2.3083   -4.5451    0.1549   C.ar      1 RES1   0.0000
    16 C14       2.0452   -3.8397    1.3168   C.ar      1 RES1   0.0000
    17 C15       1.5666   -2.5311    1.2144   C.ar      1 RES1   0.0000
    18 C16       1.4966   -1.5787    2.3458   C.ar      1 RES1   0.0000
    19 C17       1.8603   -1.9042    3.6498   C.ar      1 RES1   0.0000
    20 C18       1.9771   -0.8916    4.5855   C.ar      1 RES1   0.0000
    21 C19       1.7493    0.4217    4.2082   C.ar      1 RES1   0.0000
    22 C20       1.3593    0.6651    2.8928   C.ar      1 RES1   0.0000
    23 C21       1.1786    2.0051    2.3030   C.ar      1 RES1   0.0000
    24 N2        0.8086    1.9944    1.0143   N.ar      1 RES1   0.0000
    25 N3        0.5804    3.1416    0.4207   N.ar      1 RES1   0.0000
    26 C22       0.8056    4.2823    1.0480   C.ar      1 RES1   0.0000
    27 C23       1.3912    4.2648    2.3424   C.ar      1 RES1   0.0000
    28 N4        1.4996    3.1046    2.9729   N.ar      1 RES1   0.0000
    29 C24       1.9177    5.5091    2.9966   C.3       1 RES1   0.0000
    30 C25       0.9922    5.8657    4.1665   C.3       1 RES1   0.0000
    31 C26       3.3363    5.2835    3.5345   C.3       1 RES1   0.0000
    32 C27       1.9701    6.6683    1.9965   C.3       1 RES1   0.0000
    33 C28       0.7145    6.7768    1.1516   C.3       1 RES1   0.0000
    34 C29       0.4937    5.5356    0.2854   C.3       1 RES1   0.0000
    35 C30       1.4122    5.5718   -0.9430   C.3       1 RES1   0.0000
    36 C31      -0.9630    5.5200   -0.1930   C.3       1 RES1   0.0000
    37 N5        1.2225   -0.3192    2.0008   N.ar      1 RES1   0.0000
    38 N6        1.2942   -1.9916    0.0264   N.ar      1 RES1   0.0000
    39 N7        0.8920   -0.6218   -2.0889   N.ar      1 RES1   0.0000
    40 N8        0.6049    0.1422   -3.1128   N.ar      1 RES1   0.0000
    41 C32       0.8457   -0.2505   -4.3485   C.ar      1 RES1   0.0000
    42 H1        0.9523    2.7191   -5.9852   H         1 RES1   0.0000
    43 H2        2.2779    1.8318   -5.2328   H         1 RES1   0.0000
    44 H3        0.9345    2.4092   -4.2398   H         1 RES1   0.0000
    45 H4       -1.3187    1.7244   -6.1480   H         1 RES1   0.0000
    46 H5       -1.3296    1.4434   -4.4027   H         1 RES1   0.0000
    47 H6       -1.6660    0.1160   -5.5183   H         1 RES1   0.0000
    48 H7        0.7262    0.9111   -7.5602   H         1 RES1   0.0000
    49 H8       -0.0390   -0.6018   -7.0876   H         1 RES1   0.0000
    50 H9        2.8698    0.1538   -6.5772   H         1 RES1   0.0000
    51 H10       2.3069   -0.9164   -7.8565   H         1 RES1   0.0000
    52 H11       1.8473   -3.1988   -7.4607   H         1 RES1   0.0000
    53 H12       0.3780   -2.7363   -6.5950   H         1 RES1   0.0000
    54 H13       1.5407   -3.8247   -5.8308   H         1 RES1   0.0000
    55 H14       4.0682   -2.3738   -6.7355   H         1 RES1   0.0000
    56 H15       3.7951   -3.0090   -5.1058   H         1 RES1   0.0000
    57 H16       4.2446   -1.3151   -5.3363   H         1 RES1   0.0000
    58 H17       2.3401   -4.4439   -1.9977   H         1 RES1   0.0000
    59 H18       2.7120   -5.5423    0.2264   H         1 RES1   0.0000
    60 H19       2.2273   -4.3178    2.2624   H         1 RES1   0.0000
    61 H20       2.0499   -2.9224    3.9331   H         1 RES1   0.0000
    62 H21       2.2962   -1.1114    5.5907   H         1 RES1   0.0000
    63 H22       1.8821    1.2216    4.9134   H         1 RES1   0.0000
    64 H23       0.9934    5.0640    4.8975   H         1 RES1   0.0000
    65 H24      -0.0244    6.0226    3.8187   H         1 RES1   0.0000
    66 H25       1.3459    6.7820    4.6344   H         1 RES1   0.0000
    67 H26       3.3590    4.4878    4.2723   H         1 RES1   0.0000
    68 H27       3.6844    6.2060    3.9961   H         1 RES1   0.0000
    69 H28       4.0205    5.0310    2.7261   H         1 RES1   0.0000
    70 H29       2.8358    6.5330    1.3474   H         1 RES1   0.0000
    71 H30       2.1105    7.5944    2.5543   H         1 RES1   0.0000
    72 H31       0.7951    7.6485    0.5009   H         1 RES1   0.0000
    73 H32      -0.1545    6.9198    1.7931   H         1 RES1   0.0000
    74 H33       2.4595    5.5795   -0.6520   H         1 RES1   0.0000
    75 H34       1.2045    6.4733   -1.5136   H         1 RES1   0.0000
    76 H35       1.2296    4.7028   -1.5678   H         1 RES1   0.0000
    77 H36      -1.6488    5.4869    0.6507   H         1 RES1   0.0000
    78 H37      -1.1664    4.6687   -0.8358   H         1 RES1   0.0000
    79 H38      -1.1571    6.4320   -0.7544   H         1 RES1   0.0000
    80 N9       -2.1452   -1.4925    0.8374   N.3       1 RES1   0.0000
    81 O1       -3.0972   -2.1044    1.1943   O.2       1 RES1   0.0000
    82 O2       -1.6247   -1.6816   -0.2783   O.co2     1 RES1   0.0000
    83 O3       -1.5816   -0.6667    1.5813   O.co2     1 RES1   0.0000
    84 N10      -2.0458    1.7025   -1.1126   N.3       1 RES1   0.0000
    85 O4       -2.6051    2.5972   -1.6609   O.2       1 RES1   0.0000
    86 O5       -1.6151    0.7216   -1.7418   O.co2     1 RES1   0.0000
    87 O6       -1.8462    1.7054    0.1158   O.co2     1 RES1   0.0000
@<TRIPOS>BOND
     1     1    24    1
     2     1    37    1
     3     1    38    1
     4     1    39    1
     5     1    82    1
     6     1    83    1
     7     1    86    1
     8     1    87    1
     9     2     3    1
    10     2    42    1
    11     2    43    1
    12     2    44    1
    13     3     4    1
    14     3     5    1
    15     3    41    1
    16     4    45    1
    17     4    46    1
    18     4    47    1
    19     5     6    1
    20     5    48    1
    21     5    49    1
    22     6     7    1
    23     6    50    1
    24     6    51    1
    25     7     8    1
    26     7     9    1
    27     7    10    1
    28     8    52    1
    29     8    53    1
    30     8    54    1
    31     9    55    1
    32     9    56    1
    33     9    57    1
    34    10    11    1
    35    10    41    2
    36    11    12    2
    37    12    13    1
    38    12    39    1
    39    13    14    1
    40    13    38    2
    41    14    15    2
    42    14    58    1
    43    15    16    1
    44    15    59    1
    45    16    17    2
    46    16    60    1
    47    17    18    1
    48    17    38    1
    49    18    19    1
    50    18    37    2
    51    19    20    2
    52    19    61    1
    53    20    21    1
    54    20    62    1
    55    21    22    2
    56    21    63    1
    57    22    23    1
    58    22    37    1
    59    23    24    1
    60    23    28    2
    61    24    25    2
    62    25    26    1
    63    26    27    2
    64    26    34    1
    65    27    28    1
    66    27    29    1
    67    29    30    1
    68    29    31    1
    69    29    32    1
    70    30    64    1
    71    30    65    1
    72    30    66    1
    73    31    67    1
    74    31    68    1
    75    31    69    1
    76    32    33    1
    77    32    70    1
    78    32    71    1
    79    33    34    1
    80    33    72    1
    81    33    73    1
    82    34    35    1
    83    34    36    1
    84    35    74    1
    85    35    75    1
    86    35    76    1
    87    36    77    1
    88    36    78    1
    89    36    79    1
    90    39    40    2
    91    40    41    1
    92    80    81    2
    93    80    82    1
    94    80    83    1
    95    84    85    2
    96    84    86    1
    97    84    87    1
@<TRIPOS>SUBSTRUCTURE
     1 RES1       87 GROUP             0 ****  ****    0  
