@<TRIPOS>MOLECULE
ICIGOT_geomtry_0_nunpairedes_0_charge_2 Charge: 2 Unpaired_Electrons: 5 XTB_Unpaired_Electrons: 0 XTB_Charge: 2
   135   139     1     0     0
SMALL
NoCharges
****
Generated from Architector

@<TRIPOS>ATOM
     1 Dy1      -0.2584   -0.2030   -0.2048   Dy        1 RES1   0.0000
     2 C1       -4.4430   -4.4428    2.6574   C.3       1 RES1   0.0000
     3 C2       -4.0068   -3.1391    3.3128   C.3       1 RES1   0.0000
     4 C3       -3.9443   -1.9840    2.3078   C.3       1 RES1   0.0000
     5 C4       -3.7183   -0.6594    3.0446   C.3       1 RES1   0.0000
     6 N1       -3.7107    0.5440    2.2056   N.am      1 RES1   0.0000
     7 C5       -4.8549    1.4387    2.3050   C.3       1 RES1   0.0000
     8 C6       -6.1563    0.8811    1.7211   C.3       1 RES1   0.0000
     9 C7       -6.2200    0.8453    0.1896   C.3       1 RES1   0.0000
    10 C8       -5.4310   -0.2891   -0.4599   C.3       1 RES1   0.0000
    11 C9       -2.6339    0.8048    1.4877   C.2       1 RES1   0.0000
    12 O1       -1.6485    0.0348    1.4672   O.2       1 RES1   0.0000
    13 C10      -2.5608    2.0961    0.6561   C.3       1 RES1   0.0000
    14 O2       -1.3580    2.1017   -0.1018   O.3       1 RES1   0.0000
    15 C11      -0.4903    3.2155    0.0482   C.3       1 RES1   0.0000
    16 C12       0.6994    2.8175    0.9295   C.2       1 RES1   0.0000
    17 O3        0.8752    1.5994    1.1201   O.2       1 RES1   0.0000
    18 N2        1.5049    3.7619    1.3937   N.am      1 RES1   0.0000
    19 C13       2.6700    3.3851    2.1934   C.3       1 RES1   0.0000
    20 C14       2.3026    2.7842    3.5512   C.3       1 RES1   0.0000
    21 C15       3.5391    2.5085    4.4108   C.3       1 RES1   0.0000
    22 C16       4.4460    1.4200    3.8504   C.3       1 RES1   0.0000
    23 C17       1.2936    5.1801    1.1409   C.3       1 RES1   0.0000
    24 C18       0.4280    5.8403    2.2200   C.3       1 RES1   0.0000
    25 C19       0.2245    7.3386    1.9776   C.3       1 RES1   0.0000
    26 C20      -0.5664    7.6581    0.7137   C.3       1 RES1   0.0000
    27 H1       -4.4407   -5.2489    3.3849   H         1 RES1   0.0000
    28 H2       -3.7750   -4.7117    1.8459   H         1 RES1   0.0000
    29 H3       -5.4484   -4.3539    2.2554   H         1 RES1   0.0000
    30 H4       -3.0301   -3.2692    3.7833   H         1 RES1   0.0000
    31 H5       -4.7170   -2.8920    4.1034   H         1 RES1   0.0000
    32 H6       -4.8887   -1.9489    1.7663   H         1 RES1   0.0000
    33 H7       -3.1438   -2.1607    1.5814   H         1 RES1   0.0000
    34 H8       -2.7560   -0.7110    3.5605   H         1 RES1   0.0000
    35 H9       -4.5072   -0.5356    3.7868   H         1 RES1   0.0000
    36 H10      -4.6392    2.3797    1.8050   H         1 RES1   0.0000
    37 H11      -4.9986    1.6574    3.3670   H         1 RES1   0.0000
    38 H12      -6.9537    1.5380    2.0726   H         1 RES1   0.0000
    39 H13      -6.3532   -0.1123    2.1200   H         1 RES1   0.0000
    40 H14      -5.8950    1.8063   -0.2169   H         1 RES1   0.0000
    41 H15      -7.2660    0.7219   -0.0958   H         1 RES1   0.0000
    42 H16      -4.3621   -0.2300   -0.2496   H         1 RES1   0.0000
    43 H17      -5.5618   -0.2685   -1.5393   H         1 RES1   0.0000
    44 H18      -5.7999   -1.2498   -0.1082   H         1 RES1   0.0000
    45 H19      -2.6087    2.9679    1.3133   H         1 RES1   0.0000
    46 H20      -3.4020    2.1236   -0.0492   H         1 RES1   0.0000
    47 H21      -1.0233    4.0916    0.4129   H         1 RES1   0.0000
    48 H22      -0.0941    3.4313   -0.9534   H         1 RES1   0.0000
    49 H23       3.2752    4.2778    2.3596   H         1 RES1   0.0000
    50 H24       3.2489    2.6638    1.6130   H         1 RES1   0.0000
    51 H25       1.7405    1.8611    3.4010   H         1 RES1   0.0000
    52 H26       1.6579    3.4859    4.0834   H         1 RES1   0.0000
    53 H27       3.2074    2.2063    5.4052   H         1 RES1   0.0000
    54 H28       4.1109    3.4298    4.5254   H         1 RES1   0.0000
    55 H29       3.8897    0.4971    3.7010   H         1 RES1   0.0000
    56 H30       5.2535    1.2200    4.5477   H         1 RES1   0.0000
    57 H31       4.8901    1.7167    2.9045   H         1 RES1   0.0000
    58 H32       0.8444    5.3073    0.1573   H         1 RES1   0.0000
    59 H33       2.2681    5.6738    1.1221   H         1 RES1   0.0000
    60 H34       0.9163    5.7095    3.1857   H         1 RES1   0.0000
    61 H35      -0.5455    5.3476    2.2755   H         1 RES1   0.0000
    62 H36       1.1982    7.8277    1.9299   H         1 RES1   0.0000
    63 H37      -0.3093    7.7516    2.8353   H         1 RES1   0.0000
    64 H38      -0.0230    7.3754   -0.1844   H         1 RES1   0.0000
    65 H39      -0.7528    8.7267    0.6634   H         1 RES1   0.0000
    66 H40      -1.5290    7.1504    0.7178   H         1 RES1   0.0000
    67 C21      -1.6942   -6.9535    1.6603   C.3       1 RES1   0.0000
    68 C22      -1.3329   -5.9049    0.6181   C.3       1 RES1   0.0000
    69 C23      -0.0804   -5.0907    0.9454   C.3       1 RES1   0.0000
    70 C24      -0.2009   -4.3122    2.2592   C.3       1 RES1   0.0000
    71 N3        0.9810   -3.4757    2.4842   N.am      1 RES1   0.0000
    72 C25       1.9176   -3.8790    3.5173   C.3       1 RES1   0.0000
    73 C26       1.3437   -3.8145    4.9382   C.3       1 RES1   0.0000
    74 C27       1.0237   -2.4123    5.4626   C.3       1 RES1   0.0000
    75 C28      -0.2598   -1.8016    4.9027   C.3       1 RES1   0.0000
    76 C29       1.1170   -2.4320    1.6906   C.2       1 RES1   0.0000
    77 O4        0.2273   -2.1140    0.8743   O.2       1 RES1   0.0000
    78 C30       2.3685   -1.5413    1.7036   C.3       1 RES1   0.0000
    79 O5        2.2129   -0.6354    0.6172   O.3       1 RES1   0.0000
    80 C31       3.2530   -0.6016   -0.3426   C.3       1 RES1   0.0000
    81 C32       2.6269   -0.0597   -1.6259   C.2       1 RES1   0.0000
    82 O6        1.3894    0.1324   -1.6296   O.2       1 RES1   0.0000
    83 N4        3.3648    0.1660   -2.6967   N.am      1 RES1   0.0000
    84 C33       4.8237    0.1349   -2.6977   C.3       1 RES1   0.0000
    85 C34       5.5331   -1.1986   -2.4207   C.3       1 RES1   0.0000
    86 C35       5.1036   -2.3559   -3.3264   C.3       1 RES1   0.0000
    87 C36       3.8137   -3.0585   -2.9047   C.3       1 RES1   0.0000
    88 C37       2.6433    0.6237   -3.8923   C.3       1 RES1   0.0000
    89 C38       1.8288   -0.4940   -4.5516   C.3       1 RES1   0.0000
    90 C39       1.0897   -0.0154   -5.8028   C.3       1 RES1   0.0000
    91 C40      -0.0475    0.9553   -5.5164   C.3       1 RES1   0.0000
    92 H41      -2.5258   -7.5522    1.3028   H         1 RES1   0.0000
    93 H42      -0.8576   -7.6206    1.8456   H         1 RES1   0.0000
    94 H43      -1.9938   -6.4997    2.6000   H         1 RES1   0.0000
    95 H44      -1.1679   -6.4024   -0.3370   H         1 RES1   0.0000
    96 H45      -2.1661   -5.2158    0.4779   H         1 RES1   0.0000
    97 H46       0.7883   -5.7504    1.0026   H         1 RES1   0.0000
    98 H47       0.0764   -4.3817    0.1293   H         1 RES1   0.0000
    99 H48      -1.0776   -3.6614    2.2158   H         1 RES1   0.0000
   100 H49      -0.2984   -5.0047    3.0909   H         1 RES1   0.0000
   101 H50       2.2222   -4.9091    3.3104   H         1 RES1   0.0000
   102 H51       2.8028   -3.2459    3.4765   H         1 RES1   0.0000
   103 H52       0.4496   -4.4316    5.0166   H         1 RES1   0.0000
   104 H53       2.0986   -4.2545    5.5912   H         1 RES1   0.0000
   105 H54       0.9058   -2.4878    6.5452   H         1 RES1   0.0000
   106 H55       1.8661   -1.7418    5.2789   H         1 RES1   0.0000
   107 H56      -1.0911   -2.4884    5.0495   H         1 RES1   0.0000
   108 H57      -0.4923   -0.8807    5.4350   H         1 RES1   0.0000
   109 H58      -0.1814   -1.5660    3.8419   H         1 RES1   0.0000
   110 H59       2.3891   -0.9503    2.6274   H         1 RES1   0.0000
   111 H60       3.2880   -2.1256    1.6185   H         1 RES1   0.0000
   112 H61       4.0760    0.0406    0.0017   H         1 RES1   0.0000
   113 H62       3.6401   -1.6067   -0.5397   H         1 RES1   0.0000
   114 H63       5.1451    0.4592   -3.6876   H         1 RES1   0.0000
   115 H64       5.1762    0.8772   -1.9730   H         1 RES1   0.0000
   116 H65       6.5910   -0.9994   -2.6022   H         1 RES1   0.0000
   117 H66       5.4631   -1.5051   -1.3778   H         1 RES1   0.0000
   118 H67       5.0078   -1.9904   -4.3496   H         1 RES1   0.0000
   119 H68       5.8989   -3.1033   -3.3226   H         1 RES1   0.0000
   120 H69       2.9560   -2.3906   -2.9009   H         1 RES1   0.0000
   121 H70       3.5987   -3.8667   -3.6005   H         1 RES1   0.0000
   122 H71       3.9188   -3.4974   -1.9127   H         1 RES1   0.0000
   123 H72       1.9696    1.4278   -3.5855   H         1 RES1   0.0000
   124 H73       3.3584    1.0191   -4.6120   H         1 RES1   0.0000
   125 H74       2.5090   -1.2969   -4.8390   H         1 RES1   0.0000
   126 H75       1.1018   -0.8906   -3.8361   H         1 RES1   0.0000
   127 H76       1.8046    0.4437   -6.4863   H         1 RES1   0.0000
   128 H77       0.6767   -0.8921   -6.3016   H         1 RES1   0.0000
   129 H78       0.3191    1.9080   -5.1454   H         1 RES1   0.0000
   130 H79      -0.5994    1.1451   -6.4315   H         1 RES1   0.0000
   131 H80      -0.7375    0.5399   -4.7862   H         1 RES1   0.0000
   132 N5       -1.8294   -0.8667   -2.0646   N.3       1 RES1   0.0000
   133 O7       -2.5851   -1.1750   -2.9261   O.2       1 RES1   0.0000
   134 O8       -1.3422   -1.6955   -1.2739   O.co2     1 RES1   0.0000
   135 O9       -1.4742    0.3165   -1.8902   O.co2     1 RES1   0.0000
@<TRIPOS>BOND
     1     1    12    1
     2     1    14    1
     3     1    17    1
     4     1    77    1
     5     1    79    1
     6     1    82    1
     7     1   134    1
     8     1   135    1
     9     2     3    1
    10     2    27    1
    11     2    28    1
    12     2    29    1
    13     3     4    1
    14     3    30    1
    15     3    31    1
    16     4     5    1
    17     4    32    1
    18     4    33    1
    19     5     6    1
    20     5    34    1
    21     5    35    1
    22     6     7    1
    23     6    11    1
    24     7     8    1
    25     7    36    1
    26     7    37    1
    27     8     9    1
    28     8    38    1
    29     8    39    1
    30     9    10    1
    31     9    40    1
    32     9    41    1
    33    10    42    1
    34    10    43    1
    35    10    44    1
    36    11    12    2
    37    11    13    1
    38    13    14    1
    39    13    45    1
    40    13    46    1
    41    14    15    1
    42    15    16    1
    43    15    47    1
    44    15    48    1
    45    16    17    2
    46    16    18    1
    47    18    19    1
    48    18    23    1
    49    19    20    1
    50    19    49    1
    51    19    50    1
    52    20    21    1
    53    20    51    1
    54    20    52    1
    55    21    22    1
    56    21    53    1
    57    21    54    1
    58    22    55    1
    59    22    56    1
    60    22    57    1
    61    23    24    1
    62    23    58    1
    63    23    59    1
    64    24    25    1
    65    24    60    1
    66    24    61    1
    67    25    26    1
    68    25    62    1
    69    25    63    1
    70    26    64    1
    71    26    65    1
    72    26    66    1
    73    67    68    1
    74    67    92    1
    75    67    93    1
    76    67    94    1
    77    68    69    1
    78    68    95    1
    79    68    96    1
    80    69    70    1
    81    69    97    1
    82    69    98    1
    83    70    71    1
    84    70    99    1
    85    70   100    1
    86    71    72    1
    87    71    76    1
    88    72    73    1
    89    72   101    1
    90    72   102    1
    91    73    74    1
    92    73   103    1
    93    73   104    1
    94    74    75    1
    95    74   105    1
    96    74   106    1
    97    75   107    1
    98    75   108    1
    99    75   109    1
   100    76    77    2
   101    76    78    1
   102    78    79    1
   103    78   110    1
   104    78   111    1
   105    79    80    1
   106    80    81    1
   107    80   112    1
   108    80   113    1
   109    81    82    2
   110    81    83    1
   111    83    84    1
   112    83    88    1
   113    84    85    1
   114    84   114    1
   115    84   115    1
   116    85    86    1
   117    85   116    1
   118    85   117    1
   119    86    87    1
   120    86   118    1
   121    86   119    1
   122    87   120    1
   123    87   121    1
   124    87   122    1
   125    88    89    1
   126    88   123    1
   127    88   124    1
   128    89    90    1
   129    89   125    1
   130    89   126    1
   131    90    91    1
   132    90   127    1
   133    90   128    1
   134    91   129    1
   135    91   130    1
   136    91   131    1
   137   132   133    2
   138   132   134    1
   139   132   135    1
@<TRIPOS>SUBSTRUCTURE
     1 RES1      135 GROUP             0 ****  ****    0  
