@<TRIPOS>MOLECULE
axial_bicapped_trigonal_prismatic_0_nunpairedes_0_charge_2 Charge: 2 Unpaired_Electrons: 5 XTB_Unpaired_Electrons: 0 XTB_Charge: 2
   115   129     1     0     0
SMALL
NoCharges
****
Generated from Architector

@<TRIPOS>ATOM
     1 Dy1      -0.7645   -1.4821    0.1768   Dy        1 RES1   0.0000
     2 C1        4.1065   -1.2497    5.6623   C.3       1 RES1   0.0000
     3 C2        4.1968   -0.3624    4.4263   C.3       1 RES1   0.0000
     4 C3        3.0822   -0.6433    3.4135   C.3       1 RES1   0.0000
     5 C4        1.7000   -0.1900    3.8931   C.3       1 RES1   0.0000
     6 C5        1.4642    1.3161    3.7566   C.3       1 RES1   0.0000
     7 C6        1.1913    1.7603    2.3115   C.3       1 RES1   0.0000
     8 N1       -0.2061    2.1266    2.0709   N.ar      1 RES1   0.0000
     9 C7       -0.6620    3.4294    2.0956   C.ar      1 RES1   0.0000
    10 C8        0.3533    4.4905    2.2971   C.ar      1 RES1   0.0000
    11 C9        1.1679    4.7539    1.1921   C.ar      1 RES1   0.0000
    12 C10       2.1536    5.7203    1.2557   C.ar      1 RES1   0.0000
    13 C11       2.3421    6.4366    2.4281   C.ar      1 RES1   0.0000
    14 C12       1.5178    6.1964    3.5162   C.ar      1 RES1   0.0000
    15 C13       0.5209    5.2327    3.4565   C.ar      1 RES1   0.0000
    16 C14      -1.9484    3.7567    1.7234   C.ar      1 RES1   0.0000
    17 C15      -2.4758    5.0953    2.0847   C.ar      1 RES1   0.0000
    18 C16      -2.1877    6.2604    1.3867   C.ar      1 RES1   0.0000
    19 C17      -2.6300    7.4823    1.8685   C.ar      1 RES1   0.0000
    20 C18      -3.3535    7.5479    3.0471   C.ar      1 RES1   0.0000
    21 C19      -3.6555    6.3863    3.7389   C.ar      1 RES1   0.0000
    22 C20      -3.2262    5.1626    3.2581   C.ar      1 RES1   0.0000
    23 C21      -2.6956    2.7971    0.9653   C.ar      1 RES1   0.0000
    24 C22      -3.6520    3.1037   -0.0271   C.ar      1 RES1   0.0000
    25 C23      -3.7705    2.2318   -1.1078   C.ar      1 RES1   0.0000
    26 C24      -4.3211    2.6020   -2.3882   C.ar      1 RES1   0.0000
    27 C25      -3.8018    2.0851   -3.5276   C.ar      1 RES1   0.0000
    28 C26      -2.7236    1.1299   -3.4820   C.ar      1 RES1   0.0000
    29 C27      -1.7312    0.9988   -4.4697   C.ar      1 RES1   0.0000
    30 C28      -0.5913    0.2574   -4.1813   C.ar      1 RES1   0.0000
    31 C29       0.8300    0.2262   -4.6155   C.ar      1 RES1   0.0000
    32 C30       1.6131   -0.8029   -5.1798   C.ar      1 RES1   0.0000
    33 C31       1.1474   -1.9825   -5.7942   C.ar      1 RES1   0.0000
    34 C32       2.0555   -2.8717   -6.3258   C.ar      1 RES1   0.0000
    35 C33       3.4270   -2.6340   -6.2508   C.ar      1 RES1   0.0000
    36 C34       3.9040   -1.4874   -5.6246   C.ar      1 RES1   0.0000
    37 C35       3.0114   -0.5665   -5.1397   C.ar      1 RES1   0.0000
    38 C36       1.4377    1.0146   -3.5780   C.ar      1 RES1   0.0000
    39 C37       1.1709    2.4297   -3.4570   C.ar      1 RES1   0.0000
    40 C38       0.5177    2.9925   -2.3557   C.ar      1 RES1   0.0000
    41 C39       0.1962    4.3365   -2.3619   C.ar      1 RES1   0.0000
    42 C40       0.5738    5.1499   -3.4237   C.ar      1 RES1   0.0000
    43 C41       1.2112    4.5993   -4.5258   C.ar      1 RES1   0.0000
    44 C42       1.4851    3.2450   -4.5533   C.ar      1 RES1   0.0000
    45 N2        1.7220    0.1698   -2.4809   N.ar      1 RES1   0.0000
    46 C43       2.8792    0.3646   -1.6047   C.3       1 RES1   0.0000
    47 C44       3.3594   -0.8832   -0.8576   C.3       1 RES1   0.0000
    48 C45       3.5979   -2.1024   -1.7615   C.3       1 RES1   0.0000
    49 C46       3.2942   -3.4185   -1.0387   C.3       1 RES1   0.0000
    50 C47       3.1542   -4.5903   -2.0109   C.3       1 RES1   0.0000
    51 C48       2.6855   -5.8532   -1.2973   C.3       1 RES1   0.0000
    52 C49       0.7446   -0.7302   -2.2585   C.ar      1 RES1   0.0000
    53 O1        0.7339   -1.5744   -1.3268   O.2       1 RES1   0.0000
    54 C50      -0.5565   -0.4407   -2.9501   C.ar      1 RES1   0.0000
    55 N3       -1.5300   -0.4371   -2.0557   N.ar      1 RES1   0.0000
    56 C51      -2.5493    0.4224   -2.2662   C.ar      1 RES1   0.0000
    57 C52      -3.0773    0.9874   -1.0509   C.ar      1 RES1   0.0000
    58 N4       -2.4886    0.5385    0.0629   N.ar      1 RES1   0.0000
    59 C53      -2.2167    1.4663    0.9975   C.ar      1 RES1   0.0000
    60 C54      -1.0256    1.1132    1.7339   C.ar      1 RES1   0.0000
    61 O2       -0.6430   -0.0944    1.7908   O.2       1 RES1   0.0000
    62 H1        4.9390   -1.0522    6.3318   H         1 RES1   0.0000
    63 H2        4.1385   -2.2977    5.3766   H         1 RES1   0.0000
    64 H3        3.1871   -1.0758    6.2146   H         1 RES1   0.0000
    65 H4        5.1593   -0.5407    3.9434   H         1 RES1   0.0000
    66 H5        4.1758    0.6878    4.7259   H         1 RES1   0.0000
    67 H6        3.0503   -1.7188    3.2263   H         1 RES1   0.0000
    68 H7        3.3269   -0.1517    2.4667   H         1 RES1   0.0000
    69 H8        1.5950   -0.4518    4.9438   H         1 RES1   0.0000
    70 H9        0.9364   -0.7447    3.3407   H         1 RES1   0.0000
    71 H10       2.3387    1.8493    4.1274   H         1 RES1   0.0000
    72 H11       0.6220    1.6128    4.3822   H         1 RES1   0.0000
    73 H12       1.4133    0.9294    1.6222   H         1 RES1   0.0000
    74 H13       1.8019    2.6179    2.0400   H         1 RES1   0.0000
    75 H14       1.0174    4.1945    0.2780   H         1 RES1   0.0000
    76 H15       2.7775    5.9034    0.3928   H         1 RES1   0.0000
    77 H16       3.1267    7.1780    2.4829   H         1 RES1   0.0000
    78 H17       1.6535    6.7561    4.4290   H         1 RES1   0.0000
    79 H18      -0.1176    5.0605    4.3090   H         1 RES1   0.0000
    80 H19      -1.6169    6.2124    0.4703   H         1 RES1   0.0000
    81 H20      -2.3990    8.3889    1.3307   H         1 RES1   0.0000
    82 H21      -3.6738    8.5038    3.4303   H         1 RES1   0.0000
    83 H22      -4.2129    6.4250    4.6621   H         1 RES1   0.0000
    84 H23      -3.4590    4.2541    3.7964   H         1 RES1   0.0000
    85 H24      -4.1429    4.0666   -0.0424   H         1 RES1   0.0000
    86 H25      -5.0806    3.3687   -2.4219   H         1 RES1   0.0000
    87 H26      -4.1389    2.4299   -4.4930   H         1 RES1   0.0000
    88 H27      -1.7974    1.5680   -5.3819   H         1 RES1   0.0000
    89 H28       0.0870   -2.1835   -5.8256   H         1 RES1   0.0000
    90 H29       1.7114   -3.7686   -6.8151   H         1 RES1   0.0000
    91 H30       4.1233   -3.3277   -6.6970   H         1 RES1   0.0000
    92 H31       4.9635   -1.2934   -5.5625   H         1 RES1   0.0000
    93 H32       3.3531    0.3743   -4.7312   H         1 RES1   0.0000
    94 H33       0.2100    2.3463   -1.5359   H         1 RES1   0.0000
    95 H34      -0.3600    4.7666   -1.5412   H         1 RES1   0.0000
    96 H35       0.3665    6.2099   -3.3934   H         1 RES1   0.0000
    97 H36       1.4943    5.2222   -5.3628   H         1 RES1   0.0000
    98 H37       1.9671    2.8035   -5.4124   H         1 RES1   0.0000
    99 H38       2.6442    1.1491   -0.8779   H         1 RES1   0.0000
   100 H39       3.6806    0.7352   -2.2440   H         1 RES1   0.0000
   101 H40       2.6403   -1.1514   -0.0726   H         1 RES1   0.0000
   102 H41       4.2900   -0.6057   -0.3610   H         1 RES1   0.0000
   103 H42       4.6245   -2.1135   -2.1301   H         1 RES1   0.0000
   104 H43       2.9513   -2.0495   -2.6411   H         1 RES1   0.0000
   105 H44       2.3465   -3.3135   -0.4948   H         1 RES1   0.0000
   106 H45       4.0743   -3.6374   -0.3073   H         1 RES1   0.0000
   107 H46       4.1093   -4.7785   -2.5059   H         1 RES1   0.0000
   108 H47       2.4261   -4.3227   -2.7836   H         1 RES1   0.0000
   109 H48       3.4023   -6.1508   -0.5370   H         1 RES1   0.0000
   110 H49       2.5738   -6.6715   -2.0031   H         1 RES1   0.0000
   111 H50       1.7232   -5.6843   -0.8162   H         1 RES1   0.0000
   112 N5       -0.1932   -3.3820    1.5504   N.3       1 RES1   0.0000
   113 O3       -0.0290   -4.2026    2.3744   O.2       1 RES1   0.0000
   114 O4        0.6520   -2.4937    1.3057   O.co2     1 RES1   0.0000
   115 O5       -1.2473   -3.3188    0.8603   O.co2     1 RES1   0.0000
@<TRIPOS>BOND
     1     1     8    1
     2     1    45    1
     3     1    53    1
     4     1    55    1
     5     1    58    1
     6     1    61    1
     7     1   114    1
     8     1   115    1
     9     2     3    1
    10     2    62    1
    11     2    63    1
    12     2    64    1
    13     3     4    1
    14     3    65    1
    15     3    66    1
    16     4     5    1
    17     4    67    1
    18     4    68    1
    19     5     6    1
    20     5    69    1
    21     5    70    1
    22     6     7    1
    23     6    71    1
    24     6    72    1
    25     7     8    1
    26     7    73    1
    27     7    74    1
    28     8     9    1
    29     8    60    1
    30     9    10    1
    31     9    16    2
    32    10    11    1
    33    10    15    2
    34    11    12    2
    35    11    75    1
    36    12    13    1
    37    12    76    1
    38    13    14    2
    39    13    77    1
    40    14    15    1
    41    14    78    1
    42    15    79    1
    43    16    17    1
    44    16    23    1
    45    17    18    1
    46    17    22    2
    47    18    19    2
    48    18    80    1
    49    19    20    1
    50    19    81    1
    51    20    21    2
    52    20    82    1
    53    21    22    1
    54    21    83    1
    55    22    84    1
    56    23    24    1
    57    23    59    2
    58    24    25    2
    59    24    85    1
    60    25    26    1
    61    25    57    1
    62    26    27    2
    63    26    86    1
    64    27    28    1
    65    27    87    1
    66    28    29    1
    67    28    56    2
    68    29    30    2
    69    29    88    1
    70    30    31    1
    71    30    54    1
    72    31    32    1
    73    31    38    2
    74    32    33    1
    75    32    37    2
    76    33    34    2
    77    33    89    1
    78    34    35    1
    79    34    90    1
    80    35    36    2
    81    35    91    1
    82    36    37    1
    83    36    92    1
    84    37    93    1
    85    38    39    1
    86    38    45    1
    87    39    40    1
    88    39    44    2
    89    40    41    2
    90    40    94    1
    91    41    42    1
    92    41    95    1
    93    42    43    2
    94    42    96    1
    95    43    44    1
    96    43    97    1
    97    44    98    1
    98    45    46    1
    99    45    52    1
   100    46    47    1
   101    46    99    1
   102    46   100    1
   103    47    48    1
   104    47   101    1
   105    47   102    1
   106    48    49    1
   107    48   103    1
   108    48   104    1
   109    49    50    1
   110    49   105    1
   111    49   106    1
   112    50    51    1
   113    50   107    1
   114    50   108    1
   115    51   109    1
   116    51   110    1
   117    51   111    1
   118    52    53    2
   119    52    54    1
   120    54    55    2
   121    55    56    1
   122    56    57    1
   123    57    58    2
   124    58    59    1
   125    59    60    1
   126    60    61    2
   127   112   113    2
   128   112   114    1
   129   112   115    1
@<TRIPOS>SUBSTRUCTURE
     1 RES1      115 GROUP             0 ****  ****    0  
