@<TRIPOS>MOLECULE
YEMSEP_geometry_0_nunpairedes_0_charge_3 Charge: 3 Unpaired_Electrons: 5 XTB_Unpaired_Electrons: 0 XTB_Charge: 3
   281   288     1     0     0
SMALL
NoCharges
****
Generated from Architector

@<TRIPOS>ATOM
     1 Dy1       0.0802    0.0662    0.0309   Dy        1 RES1   0.0000
     2 C1        3.8456    5.1159   -5.0160   C.3       1 RES1   0.0000
     3 C2        2.4385    4.8412   -5.5347   C.3       1 RES1   0.0000
     4 C3        2.0102    3.3714   -5.4841   C.3       1 RES1   0.0000
     5 C4        2.8014    2.4383   -6.4034   C.3       1 RES1   0.0000
     6 C5        4.1541    1.9334   -5.9017   C.3       1 RES1   0.0000
     7 C6        4.1320    0.8806   -4.7866   C.3       1 RES1   0.0000
     8 C7        4.1037    1.4314   -3.3629   C.3       1 RES1   0.0000
     9 C8        4.4849    0.3970   -2.3012   C.3       1 RES1   0.0000
    10 P1        3.0985   -0.7560   -2.0028   P.3       1 RES1   0.0000
    11 O1        1.8257    0.0281   -1.8584   O.2       1 RES1   0.0000
    12 C9        3.4073   -1.6598   -0.4336   C.3       1 RES1   0.0000
    13 C10       3.5678   -0.6494    0.6745   C.2       1 RES1   0.0000
    14 O2        2.6684    0.2090    0.7800   O.2       1 RES1   0.0000
    15 N1        4.6060   -0.7491    1.5053   N.am      1 RES1   0.0000
    16 C11       5.8088   -1.5337    1.2712   C.3       1 RES1   0.0000
    17 C12       6.9379   -0.6960    0.6299   C.3       1 RES1   0.0000
    18 C13       7.5555    0.2948    1.6159   C.3       1 RES1   0.0000
    19 C14       8.0316   -1.6151    0.0861   C.3       1 RES1   0.0000
    20 C15       4.6861    0.0624    2.7134   C.3       1 RES1   0.0000
    21 C16       3.4065    0.1111    3.5414   C.3       1 RES1   0.0000
    22 C17       3.7838    0.7375    4.8804   C.3       1 RES1   0.0000
    23 C18       2.8025   -1.2752    3.6963   C.3       1 RES1   0.0000
    24 C19       3.2478   -2.2038   -3.1317   C.ar      1 RES1   0.0000
    25 C20       4.2354   -2.2934   -4.1025   C.ar      1 RES1   0.0000
    26 C21       4.3974   -3.4316   -4.8756   C.ar      1 RES1   0.0000
    27 C22       3.5770   -4.5289   -4.6724   C.ar      1 RES1   0.0000
    28 C23       2.6240   -4.4796   -3.6697   C.ar      1 RES1   0.0000
    29 C24       2.4671   -3.3354   -2.9008   C.ar      1 RES1   0.0000
    30 H1        3.9688    6.1774   -4.8189   H         1 RES1   0.0000
    31 H2        4.5956    4.8281   -5.7459   H         1 RES1   0.0000
    32 H3        4.0268    4.5707   -4.0916   H         1 RES1   0.0000
    33 H4        2.3571    5.1936   -6.5642   H         1 RES1   0.0000
    34 H5        1.7250    5.4222   -4.9418   H         1 RES1   0.0000
    35 H6        0.9660    3.3362   -5.8083   H         1 RES1   0.0000
    36 H7        2.0486    3.0050   -4.4560   H         1 RES1   0.0000
    37 H8        2.9647    2.9635   -7.3460   H         1 RES1   0.0000
    38 H9        2.1860    1.5639   -6.6296   H         1 RES1   0.0000
    39 H10       4.7820    2.7590   -5.5798   H         1 RES1   0.0000
    40 H11       4.6431    1.4807   -6.7669   H         1 RES1   0.0000
    41 H12       5.0643    0.3298   -4.8987   H         1 RES1   0.0000
    42 H13       3.3061    0.1802   -4.9428   H         1 RES1   0.0000
    43 H14       3.1028    1.7834   -3.1179   H         1 RES1   0.0000
    44 H15       4.7791    2.2880   -3.3092   H         1 RES1   0.0000
    45 H16       4.6465    0.9200   -1.3569   H         1 RES1   0.0000
    46 H17       5.3982   -0.1392   -2.5485   H         1 RES1   0.0000
    47 H18       4.2209   -2.3580   -0.5746   H         1 RES1   0.0000
    48 H19       2.4902   -2.2212   -0.2097   H         1 RES1   0.0000
    49 H20       5.6089   -2.3982    0.6422   H         1 RES1   0.0000
    50 H21       6.1613   -1.9150    2.2324   H         1 RES1   0.0000
    51 H22       6.5022   -0.1437   -0.2095   H         1 RES1   0.0000
    52 H23       7.8299   -0.2119    2.5375   H         1 RES1   0.0000
    53 H24       6.8783    1.1057    1.8572   H         1 RES1   0.0000
    54 H25       8.4476    0.7426    1.1884   H         1 RES1   0.0000
    55 H26       8.4759   -2.1847    0.8971   H         1 RES1   0.0000
    56 H27       8.8166   -1.0261   -0.3856   H         1 RES1   0.0000
    57 H28       7.6332   -2.3149   -0.6457   H         1 RES1   0.0000
    58 H29       4.9661    1.0843    2.4596   H         1 RES1   0.0000
    59 H30       5.4676   -0.3862    3.3321   H         1 RES1   0.0000
    60 H31       2.6704    0.7493    3.0441   H         1 RES1   0.0000
    61 H32       4.5063    0.1204    5.4068   H         1 RES1   0.0000
    62 H33       2.9195    0.8597    5.5229   H         1 RES1   0.0000
    63 H34       4.2211    1.7188    4.7186   H         1 RES1   0.0000
    64 H35       1.9382   -1.2059    4.3380   H         1 RES1   0.0000
    65 H36       3.5160   -1.9664    4.1358   H         1 RES1   0.0000
    66 H37       2.4572   -1.6547    2.7337   H         1 RES1   0.0000
    67 H38       4.9122   -1.4780   -4.2662   H         1 RES1   0.0000
    68 H39       5.1795   -3.4704   -5.6199   H         1 RES1   0.0000
    69 H40       3.6911   -5.4199   -5.2723   H         1 RES1   0.0000
    70 H41       1.9977   -5.3411   -3.4800   H         1 RES1   0.0000
    71 H42       1.7245   -3.3202   -2.1125   H         1 RES1   0.0000
    72 C25      -3.4584   -1.9646    7.7793   C.3       1 RES1   0.0000
    73 C26      -4.0268   -0.7016    7.1446   C.3       1 RES1   0.0000
    74 C27      -5.0819   -0.9931    6.0745   C.3       1 RES1   0.0000
    75 C28      -4.5235   -1.4959    4.7330   C.3       1 RES1   0.0000
    76 C29      -4.4916   -3.0229    4.5725   C.3       1 RES1   0.0000
    77 C30      -3.2727   -3.6089    3.8450   C.3       1 RES1   0.0000
    78 C31      -2.8992   -3.0239    2.4704   C.3       1 RES1   0.0000
    79 C32      -1.7833   -3.8845    1.8633   C.3       1 RES1   0.0000
    80 P2       -0.7161   -3.3019    0.4799   P.3       1 RES1   0.0000
    81 O3        0.0323   -2.0390    0.8009   O.2       1 RES1   0.0000
    82 C33      -1.7879   -3.0545   -1.0286   C.3       1 RES1   0.0000
    83 C34      -1.0154   -2.4638   -2.2095   C.2       1 RES1   0.0000
    84 O4       -0.3488   -1.4500   -1.9363   O.2       1 RES1   0.0000
    85 N2       -1.0584   -2.9674   -3.4654   N.am      1 RES1   0.0000
    86 C35      -0.0135   -2.5348   -4.4508   C.3       1 RES1   0.0000
    87 C36       0.1628   -1.2416   -5.3008   C.3       1 RES1   0.0000
    88 C37       0.2228    0.0571   -4.5075   C.3       1 RES1   0.0000
    89 C38      -0.6722   -1.0887   -6.5720   C.3       1 RES1   0.0000
    90 C39      -1.3911   -4.3865   -3.6868   C.3       1 RES1   0.0000
    91 C40      -2.3439   -4.8554   -4.8173   C.3       1 RES1   0.0000
    92 C41      -3.8195   -4.6520   -4.4731   C.3       1 RES1   0.0000
    93 C42      -2.0632   -4.3275   -6.2188   C.3       1 RES1   0.0000
    94 C43       0.4772   -4.6550    0.3039   C.ar      1 RES1   0.0000
    95 C44       1.3299   -4.8366    1.3900   C.ar      1 RES1   0.0000
    96 C45       2.2486   -5.8687    1.3957   C.ar      1 RES1   0.0000
    97 C46       2.3341   -6.7133    0.2992   C.ar      1 RES1   0.0000
    98 C47       1.5024   -6.5258   -0.7911   C.ar      1 RES1   0.0000
    99 C48       0.5654   -5.5073   -0.7847   C.ar      1 RES1   0.0000
   100 H43      -2.7604   -1.7115    8.5735   H         1 RES1   0.0000
   101 H44      -2.9438   -2.5797    7.0460   H         1 RES1   0.0000
   102 H45      -4.2622   -2.5493    8.2184   H         1 RES1   0.0000
   103 H46      -3.2212   -0.0992    6.7097   H         1 RES1   0.0000
   104 H47      -4.4889   -0.0973    7.9284   H         1 RES1   0.0000
   105 H48      -5.6408   -0.0704    5.9002   H         1 RES1   0.0000
   106 H49      -5.7919   -1.7204    6.4657   H         1 RES1   0.0000
   107 H50      -3.5292   -1.0699    4.5787   H         1 RES1   0.0000
   108 H51      -5.1629   -1.1051    3.9471   H         1 RES1   0.0000
   109 H52      -5.3990   -3.3289    4.0502   H         1 RES1   0.0000
   110 H53      -4.5155   -3.4913    5.5567   H         1 RES1   0.0000
   111 H54      -3.4665   -4.6766    3.7221   H         1 RES1   0.0000
   112 H55      -2.4040   -3.5190    4.4961   H         1 RES1   0.0000
   113 H56      -2.5530   -1.9930    2.5807   H         1 RES1   0.0000
   114 H57      -3.7782   -3.0333    1.8225   H         1 RES1   0.0000
   115 H58      -2.1891   -4.8454    1.5454   H         1 RES1   0.0000
   116 H59      -1.0535   -4.0956    2.6524   H         1 RES1   0.0000
   117 H60      -2.4655   -2.2719   -0.6603   H         1 RES1   0.0000
   118 H61      -2.3945   -3.9303   -1.2222   H         1 RES1   0.0000
   119 H62       0.0184   -3.3411   -5.1801   H         1 RES1   0.0000
   120 H63       0.9049   -2.5565   -3.8701   H         1 RES1   0.0000
   121 H64       1.1891   -1.4075   -5.6639   H         1 RES1   0.0000
   122 H65      -0.7103    0.2625   -3.9971   H         1 RES1   0.0000
   123 H66       0.4442    0.8864   -5.1750   H         1 RES1   0.0000
   124 H67       1.0058   -0.0044   -3.7606   H         1 RES1   0.0000
   125 H68      -1.7116   -0.8716   -6.3774   H         1 RES1   0.0000
   126 H69      -0.5980   -1.9758   -7.1928   H         1 RES1   0.0000
   127 H70      -0.2659   -0.2554   -7.1416   H         1 RES1   0.0000
   128 H71      -1.8463   -4.7832   -2.7855   H         1 RES1   0.0000
   129 H72      -0.4417   -4.9191   -3.8361   H         1 RES1   0.0000
   130 H73      -2.1787   -5.9406   -4.8441   H         1 RES1   0.0000
   131 H74      -4.1186   -3.6156   -4.5857   H         1 RES1   0.0000
   132 H75      -4.0445   -4.9745   -3.4585   H         1 RES1   0.0000
   133 H76      -4.4356   -5.2379   -5.1500   H         1 RES1   0.0000
   134 H77      -2.2140   -3.2564   -6.2740   H         1 RES1   0.0000
   135 H78      -2.7557   -4.7965   -6.9129   H         1 RES1   0.0000
   136 H79      -1.0552   -4.5638   -6.5505   H         1 RES1   0.0000
   137 H80       1.2634   -4.1654    2.2345   H         1 RES1   0.0000
   138 H81       2.8860   -6.0252    2.2540   H         1 RES1   0.0000
   139 H82       3.0445   -7.5237    0.2965   H         1 RES1   0.0000
   140 H83       1.5743   -7.1883   -1.6399   H         1 RES1   0.0000
   141 H84      -0.0978   -5.3846   -1.6227   H         1 RES1   0.0000
   142 C49       5.0711   -3.0209    6.1392   C.3       1 RES1   0.0000
   143 C50       4.4833   -4.2122    5.3891   C.3       1 RES1   0.0000
   144 C51       3.2032   -4.7636    6.0371   C.3       1 RES1   0.0000
   145 C52       1.8854   -4.2504    5.4364   C.3       1 RES1   0.0000
   146 C53       1.2768   -2.9734    6.0388   C.3       1 RES1   0.0000
   147 C54       0.0977   -2.5535    5.1443   C.3       1 RES1   0.0000
   148 C55      -0.7287   -1.3122    5.5152   C.3       1 RES1   0.0000
   149 C56      -0.1882    0.0956    5.2343   C.3       1 RES1   0.0000
   150 P3       -0.1457    0.9836    3.5963   P.3       1 RES1   0.0000
   151 O5        0.4183    0.2554    2.4176   O.2       1 RES1   0.0000
   152 C57      -1.7494    1.7746    3.0617   C.3       1 RES1   0.0000
   153 C58      -2.7044    0.9517    2.2398   C.2       1 RES1   0.0000
   154 O6       -2.2642    0.2364    1.3170   O.2       1 RES1   0.0000
   155 N3       -4.0173    1.0856    2.4965   N.am      1 RES1   0.0000
   156 C59      -4.9436    0.2057    1.7717   C.3       1 RES1   0.0000
   157 C60      -5.2741    0.5337    0.3076   C.3       1 RES1   0.0000
   158 C61      -5.6388    1.9947    0.0870   C.3       1 RES1   0.0000
   159 C62      -6.4684   -0.3435   -0.0836   C.3       1 RES1   0.0000
   160 C63      -4.5456    1.6878    3.7341   C.3       1 RES1   0.0000
   161 C64      -4.8547    3.2001    3.8934   C.3       1 RES1   0.0000
   162 C65      -5.9244    3.7042    2.9321   C.3       1 RES1   0.0000
   163 C66      -3.6735    4.1684    3.8470   C.3       1 RES1   0.0000
   164 C67       0.6814    2.5412    4.0974   C.ar      1 RES1   0.0000
   165 C68       1.0112    2.8849    5.4022   C.ar      1 RES1   0.0000
   166 C69       1.5406    4.1309    5.6937   C.ar      1 RES1   0.0000
   167 C70       1.6802    5.0765    4.6928   C.ar      1 RES1   0.0000
   168 C71       1.3239    4.7572    3.3928   C.ar      1 RES1   0.0000
   169 C72       0.8565    3.4902    3.0965   C.ar      1 RES1   0.0000
   170 H85       5.9405   -2.6250    5.6166   H         1 RES1   0.0000
   171 H86       5.3906   -3.3404    7.1272   H         1 RES1   0.0000
   172 H87       4.3434   -2.2230    6.2632   H         1 RES1   0.0000
   173 H88       5.2402   -4.9992    5.3768   H         1 RES1   0.0000
   174 H89       4.2815   -3.9538    4.3439   H         1 RES1   0.0000
   175 H90       3.2306   -4.5608    7.1067   H         1 RES1   0.0000
   176 H91       3.2107   -5.8489    5.9215   H         1 RES1   0.0000
   177 H92       1.1396   -5.0415    5.5455   H         1 RES1   0.0000
   178 H93       2.0333   -4.0922    4.3642   H         1 RES1   0.0000
   179 H94       2.0326   -2.1971    6.1416   H         1 RES1   0.0000
   180 H95       0.9058   -3.1998    7.0395   H         1 RES1   0.0000
   181 H96      -0.5924   -3.4021    5.1960   H         1 RES1   0.0000
   182 H97       0.4245   -2.4666    4.1052   H         1 RES1   0.0000
   183 H98      -0.9391   -1.3607    6.5885   H         1 RES1   0.0000
   184 H99      -1.6797   -1.4099    4.9955   H         1 RES1   0.0000
   185 H100      0.8395    0.1618    5.5987   H         1 RES1   0.0000
   186 H101     -0.7803    0.7808    5.8475   H         1 RES1   0.0000
   187 H102     -1.4191    2.5623    2.3750   H         1 RES1   0.0000
   188 H103     -2.1922    2.2727    3.9110   H         1 RES1   0.0000
   189 H104     -5.8846    0.1857    2.3254   H         1 RES1   0.0000
   190 H105     -4.5119   -0.8010    1.7597   H         1 RES1   0.0000
   191 H106     -4.3952    0.2875   -0.2980   H         1 RES1   0.0000
   192 H107     -6.5112    2.2577    0.6762   H         1 RES1   0.0000
   193 H108     -5.8888    2.1672   -0.9579   H         1 RES1   0.0000
   194 H109     -4.8054    2.6378    0.3557   H         1 RES1   0.0000
   195 H110     -7.3291   -0.0657    0.5210   H         1 RES1   0.0000
   196 H111     -6.2704   -1.4007    0.0818   H         1 RES1   0.0000
   197 H112     -6.7348   -0.2000   -1.1283   H         1 RES1   0.0000
   198 H113     -3.9022    1.4117    4.5706   H         1 RES1   0.0000
   199 H114     -5.5054    1.2030    3.9185   H         1 RES1   0.0000
   200 H115     -5.2748    3.2510    4.9069   H         1 RES1   0.0000
   201 H116     -5.4932    3.8979    1.9565   H         1 RES1   0.0000
   202 H117     -6.3324    4.6410    3.2988   H         1 RES1   0.0000
   203 H118     -6.7427    2.9965    2.8400   H         1 RES1   0.0000
   204 H119     -3.1811    4.1385    2.8794   H         1 RES1   0.0000
   205 H120     -2.9442    3.9922    4.6344   H         1 RES1   0.0000
   206 H121     -4.0459    5.1800    3.9926   H         1 RES1   0.0000
   207 H122      0.8536    2.2062    6.2213   H         1 RES1   0.0000
   208 H123      1.8269    4.3624    6.7093   H         1 RES1   0.0000
   209 H124      2.0700    6.0553    4.9225   H         1 RES1   0.0000
   210 H125      1.4127    5.5019    2.6128   H         1 RES1   0.0000
   211 H126      0.6244    3.2147    2.0777   H         1 RES1   0.0000
   212 C73       4.9134    4.0947    2.6958   C.3       1 RES1   0.0000
   213 C74       3.8781    3.5199    1.7396   C.3       1 RES1   0.0000
   214 C75       4.4540    2.9052    0.4669   C.3       1 RES1   0.0000
   215 C76       5.1953    3.8496   -0.4805   C.3       1 RES1   0.0000
   216 C77       4.5031    5.0927   -1.0825   C.3       1 RES1   0.0000
   217 C78       2.9987    5.3335   -0.9266   C.3       1 RES1   0.0000
   218 C79       2.0270    4.2513   -1.4105   C.3       1 RES1   0.0000
   219 C80       0.6047    4.6958   -1.0679   C.3       1 RES1   0.0000
   220 P4       -0.6261    3.3698   -0.8127   P.3       1 RES1   0.0000
   221 O7       -0.1362    2.3062    0.1371   O.2       1 RES1   0.0000
   222 C81      -0.9165    2.5823   -2.4690   C.3       1 RES1   0.0000
   223 C82      -2.1151    1.6475   -2.4145   C.2       1 RES1   0.0000
   224 O8       -2.0374    0.7281   -1.5781   O.2       1 RES1   0.0000
   225 N4       -3.1616    1.8296   -3.2401   N.am      1 RES1   0.0000
   226 C83      -4.3739    0.9830   -3.1921   C.3       1 RES1   0.0000
   227 C84      -4.3418   -0.5042   -3.6094   C.3       1 RES1   0.0000
   228 C85      -4.1330   -1.4243   -2.4088   C.3       1 RES1   0.0000
   229 C86      -3.3098   -0.8007   -4.6765   C.3       1 RES1   0.0000
   230 C87      -3.4226    3.1114   -3.9154   C.3       1 RES1   0.0000
   231 C88      -3.2873    3.1894   -5.4518   C.3       1 RES1   0.0000
   232 C89      -1.9165    2.7334   -5.9330   C.3       1 RES1   0.0000
   233 C90      -4.3858    2.4499   -6.2069   C.3       1 RES1   0.0000
   234 C91      -2.0528    4.3119   -0.1735   C.ar      1 RES1   0.0000
   235 C92      -1.7941    5.2273    0.8459   C.ar      1 RES1   0.0000
   236 C93      -2.7637    6.1242    1.2542   C.ar      1 RES1   0.0000
   237 C94      -4.0127    6.1100    0.6529   C.ar      1 RES1   0.0000
   238 C95      -4.2998    5.1667   -0.3170   C.ar      1 RES1   0.0000
   239 C96      -3.3241    4.2719   -0.7275   C.ar      1 RES1   0.0000
   240 H127      4.4235    4.4262    3.6080   H         1 RES1   0.0000
   241 H128      5.4169    4.9484    2.2543   H         1 RES1   0.0000
   242 H129      5.6656    3.3576    2.9677   H         1 RES1   0.0000
   243 H130      3.1787    4.3036    1.4657   H         1 RES1   0.0000
   244 H131      3.2983    2.7481    2.2509   H         1 RES1   0.0000
   245 H132      3.6422    2.3844   -0.0476   H         1 RES1   0.0000
   246 H133      5.1842    2.1400    0.7470   H         1 RES1   0.0000
   247 H134      5.5493    3.2322   -1.3081   H         1 RES1   0.0000
   248 H135      6.0853    4.1950    0.0460   H         1 RES1   0.0000
   249 H136      4.7368    5.1140   -2.1470   H         1 RES1   0.0000
   250 H137      4.9741    5.9759   -0.6497   H         1 RES1   0.0000
   251 H138      2.7801    6.2427   -1.4928   H         1 RES1   0.0000
   252 H139      2.7785    5.5576    0.1178   H         1 RES1   0.0000
   253 H140      2.2277    3.3005   -0.9138   H         1 RES1   0.0000
   254 H141      2.1470    4.1139   -2.4859   H         1 RES1   0.0000
   255 H142      0.2052    5.3914   -1.8046   H         1 RES1   0.0000
   256 H143      0.6377    5.2330   -0.1158   H         1 RES1   0.0000
   257 H144     -0.0202    1.9540   -2.5948   H         1 RES1   0.0000
   258 H145     -0.9153    3.3111   -3.2690   H         1 RES1   0.0000
   259 H146     -5.0809    1.4894   -3.8444   H         1 RES1   0.0000
   260 H147     -4.7667    0.9992   -2.1782   H         1 RES1   0.0000
   261 H148     -5.3342   -0.7077   -4.0253   H         1 RES1   0.0000
   262 H149     -3.3265   -1.0229   -1.8061   H         1 RES1   0.0000
   263 H150     -3.8828   -2.4287   -2.7367   H         1 RES1   0.0000
   264 H151     -5.0317   -1.4930   -1.8081   H         1 RES1   0.0000
   265 H152     -2.3295   -0.5085   -4.3221   H         1 RES1   0.0000
   266 H153     -3.2958   -1.8648   -4.8799   H         1 RES1   0.0000
   267 H154     -3.5568   -0.2959   -5.6058   H         1 RES1   0.0000
   268 H155     -2.7814    3.8855   -3.5013   H         1 RES1   0.0000
   269 H156     -4.4482    3.4128   -3.6748   H         1 RES1   0.0000
   270 H157     -3.3965    4.2567   -5.6807   H         1 RES1   0.0000
   271 H158     -1.7575    1.6875   -5.6964   H         1 RES1   0.0000
   272 H159     -1.1221    3.3234   -5.4833   H         1 RES1   0.0000
   273 H160     -1.8409    2.8526   -7.0093   H         1 RES1   0.0000
   274 H161     -4.2686    1.3781   -6.1067   H         1 RES1   0.0000
   275 H162     -4.3235    2.6945   -7.2636   H         1 RES1   0.0000
   276 H163     -5.3736    2.7279   -5.8489   H         1 RES1   0.0000
   277 H164     -0.8319    5.2385    1.3345   H         1 RES1   0.0000
   278 H165     -2.5374    6.8396    2.0305   H         1 RES1   0.0000
   279 H166     -4.7615    6.8263    0.9475   H         1 RES1   0.0000
   280 H167     -5.2823    5.1346   -0.7641   H         1 RES1   0.0000
   281 H168     -3.5658    3.5349   -1.4698   H         1 RES1   0.0000
@<TRIPOS>BOND
     1     1    11    1
     2     1    14    1
     3     1    81    1
     4     1    84    1
     5     1   151    1
     6     1   154    1
     7     1   221    1
     8     1   224    1
     9     2     3    1
    10     2    30    1
    11     2    31    1
    12     2    32    1
    13     3     4    1
    14     3    33    1
    15     3    34    1
    16     4     5    1
    17     4    35    1
    18     4    36    1
    19     5     6    1
    20     5    37    1
    21     5    38    1
    22     6     7    1
    23     6    39    1
    24     6    40    1
    25     7     8    1
    26     7    41    1
    27     7    42    1
    28     8     9    1
    29     8    43    1
    30     8    44    1
    31     9    10    1
    32     9    45    1
    33     9    46    1
    34    10    11    2
    35    10    12    1
    36    10    24    1
    37    12    13    1
    38    12    47    1
    39    12    48    1
    40    13    14    2
    41    13    15    1
    42    15    16    1
    43    15    20    1
    44    16    17    1
    45    16    49    1
    46    16    50    1
    47    17    18    1
    48    17    19    1
    49    17    51    1
    50    18    52    1
    51    18    53    1
    52    18    54    1
    53    19    55    1
    54    19    56    1
    55    19    57    1
    56    20    21    1
    57    20    58    1
    58    20    59    1
    59    21    22    1
    60    21    23    1
    61    21    60    1
    62    22    61    1
    63    22    62    1
    64    22    63    1
    65    23    64    1
    66    23    65    1
    67    23    66    1
    68    24    25    1
    69    24    29    2
    70    25    26    2
    71    25    67    1
    72    26    27    1
    73    26    68    1
    74    27    28    2
    75    27    69    1
    76    28    29    1
    77    28    70    1
    78    29    71    1
    79    72    73    1
    80    72   100    1
    81    72   101    1
    82    72   102    1
    83    73    74    1
    84    73   103    1
    85    73   104    1
    86    74    75    1
    87    74   105    1
    88    74   106    1
    89    75    76    1
    90    75   107    1
    91    75   108    1
    92    76    77    1
    93    76   109    1
    94    76   110    1
    95    77    78    1
    96    77   111    1
    97    77   112    1
    98    78    79    1
    99    78   113    1
   100    78   114    1
   101    79    80    1
   102    79   115    1
   103    79   116    1
   104    80    81    2
   105    80    82    1
   106    80    94    1
   107    82    83    1
   108    82   117    1
   109    82   118    1
   110    83    84    2
   111    83    85    1
   112    85    86    1
   113    85    90    1
   114    86    87    1
   115    86   119    1
   116    86   120    1
   117    87    88    1
   118    87    89    1
   119    87   121    1
   120    88   122    1
   121    88   123    1
   122    88   124    1
   123    89   125    1
   124    89   126    1
   125    89   127    1
   126    90    91    1
   127    90   128    1
   128    90   129    1
   129    91    92    1
   130    91    93    1
   131    91   130    1
   132    92   131    1
   133    92   132    1
   134    92   133    1
   135    93   134    1
   136    93   135    1
   137    93   136    1
   138    94    95    1
   139    94    99    2
   140    95    96    2
   141    95   137    1
   142    96    97    1
   143    96   138    1
   144    97    98    2
   145    97   139    1
   146    98    99    1
   147    98   140    1
   148    99   141    1
   149   142   143    1
   150   142   170    1
   151   142   171    1
   152   142   172    1
   153   143   144    1
   154   143   173    1
   155   143   174    1
   156   144   145    1
   157   144   175    1
   158   144   176    1
   159   145   146    1
   160   145   177    1
   161   145   178    1
   162   146   147    1
   163   146   179    1
   164   146   180    1
   165   147   148    1
   166   147   181    1
   167   147   182    1
   168   148   149    1
   169   148   183    1
   170   148   184    1
   171   149   150    1
   172   149   185    1
   173   149   186    1
   174   150   151    2
   175   150   152    1
   176   150   164    1
   177   152   153    1
   178   152   187    1
   179   152   188    1
   180   153   154    2
   181   153   155    1
   182   155   156    1
   183   155   160    1
   184   156   157    1
   185   156   189    1
   186   156   190    1
   187   157   158    1
   188   157   159    1
   189   157   191    1
   190   158   192    1
   191   158   193    1
   192   158   194    1
   193   159   195    1
   194   159   196    1
   195   159   197    1
   196   160   161    1
   197   160   198    1
   198   160   199    1
   199   161   162    1
   200   161   163    1
   201   161   200    1
   202   162   201    1
   203   162   202    1
   204   162   203    1
   205   163   204    1
   206   163   205    1
   207   163   206    1
   208   164   165    1
   209   164   169    2
   210   165   166    2
   211   165   207    1
   212   166   167    1
   213   166   208    1
   214   167   168    2
   215   167   209    1
   216   168   169    1
   217   168   210    1
   218   169   211    1
   219   212   213    1
   220   212   240    1
   221   212   241    1
   222   212   242    1
   223   213   214    1
   224   213   243    1
   225   213   244    1
   226   214   215    1
   227   214   245    1
   228   214   246    1
   229   215   216    1
   230   215   247    1
   231   215   248    1
   232   216   217    1
   233   216   249    1
   234   216   250    1
   235   217   218    1
   236   217   251    1
   237   217   252    1
   238   218   219    1
   239   218   253    1
   240   218   254    1
   241   219   220    1
   242   219   255    1
   243   219   256    1
   244   220   221    2
   245   220   222    1
   246   220   234    1
   247   222   223    1
   248   222   257    1
   249   222   258    1
   250   223   224    2
   251   223   225    1
   252   225   226    1
   253   225   230    1
   254   226   227    1
   255   226   259    1
   256   226   260    1
   257   227   228    1
   258   227   229    1
   259   227   261    1
   260   228   262    1
   261   228   263    1
   262   228   264    1
   263   229   265    1
   264   229   266    1
   265   229   267    1
   266   230   231    1
   267   230   268    1
   268   230   269    1
   269   231   232    1
   270   231   233    1
   271   231   270    1
   272   232   271    1
   273   232   272    1
   274   232   273    1
   275   233   274    1
   276   233   275    1
   277   233   276    1
   278   234   235    1
   279   234   239    2
   280   235   236    2
   281   235   277    1
   282   236   237    1
   283   236   278    1
   284   237   238    2
   285   237   279    1
   286   238   239    1
   287   238   280    1
   288   239   281    1
@<TRIPOS>SUBSTRUCTURE
     1 RES1      281 GROUP             0 ****  ****    0  
