@<TRIPOS>MOLECULE
ICIGOT_geomtry_0_nunpairedes_0_charge_3 Charge: 3 Unpaired_Electrons: 5 XTB_Unpaired_Electrons: 0 XTB_Charge: 3
   241   248     1     0     0
SMALL
NoCharges
****
Generated from Architector

@<TRIPOS>ATOM
     1 Dy1       0.2010    0.0722   -0.0283   Dy        1 RES1   0.0000
     2 C1       -1.9775   -4.5602    2.3984   C.3       1 RES1   0.0000
     3 C2       -3.1286   -3.6585    2.8631   C.3       1 RES1   0.0000
     4 C3       -2.6393   -2.4934    3.7188   C.3       1 RES1   0.0000
     5 C4       -3.7559   -1.6825    4.3776   C.3       1 RES1   0.0000
     6 C5       -4.8405   -1.0824    3.4808   C.3       1 RES1   0.0000
     7 C6       -4.3471    0.0591    2.5953   C.3       1 RES1   0.0000
     8 C7       -5.4367    0.6502    1.6951   C.3       1 RES1   0.0000
     9 C8       -5.7988   -0.3688    0.6185   C.3       1 RES1   0.0000
    10 C9       -6.4577    0.1506   -0.6607   C.3       1 RES1   0.0000
    11 C10      -7.8107    0.7992   -0.4238   C.3       1 RES1   0.0000
    12 C11      -5.5324    1.0661   -1.4411   C.3       1 RES1   0.0000
    13 S1       -6.7887   -1.5007   -1.5124   S.3       1 RES1   0.0000
    14 C12      -6.3859   -1.4988   -3.2985   C.3       1 RES1   0.0000
    15 C13      -5.0247   -2.0540   -3.7435   C.3       1 RES1   0.0000
    16 C14      -3.8733   -1.0451   -3.6555   C.3       1 RES1   0.0000
    17 N1       -3.2108   -1.3145   -2.3833   N.am      1 RES1   0.0000
    18 C15      -2.2697   -0.5692   -1.8483   C.2       1 RES1   0.0000
    19 O1       -1.7676   -0.7970   -0.7150   O.2       1 RES1   0.0000
    20 C16      -1.7923    0.6296   -2.6831   C.3       1 RES1   0.0000
    21 O2       -0.4337    0.9549   -2.3662   O.3       1 RES1   0.0000
    22 C17      -0.1592    2.3481   -2.4620   C.3       1 RES1   0.0000
    23 C18      -0.5421    2.9759   -1.1190   C.2       1 RES1   0.0000
    24 O3       -0.8462    2.1913   -0.1835   O.2       1 RES1   0.0000
    25 N2       -0.6033    4.2831   -1.0122   N.am      1 RES1   0.0000
    26 C19      -1.1048    4.9117    0.2096   C.3       1 RES1   0.0000
    27 C20      -0.4574    6.3040    0.2200   C.3       1 RES1   0.0000
    28 C21      -0.2603    6.9020    1.6040   C.3       1 RES1   0.0000
    29 C22       0.8178    6.0378   -0.6012   C.3       1 RES1   0.0000
    30 C23       1.8346    5.1722    0.1582   C.3       1 RES1   0.0000
    31 S2        3.4580    6.0167    0.3164   S.3       1 RES1   0.0000
    32 C24       4.1032    5.4092    1.9613   C.3       1 RES1   0.0000
    33 C25       5.5254    5.9466    2.0491   C.3       1 RES1   0.0000
    34 C26       3.2774    6.0004    3.0995   C.3       1 RES1   0.0000
    35 C27       4.0592    3.8806    2.0016   C.3       1 RES1   0.0000
    36 C28       4.9720    3.1741    1.0038   C.3       1 RES1   0.0000
    37 C29       4.5479    1.7219    0.7879   C.3       1 RES1   0.0000
    38 C30       4.7167    0.8036    1.9974   C.3       1 RES1   0.0000
    39 C31       6.1679    0.6172    2.4397   C.3       1 RES1   0.0000
    40 C32       7.0348    0.0214    1.3307   C.3       1 RES1   0.0000
    41 C33       8.3847   -0.4851    1.8363   C.3       1 RES1   0.0000
    42 C34       9.2518    0.6330    2.4036   C.3       1 RES1   0.0000
    43 C35       0.2065    5.2413   -1.7605   C.3       1 RES1   0.0000
    44 C36      -3.7097   -2.5465   -1.7886   C.3       1 RES1   0.0000
    45 C37      -4.4536   -3.2376   -2.9370   C.3       1 RES1   0.0000
    46 C38      -5.4666   -4.2789   -2.4862   C.3       1 RES1   0.0000
    47 H1       -2.2610   -5.6083    2.4414   H         1 RES1   0.0000
    48 H2       -1.1105   -4.4314    3.0451   H         1 RES1   0.0000
    49 H3       -1.6813   -4.3328    1.3715   H         1 RES1   0.0000
    50 H4       -3.8318   -4.2504    3.4488   H         1 RES1   0.0000
    51 H5       -3.6570   -3.2691    1.9930   H         1 RES1   0.0000
    52 H6       -1.9760   -1.8556    3.1213   H         1 RES1   0.0000
    53 H7       -2.0358   -2.8925    4.5349   H         1 RES1   0.0000
    54 H8       -3.2886   -0.8874    4.9585   H         1 RES1   0.0000
    55 H9       -4.2530   -2.3393    5.0892   H         1 RES1   0.0000
    56 H10      -5.6251   -0.6954    4.1334   H         1 RES1   0.0000
    57 H11      -5.2826   -1.8653    2.8676   H         1 RES1   0.0000
    58 H12      -3.5755   -0.3337    1.9258   H         1 RES1   0.0000
    59 H13      -3.9202    0.8493    3.2213   H         1 RES1   0.0000
    60 H14      -5.0543    1.5622    1.2306   H         1 RES1   0.0000
    61 H15      -6.3133    0.9121    2.2851   H         1 RES1   0.0000
    62 H16      -6.4588   -1.1278    1.0403   H         1 RES1   0.0000
    63 H17      -4.8722   -0.8677    0.3181   H         1 RES1   0.0000
    64 H18      -7.7072    1.7273    0.1342   H         1 RES1   0.0000
    65 H19      -8.4522    0.1261    0.1383   H         1 RES1   0.0000
    66 H20      -8.2956    1.0185   -1.3725   H         1 RES1   0.0000
    67 H21      -5.4937    2.0351   -0.9472   H         1 RES1   0.0000
    68 H22      -5.9003    1.2329   -2.4509   H         1 RES1   0.0000
    69 H23      -4.5240    0.6574   -1.4760   H         1 RES1   0.0000
    70 H24      -6.5356   -0.4981   -3.7017   H         1 RES1   0.0000
    71 H25      -7.1605   -2.1466   -3.7076   H         1 RES1   0.0000
    72 H26      -5.1602   -2.3462   -4.7896   H         1 RES1   0.0000
    73 H27      -4.2164   -0.0123   -3.7054   H         1 RES1   0.0000
    74 H28      -3.1665   -1.2250   -4.4708   H         1 RES1   0.0000
    75 H29      -2.4518    1.4750   -2.4516   H         1 RES1   0.0000
    76 H30      -1.8570    0.4025   -3.7541   H         1 RES1   0.0000
    77 H31      -0.7240    2.7931   -3.2875   H         1 RES1   0.0000
    78 H32       0.9141    2.4574   -2.6643   H         1 RES1   0.0000
    79 H33      -0.8045    4.3091    1.0705   H         1 RES1   0.0000
    80 H34      -2.1947    4.9409    0.1734   H         1 RES1   0.0000
    81 H35      -1.0889    6.9901   -0.3495   H         1 RES1   0.0000
    82 H36       0.3405    6.2626    2.2456   H         1 RES1   0.0000
    83 H37      -1.2201    7.0614    2.0924   H         1 RES1   0.0000
    84 H38       0.2438    7.8617    1.5119   H         1 RES1   0.0000
    85 H39       1.2891    6.9546   -0.9502   H         1 RES1   0.0000
    86 H40       1.9908    4.2182   -0.3560   H         1 RES1   0.0000
    87 H41       1.4890    4.9545    1.1644   H         1 RES1   0.0000
    88 H42       5.5103    7.0297    2.1380   H         1 RES1   0.0000
    89 H43       6.1060    5.6848    1.1694   H         1 RES1   0.0000
    90 H44       6.0121    5.5361    2.9299   H         1 RES1   0.0000
    91 H45       3.2721    7.0848    3.0349   H         1 RES1   0.0000
    92 H46       3.7221    5.7201    4.0527   H         1 RES1   0.0000
    93 H47       2.2476    5.6468    3.0913   H         1 RES1   0.0000
    94 H48       3.0390    3.5487    1.7858   H         1 RES1   0.0000
    95 H49       4.3121    3.5748    3.0195   H         1 RES1   0.0000
    96 H50       6.0055    3.2125    1.3446   H         1 RES1   0.0000
    97 H51       4.9129    3.6979    0.0461   H         1 RES1   0.0000
    98 H52       5.1392    1.3052   -0.0228   H         1 RES1   0.0000
    99 H53       3.4914    1.6989    0.4753   H         1 RES1   0.0000
   100 H54       4.3223   -0.1772    1.7070   H         1 RES1   0.0000
   101 H55       4.1195    1.1737    2.8358   H         1 RES1   0.0000
   102 H56       6.1846   -0.0563    3.3006   H         1 RES1   0.0000
   103 H57       6.5804    1.5709    2.7651   H         1 RES1   0.0000
   104 H58       7.2149    0.7715    0.5591   H         1 RES1   0.0000
   105 H59       6.4926   -0.8101    0.8698   H         1 RES1   0.0000
   106 H60       8.9076   -0.9531    1.0002   H         1 RES1   0.0000
   107 H61       8.2278   -1.2510    2.5990   H         1 RES1   0.0000
   108 H62       9.3426    1.4448    1.6837   H         1 RES1   0.0000
   109 H63      10.2488    0.2619    2.6245   H         1 RES1   0.0000
   110 H64       8.8289    1.0283    3.3247   H         1 RES1   0.0000
   111 H65       0.9505    4.7500   -2.3815   H         1 RES1   0.0000
   112 H66      -0.4347    5.8705   -2.3848   H         1 RES1   0.0000
   113 H67      -4.4034   -2.3216   -0.9752   H         1 RES1   0.0000
   114 H68      -2.8783   -3.1306   -1.3913   H         1 RES1   0.0000
   115 H69      -3.7106   -3.7260   -3.5754   H         1 RES1   0.0000
   116 H70      -6.2065   -3.8490   -1.8173   H         1 RES1   0.0000
   117 H71      -4.9621   -5.0908   -1.9671   H         1 RES1   0.0000
   118 H72      -5.9807   -4.6925   -3.3506   H         1 RES1   0.0000
   119 C39       2.7751   -0.0254    8.3190   C.3       1 RES1   0.0000
   120 C40       3.1198    1.2167    9.1377   C.3       1 RES1   0.0000
   121 C41       2.6010    1.1803   10.5803   C.3       1 RES1   0.0000
   122 C42       1.2435    1.8441   10.8087   C.3       1 RES1   0.0000
   123 C43       0.0983    1.1524   10.0774   C.3       1 RES1   0.0000
   124 C44      -1.2753    1.4647   10.6657   C.3       1 RES1   0.0000
   125 C45      -2.3801    0.8441    9.8033   C.3       1 RES1   0.0000
   126 C46      -2.8353    1.7774    8.6740   C.3       1 RES1   0.0000
   127 C47      -3.2629    1.0633    7.3938   C.3       1 RES1   0.0000
   128 C48      -4.0865   -0.1882    7.6716   C.3       1 RES1   0.0000
   129 C49      -4.0448    1.9838    6.4624   C.3       1 RES1   0.0000
   130 S3       -1.7265    0.4758    6.5112   S.3       1 RES1   0.0000
   131 C50      -1.0281    2.0582    5.8983   C.3       1 RES1   0.0000
   132 C51       0.4930    2.0918    5.9604   C.3       1 RES1   0.0000
   133 C52       1.1022    0.9279    5.1747   C.3       1 RES1   0.0000
   134 N3        1.1625    1.4181    3.7994   N.am      1 RES1   0.0000
   135 C53       1.3136    0.7212    2.6991   C.2       1 RES1   0.0000
   136 O4        1.2775    1.2400    1.5471   O.2       1 RES1   0.0000
   137 C54       1.5481   -0.7863    2.7983   C.3       1 RES1   0.0000
   138 O5        0.7155   -1.4254    1.8246   O.3       1 RES1   0.0000
   139 C55       1.2228   -2.6759    1.3845   C.3       1 RES1   0.0000
   140 C56       1.8911   -2.4667    0.0267   C.2       1 RES1   0.0000
   141 O6        2.1256   -1.2838   -0.3265   O.2       1 RES1   0.0000
   142 N4        2.1297   -3.5282   -0.7113   N.am      1 RES1   0.0000
   143 C57       1.6964   -4.8774   -0.3731   C.3       1 RES1   0.0000
   144 C58       2.1729   -5.7761   -1.5298   C.3       1 RES1   0.0000
   145 C59       1.1674   -6.8859   -1.8145   C.3       1 RES1   0.0000
   146 C60       2.4618   -4.8019   -2.6945   C.3       1 RES1   0.0000
   147 C61       1.3036   -4.5555   -3.6693   C.3       1 RES1   0.0000
   148 S4        2.0349   -3.5436   -5.0288   S.3       1 RES1   0.0000
   149 C62       0.8079   -2.3036   -5.7552   C.3       1 RES1   0.0000
   150 C63      -0.6044   -2.4521   -5.2019   C.3       1 RES1   0.0000
   151 C64       0.7576   -2.5686   -7.2564   C.3       1 RES1   0.0000
   152 C65       1.4363   -0.9362   -5.4488   C.3       1 RES1   0.0000
   153 C66       2.7573   -0.7303   -6.2014   C.3       1 RES1   0.0000
   154 C67       3.6429    0.3703   -5.6150   C.3       1 RES1   0.0000
   155 C68       4.3869   -0.0781   -4.3574   C.3       1 RES1   0.0000
   156 C69       5.2410    1.0264   -3.7273   C.3       1 RES1   0.0000
   157 C70       4.5403    1.8007   -2.6112   C.3       1 RES1   0.0000
   158 C71       3.5090    2.8377   -3.0536   C.3       1 RES1   0.0000
   159 C72       4.1269    4.0252   -3.7816   C.3       1 RES1   0.0000
   160 C73       2.8883   -3.5273   -1.9623   C.3       1 RES1   0.0000
   161 C74       1.0211    2.8685    3.7631   C.3       1 RES1   0.0000
   162 C75       1.0483    3.3229    5.2251   C.3       1 RES1   0.0000
   163 C76       0.2828    4.6215    5.4604   C.3       1 RES1   0.0000
   164 H73       3.3147   -0.0108    7.3700   H         1 RES1   0.0000
   165 H74       3.0789   -0.9192    8.8582   H         1 RES1   0.0000
   166 H75       1.7094   -0.0995    8.1150   H         1 RES1   0.0000
   167 H76       4.2070    1.2976    9.1664   H         1 RES1   0.0000
   168 H77       2.7463    2.1117    8.6351   H         1 RES1   0.0000
   169 H78       2.5492    0.1443   10.9152   H         1 RES1   0.0000
   170 H79       3.3256    1.6858   11.2185   H         1 RES1   0.0000
   171 H80       1.0394    1.8244   11.8802   H         1 RES1   0.0000
   172 H81       1.2939    2.8935   10.5117   H         1 RES1   0.0000
   173 H82       0.1083    1.4377    9.0233   H         1 RES1   0.0000
   174 H83       0.2397    0.0720   10.1314   H         1 RES1   0.0000
   175 H84      -1.3284    1.0457   11.6702   H         1 RES1   0.0000
   176 H85      -1.4270    2.5423   10.7552   H         1 RES1   0.0000
   177 H86      -1.9956   -0.0914    9.3888   H         1 RES1   0.0000
   178 H87      -3.2409    0.5962   10.4242   H         1 RES1   0.0000
   179 H88      -3.6801    2.3755    9.0207   H         1 RES1   0.0000
   180 H89      -2.0324    2.4823    8.4412   H         1 RES1   0.0000
   181 H90      -4.7811    0.0124    8.4809   H         1 RES1   0.0000
   182 H91      -4.6552   -0.4718    6.7910   H         1 RES1   0.0000
   183 H92      -3.4562   -1.0251    7.9581   H         1 RES1   0.0000
   184 H93      -5.0528    2.1043    6.8518   H         1 RES1   0.0000
   185 H94      -3.5963    2.9719    6.3848   H         1 RES1   0.0000
   186 H95      -4.1209    1.5477    5.4662   H         1 RES1   0.0000
   187 H96      -1.3825    2.1950    4.8750   H         1 RES1   0.0000
   188 H97      -1.4222    2.8487    6.5295   H         1 RES1   0.0000
   189 H98       0.8126    2.0527    7.0028   H         1 RES1   0.0000
   190 H99       2.1091    0.6926    5.5247   H         1 RES1   0.0000
   191 H100      0.4756    0.0404    5.2722   H         1 RES1   0.0000
   192 H101      2.6023   -0.9600    2.5506   H         1 RES1   0.0000
   193 H102      1.3176   -1.1917    3.7871   H         1 RES1   0.0000
   194 H103      1.9690   -3.0646    2.0857   H         1 RES1   0.0000
   195 H104      0.3832   -3.3728    1.3288   H         1 RES1   0.0000
   196 H105      2.1214   -5.1967    0.5787   H         1 RES1   0.0000
   197 H106      0.6021   -4.9176   -0.2847   H         1 RES1   0.0000
   198 H107      3.1234   -6.2371   -1.2468   H         1 RES1   0.0000
   199 H108      0.1804   -6.4856   -2.0427   H         1 RES1   0.0000
   200 H109      1.4949   -7.4981   -2.6505   H         1 RES1   0.0000
   201 H110      1.0785   -7.5282   -0.9402   H         1 RES1   0.0000
   202 H111      3.2899   -5.1803   -3.2958   H         1 RES1   0.0000
   203 H112      0.9702   -5.4983   -4.0982   H         1 RES1   0.0000
   204 H113      0.4566   -4.0584   -3.1962   H         1 RES1   0.0000
   205 H114     -0.9120   -3.4962   -5.2286   H         1 RES1   0.0000
   206 H115     -0.7172   -2.0700   -4.1893   H         1 RES1   0.0000
   207 H116     -1.2779   -1.8974   -5.8552   H         1 RES1   0.0000
   208 H117      0.1328   -3.4325   -7.4676   H         1 RES1   0.0000
   209 H118      0.3353   -1.7055   -7.7665   H         1 RES1   0.0000
   210 H119      1.7456   -2.7572   -7.6622   H         1 RES1   0.0000
   211 H120      0.7355   -0.1409   -5.7155   H         1 RES1   0.0000
   212 H121      1.6324   -0.8563   -4.3702   H         1 RES1   0.0000
   213 H122      3.3236   -1.6649   -6.1924   H         1 RES1   0.0000
   214 H123      2.5254   -0.4860   -7.2379   H         1 RES1   0.0000
   215 H124      4.3886    0.6314   -6.3667   H         1 RES1   0.0000
   216 H125      3.0413    1.2618   -5.4301   H         1 RES1   0.0000
   217 H126      3.6916   -0.4633   -3.6053   H         1 RES1   0.0000
   218 H127      5.0342   -0.9080   -4.6431   H         1 RES1   0.0000
   219 H128      6.1338    0.5723   -3.2954   H         1 RES1   0.0000
   220 H129      5.5814    1.7139   -4.4988   H         1 RES1   0.0000
   221 H130      4.0453    1.0799   -1.9514   H         1 RES1   0.0000
   222 H131      5.2990    2.3239   -2.0275   H         1 RES1   0.0000
   223 H132      2.7631    2.3606   -3.6949   H         1 RES1   0.0000
   224 H133      3.0062    3.2059   -2.1507   H         1 RES1   0.0000
   225 H134      4.6202    3.7077   -4.6960   H         1 RES1   0.0000
   226 H135      3.3679    4.7581   -4.0499   H         1 RES1   0.0000
   227 H136      4.8638    4.5158   -3.1498   H         1 RES1   0.0000
   228 H137      3.9523   -3.5525   -1.7181   H         1 RES1   0.0000
   229 H138      2.7036   -2.6238   -2.5428   H         1 RES1   0.0000
   230 H139      1.8371    3.2927    3.1863   H         1 RES1   0.0000
   231 H140      0.0777    3.1390    3.2803   H         1 RES1   0.0000
   232 H141      2.0839    3.4736    5.5379   H         1 RES1   0.0000
   233 H142     -0.7177    4.5835    5.0313   H         1 RES1   0.0000
   234 H143      0.1908    4.8226    6.5263   H         1 RES1   0.0000
   235 H144      0.8142    5.4607    5.0147   H         1 RES1   0.0000
   236 O7       -1.2454    0.3864    1.9451   O.3       1 RES1   0.0000
   237 H145     -1.5422    1.3114    1.9897   H         1 RES1   0.0000
   238 H146     -1.9155   -0.1452    2.4324   H         1 RES1   0.0000
   239 O8        0.2759   -1.5450   -2.1364   O.3       1 RES1   0.0000
   240 H147      0.2883   -2.5145   -2.1402   H         1 RES1   0.0000
   241 H148      0.8122   -1.2682   -2.9053   H         1 RES1   0.0000
@<TRIPOS>BOND
     1     1    19    1
     2     1    21    1
     3     1    24    1
     4     1   136    1
     5     1   138    1
     6     1   141    1
     7     1   236    1
     8     1   239    1
     9     2     3    1
    10     2    47    1
    11     2    48    1
    12     2    49    1
    13     3     4    1
    14     3    50    1
    15     3    51    1
    16     4     5    1
    17     4    52    1
    18     4    53    1
    19     5     6    1
    20     5    54    1
    21     5    55    1
    22     6     7    1
    23     6    56    1
    24     6    57    1
    25     7     8    1
    26     7    58    1
    27     7    59    1
    28     8     9    1
    29     8    60    1
    30     8    61    1
    31     9    10    1
    32     9    62    1
    33     9    63    1
    34    10    11    1
    35    10    12    1
    36    10    13    1
    37    11    64    1
    38    11    65    1
    39    11    66    1
    40    12    67    1
    41    12    68    1
    42    12    69    1
    43    13    14    1
    44    14    15    1
    45    14    70    1
    46    14    71    1
    47    15    16    1
    48    15    45    1
    49    15    72    1
    50    16    17    1
    51    16    73    1
    52    16    74    1
    53    17    18    1
    54    17    44    1
    55    18    19    2
    56    18    20    1
    57    20    21    1
    58    20    75    1
    59    20    76    1
    60    21    22    1
    61    22    23    1
    62    22    77    1
    63    22    78    1
    64    23    24    2
    65    23    25    1
    66    25    26    1
    67    25    43    1
    68    26    27    1
    69    26    79    1
    70    26    80    1
    71    27    28    1
    72    27    29    1
    73    27    81    1
    74    28    82    1
    75    28    83    1
    76    28    84    1
    77    29    30    1
    78    29    43    1
    79    29    85    1
    80    30    31    1
    81    30    86    1
    82    30    87    1
    83    31    32    1
    84    32    33    1
    85    32    34    1
    86    32    35    1
    87    33    88    1
    88    33    89    1
    89    33    90    1
    90    34    91    1
    91    34    92    1
    92    34    93    1
    93    35    36    1
    94    35    94    1
    95    35    95    1
    96    36    37    1
    97    36    96    1
    98    36    97    1
    99    37    38    1
   100    37    98    1
   101    37    99    1
   102    38    39    1
   103    38   100    1
   104    38   101    1
   105    39    40    1
   106    39   102    1
   107    39   103    1
   108    40    41    1
   109    40   104    1
   110    40   105    1
   111    41    42    1
   112    41   106    1
   113    41   107    1
   114    42   108    1
   115    42   109    1
   116    42   110    1
   117    43   111    1
   118    43   112    1
   119    44    45    1
   120    44   113    1
   121    44   114    1
   122    45    46    1
   123    45   115    1
   124    46   116    1
   125    46   117    1
   126    46   118    1
   127   119   120    1
   128   119   164    1
   129   119   165    1
   130   119   166    1
   131   120   121    1
   132   120   167    1
   133   120   168    1
   134   121   122    1
   135   121   169    1
   136   121   170    1
   137   122   123    1
   138   122   171    1
   139   122   172    1
   140   123   124    1
   141   123   173    1
   142   123   174    1
   143   124   125    1
   144   124   175    1
   145   124   176    1
   146   125   126    1
   147   125   177    1
   148   125   178    1
   149   126   127    1
   150   126   179    1
   151   126   180    1
   152   127   128    1
   153   127   129    1
   154   127   130    1
   155   128   181    1
   156   128   182    1
   157   128   183    1
   158   129   184    1
   159   129   185    1
   160   129   186    1
   161   130   131    1
   162   131   132    1
   163   131   187    1
   164   131   188    1
   165   132   133    1
   166   132   162    1
   167   132   189    1
   168   133   134    1
   169   133   190    1
   170   133   191    1
   171   134   135    1
   172   134   161    1
   173   135   136    2
   174   135   137    1
   175   137   138    1
   176   137   192    1
   177   137   193    1
   178   138   139    1
   179   139   140    1
   180   139   194    1
   181   139   195    1
   182   140   141    2
   183   140   142    1
   184   142   143    1
   185   142   160    1
   186   143   144    1
   187   143   196    1
   188   143   197    1
   189   144   145    1
   190   144   146    1
   191   144   198    1
   192   145   199    1
   193   145   200    1
   194   145   201    1
   195   146   147    1
   196   146   160    1
   197   146   202    1
   198   147   148    1
   199   147   203    1
   200   147   204    1
   201   148   149    1
   202   149   150    1
   203   149   151    1
   204   149   152    1
   205   150   205    1
   206   150   206    1
   207   150   207    1
   208   151   208    1
   209   151   209    1
   210   151   210    1
   211   152   153    1
   212   152   211    1
   213   152   212    1
   214   153   154    1
   215   153   213    1
   216   153   214    1
   217   154   155    1
   218   154   215    1
   219   154   216    1
   220   155   156    1
   221   155   217    1
   222   155   218    1
   223   156   157    1
   224   156   219    1
   225   156   220    1
   226   157   158    1
   227   157   221    1
   228   157   222    1
   229   158   159    1
   230   158   223    1
   231   158   224    1
   232   159   225    1
   233   159   226    1
   234   159   227    1
   235   160   228    1
   236   160   229    1
   237   161   162    1
   238   161   230    1
   239   161   231    1
   240   162   163    1
   241   162   232    1
   242   163   233    1
   243   163   234    1
   244   163   235    1
   245   236   237    1
   246   236   238    1
   247   239   240    1
   248   239   241    1
@<TRIPOS>SUBSTRUCTURE
     1 RES1      241 GROUP             0 ****  ****    0  
