@<TRIPOS>MOLECULE
ICIGOT_geomtry_0_nunpairedes_0_charge_3 Charge: 3 Unpaired_Electrons: 5 XTB_Unpaired_Electrons: 0 XTB_Charge: 3
   145   158     1     0     0
SMALL
NoCharges
****
Generated from Architector

@<TRIPOS>ATOM
     1 Dy1      -0.1034    0.0526    0.0116   Dy        1 RES1   0.0000
     2 C1       -1.7688    5.2503   -1.9466   C.3       1 RES1   0.0000
     3 C2       -0.3534    5.0574   -2.4732   C.3       1 RES1   0.0000
     4 N1        0.3949    4.0468   -1.7149   N.am      1 RES1   0.0000
     5 C3        0.0348    2.7722   -1.5593   C.2       1 RES1   0.0000
     6 O1        0.6630    2.0026   -0.7866   O.2       1 RES1   0.0000
     7 C4       -1.1334    2.1362   -2.2981   C.ar      1 RES1   0.0000
     8 C5       -1.6213    2.4753   -3.5619   C.ar      1 RES1   0.0000
     9 C6       -2.6061    1.6857   -4.1335   C.ar      1 RES1   0.0000
    10 C7       -3.0429    0.5450   -3.4843   C.ar      1 RES1   0.0000
    11 C8       -2.5164    0.2590   -2.2242   C.ar      1 RES1   0.0000
    12 C9       -2.8780   -0.9851   -1.4971   C.ar      1 RES1   0.0000
    13 C10      -3.7639   -1.9333   -2.0141   C.ar      1 RES1   0.0000
    14 C11      -3.9981   -3.0925   -1.2935   C.ar      1 RES1   0.0000
    15 C12      -3.3306   -3.3228   -0.0999   C.ar      1 RES1   0.0000
    16 C13      -2.4645   -2.3316    0.3598   C.ar      1 RES1   0.0000
    17 C14      -1.5686   -2.4207    1.5721   C.2       1 RES1   0.0000
    18 O2       -0.5811   -1.6371    1.5848   O.2       1 RES1   0.0000
    19 N2       -1.7455   -3.3064    2.5415   N.am      1 RES1   0.0000
    20 C15      -0.7484   -3.3887    3.6127   C.3       1 RES1   0.0000
    21 C16      -1.2436   -2.7635    4.9094   C.3       1 RES1   0.0000
    22 C17      -2.8963   -4.1346    2.7337   C.ar      1 RES1   0.0000
    23 C18      -2.7192   -5.5117    2.8391   C.ar      1 RES1   0.0000
    24 C19      -3.7989   -6.3358    3.0899   C.ar      1 RES1   0.0000
    25 C20      -5.0754   -5.8052    3.2253   C.ar      1 RES1   0.0000
    26 C21      -6.2618   -6.6733    3.4643   C.3       1 RES1   0.0000
    27 C22      -5.2261   -4.4241    3.1395   C.ar      1 RES1   0.0000
    28 C23      -4.1637   -3.5651    2.9103   C.ar      1 RES1   0.0000
    29 C24      -4.3784   -2.0809    2.9083   C.3       1 RES1   0.0000
    30 N3       -2.2559   -1.1976   -0.3302   N.ar      1 RES1   0.0000
    31 N4       -1.6084    1.0614   -1.6490   N.ar      1 RES1   0.0000
    32 C25       1.5028    4.5751   -0.9639   C.ar      1 RES1   0.0000
    33 C26       1.2929    5.7748   -0.2767   C.ar      1 RES1   0.0000
    34 C27       2.3160    6.4056    0.3988   C.ar      1 RES1   0.0000
    35 C28       3.5864    5.8392    0.4483   C.ar      1 RES1   0.0000
    36 C29       4.7088    6.4922    1.1859   C.3       1 RES1   0.0000
    37 C30       3.7790    4.6416   -0.2262   C.ar      1 RES1   0.0000
    38 C31       2.7794    4.0045   -0.9600   C.ar      1 RES1   0.0000
    39 C32       3.1836    2.7787   -1.7254   C.3       1 RES1   0.0000
    40 H1       -2.2624    6.0202   -2.5272   H         1 RES1   0.0000
    41 H2       -1.7657    5.5670   -0.9080   H         1 RES1   0.0000
    42 H3       -2.3508    4.3368   -2.0125   H         1 RES1   0.0000
    43 H4        0.2099    5.9901   -2.4014   H         1 RES1   0.0000
    44 H5       -0.3465    4.8031   -3.5337   H         1 RES1   0.0000
    45 H6       -1.2426    3.3055   -4.1320   H         1 RES1   0.0000
    46 H7       -2.9990    1.9548   -5.1000   H         1 RES1   0.0000
    47 H8       -3.7325   -0.1142   -3.9851   H         1 RES1   0.0000
    48 H9       -4.2517   -1.8081   -2.9656   H         1 RES1   0.0000
    49 H10      -4.6839   -3.8318   -1.6719   H         1 RES1   0.0000
    50 H11      -3.4719   -4.2517    0.4326   H         1 RES1   0.0000
    51 H12       0.1585   -2.8899    3.2614   H         1 RES1   0.0000
    52 H13      -0.5422   -4.4471    3.7800   H         1 RES1   0.0000
    53 H14      -1.4795   -1.7115    4.7714   H         1 RES1   0.0000
    54 H15      -0.4626   -2.8539    5.6569   H         1 RES1   0.0000
    55 H16      -2.1241   -3.2850    5.2743   H         1 RES1   0.0000
    56 H17      -1.7398   -5.9520    2.7158   H         1 RES1   0.0000
    57 H18      -3.6475   -7.3976    3.1922   H         1 RES1   0.0000
    58 H19      -5.9748   -7.7200    3.5158   H         1 RES1   0.0000
    59 H20      -6.9897   -6.5388    2.6643   H         1 RES1   0.0000
    60 H21      -6.7507   -6.3886    4.3949   H         1 RES1   0.0000
    61 H22      -6.2113   -4.0108    3.2806   H         1 RES1   0.0000
    62 H23      -5.4210   -1.8679    3.1240   H         1 RES1   0.0000
    63 H24      -4.1276   -1.6293    1.9491   H         1 RES1   0.0000
    64 H25      -3.7584   -1.6099    3.6692   H         1 RES1   0.0000
    65 H26       0.3212    6.2434   -0.2678   H         1 RES1   0.0000
    66 H27       2.1282    7.3539    0.8804   H         1 RES1   0.0000
    67 H28       4.3908    7.4344    1.6259   H         1 RES1   0.0000
    68 H29       5.5390    6.6812    0.5065   H         1 RES1   0.0000
    69 H30       5.0766    5.8347    1.9739   H         1 RES1   0.0000
    70 H31       4.7667    4.2033   -0.2070   H         1 RES1   0.0000
    71 H32       4.1102    2.9886   -2.2586   H         1 RES1   0.0000
    72 H33       2.4370    2.4506   -2.4436   H         1 RES1   0.0000
    73 H34       3.3710    1.9654   -1.0203   H         1 RES1   0.0000
    74 C33       2.2010    3.9739    3.3044   C.3       1 RES1   0.0000
    75 C34       0.8651    3.7259    3.9874   C.3       1 RES1   0.0000
    76 N5       -0.1090    3.0877    3.0932   N.am      1 RES1   0.0000
    77 C35       0.0706    1.9259    2.4679   C.2       1 RES1   0.0000
    78 O3       -0.7210    1.5231    1.5758   O.2       1 RES1   0.0000
    79 C36       1.1968    0.9671    2.8192   C.ar      1 RES1   0.0000
    80 C37       1.7213    0.7543    4.0939   C.ar      1 RES1   0.0000
    81 C38       2.6012   -0.2966    4.2953   C.ar      1 RES1   0.0000
    82 C39       2.8890   -1.1608    3.2557   C.ar      1 RES1   0.0000
    83 C40       2.3190   -0.9050    2.0089   C.ar      1 RES1   0.0000
    84 C41       2.4959   -1.8501    0.8793   C.ar      1 RES1   0.0000
    85 C42       3.2977   -2.9914    0.9687   C.ar      1 RES1   0.0000
    86 C43       3.3653   -3.8480   -0.1166   C.ar      1 RES1   0.0000
    87 C44       2.6322   -3.5733   -1.2621   C.ar      1 RES1   0.0000
    88 C45       1.8578   -2.4160   -1.2816   C.ar      1 RES1   0.0000
    89 C46       0.8992   -1.9913   -2.3601   C.2       1 RES1   0.0000
    90 O4        0.1432   -1.0268   -2.0665   O.2       1 RES1   0.0000
    91 N6        0.7415   -2.6433   -3.5061   N.am      1 RES1   0.0000
    92 C47      -0.4360   -2.3232   -4.3162   C.3       1 RES1   0.0000
    93 C48      -0.1166   -1.5144   -5.5640   C.3       1 RES1   0.0000
    94 C49       1.6775   -3.5158   -4.1433   C.ar      1 RES1   0.0000
    95 C50       1.2606   -4.7747   -4.5675   C.ar      1 RES1   0.0000
    96 C51       2.1111   -5.5746   -5.3062   C.ar      1 RES1   0.0000
    97 C52       3.3905   -5.1424   -5.6321   C.ar      1 RES1   0.0000
    98 C53       4.3258   -5.9915   -6.4219   C.3       1 RES1   0.0000
    99 C54       3.7826   -3.8755   -5.2085   C.ar      1 RES1   0.0000
   100 C55       2.9530   -3.0403   -4.4789   C.ar      1 RES1   0.0000
   101 C56       3.3893   -1.6488   -4.1312   C.3       1 RES1   0.0000
   102 N7        1.7972   -1.5840   -0.2288   N.ar      1 RES1   0.0000
   103 N8        1.5252    0.1563    1.8011   N.ar      1 RES1   0.0000
   104 C57      -1.2682    3.8939    2.8185   C.ar      1 RES1   0.0000
   105 C58      -1.0637    5.2510    2.5525   C.ar      1 RES1   0.0000
   106 C59      -2.1213    6.1279    2.4357   C.ar      1 RES1   0.0000
   107 C60      -3.4329    5.6732    2.5417   C.ar      1 RES1   0.0000
   108 C61      -4.5993    6.6001    2.4369   C.3       1 RES1   0.0000
   109 C62      -3.6224    4.3172    2.7695   C.ar      1 RES1   0.0000
   110 C63      -2.5752    3.4136    2.9388   C.ar      1 RES1   0.0000
   111 C64      -2.9483    2.0044    3.2944   C.3       1 RES1   0.0000
   112 H35       2.8608    4.4791    3.9996   H         1 RES1   0.0000
   113 H36       2.0818    4.6060    2.4295   H         1 RES1   0.0000
   114 H37       2.6694    3.0465    2.9895   H         1 RES1   0.0000
   115 H38       0.4234    4.6704    4.3108   H         1 RES1   0.0000
   116 H39       0.9863    3.1367    4.8959   H         1 RES1   0.0000
   117 H40       1.4289    1.3432    4.9444   H         1 RES1   0.0000
   118 H41       3.0114   -0.4657    5.2762   H         1 RES1   0.0000
   119 H42       3.4819   -2.0409    3.4439   H         1 RES1   0.0000
   120 H43       3.8529   -3.2296    1.8610   H         1 RES1   0.0000
   121 H44       3.9780   -4.7329   -0.0678   H         1 RES1   0.0000
   122 H45       2.6591   -4.2468   -2.1036   H         1 RES1   0.0000
   123 H46      -1.1305   -1.7757   -3.6749   H         1 RES1   0.0000
   124 H47      -0.8794   -3.2763   -4.6098   H         1 RES1   0.0000
   125 H48       0.3151   -0.5500   -5.3116   H         1 RES1   0.0000
   126 H49      -1.0426   -1.3538   -6.1060   H         1 RES1   0.0000
   127 H50       0.5693   -2.0563   -6.2083   H         1 RES1   0.0000
   128 H51       0.2725   -5.1425   -4.3283   H         1 RES1   0.0000
   129 H52       1.7685   -6.5340   -5.6558   H         1 RES1   0.0000
   130 H53       3.8686   -6.9431   -6.6806   H         1 RES1   0.0000
   131 H54       5.2337   -6.1730   -5.8472   H         1 RES1   0.0000
   132 H55       4.6220   -5.4763   -7.3350   H         1 RES1   0.0000
   133 H56       4.7612   -3.5247   -5.4926   H         1 RES1   0.0000
   134 H57       4.3833   -1.4677   -4.5284   H         1 RES1   0.0000
   135 H58       3.4114   -1.4866   -3.0540   H         1 RES1   0.0000
   136 H59       2.7028   -0.9251   -4.5691   H         1 RES1   0.0000
   137 H60      -0.0627    5.6422    2.4505   H         1 RES1   0.0000
   138 H61      -1.9216    7.1788    2.2880   H         1 RES1   0.0000
   139 H62      -4.2718    7.6277    2.2997   H         1 RES1   0.0000
   140 H63      -5.2062    6.5401    3.3398   H         1 RES1   0.0000
   141 H64      -5.2359    6.3121    1.6004   H         1 RES1   0.0000
   142 H65      -4.6356    3.9530    2.8629   H         1 RES1   0.0000
   143 H66      -3.6576    2.0271    4.1204   H         1 RES1   0.0000
   144 H67      -2.1004    1.3888    3.5816   H         1 RES1   0.0000
   145 H68      -3.4356    1.5429    2.4343   H         1 RES1   0.0000
@<TRIPOS>BOND
     1     1     6    1
     2     1    18    1
     3     1    30    1
     4     1    31    1
     5     1    78    1
     6     1    90    1
     7     1   102    1
     8     1   103    1
     9     2     3    1
    10     2    40    1
    11     2    41    1
    12     2    42    1
    13     3     4    1
    14     3    43    1
    15     3    44    1
    16     4     5    1
    17     4    32    1
    18     5     6    2
    19     5     7    1
    20     7     8    1
    21     7    31    2
    22     8     9    2
    23     8    45    1
    24     9    10    1
    25     9    46    1
    26    10    11    2
    27    10    47    1
    28    11    12    1
    29    11    31    1
    30    12    13    1
    31    12    30    2
    32    13    14    2
    33    13    48    1
    34    14    15    1
    35    14    49    1
    36    15    16    2
    37    15    50    1
    38    16    17    1
    39    16    30    1
    40    17    18    2
    41    17    19    1
    42    19    20    1
    43    19    22    1
    44    20    21    1
    45    20    51    1
    46    20    52    1
    47    21    53    1
    48    21    54    1
    49    21    55    1
    50    22    23    1
    51    22    28    2
    52    23    24    2
    53    23    56    1
    54    24    25    1
    55    24    57    1
    56    25    26    1
    57    25    27    2
    58    26    58    1
    59    26    59    1
    60    26    60    1
    61    27    28    1
    62    27    61    1
    63    28    29    1
    64    29    62    1
    65    29    63    1
    66    29    64    1
    67    32    33    1
    68    32    38    2
    69    33    34    2
    70    33    65    1
    71    34    35    1
    72    34    66    1
    73    35    36    1
    74    35    37    2
    75    36    67    1
    76    36    68    1
    77    36    69    1
    78    37    38    1
    79    37    70    1
    80    38    39    1
    81    39    71    1
    82    39    72    1
    83    39    73    1
    84    74    75    1
    85    74   112    1
    86    74   113    1
    87    74   114    1
    88    75    76    1
    89    75   115    1
    90    75   116    1
    91    76    77    1
    92    76   104    1
    93    77    78    2
    94    77    79    1
    95    79    80    1
    96    79   103    2
    97    80    81    2
    98    80   117    1
    99    81    82    1
   100    81   118    1
   101    82    83    2
   102    82   119    1
   103    83    84    1
   104    83   103    1
   105    84    85    1
   106    84   102    2
   107    85    86    2
   108    85   120    1
   109    86    87    1
   110    86   121    1
   111    87    88    2
   112    87   122    1
   113    88    89    1
   114    88   102    1
   115    89    90    2
   116    89    91    1
   117    91    92    1
   118    91    94    1
   119    92    93    1
   120    92   123    1
   121    92   124    1
   122    93   125    1
   123    93   126    1
   124    93   127    1
   125    94    95    1
   126    94   100    2
   127    95    96    2
   128    95   128    1
   129    96    97    1
   130    96   129    1
   131    97    98    1
   132    97    99    2
   133    98   130    1
   134    98   131    1
   135    98   132    1
   136    99   100    1
   137    99   133    1
   138   100   101    1
   139   101   134    1
   140   101   135    1
   141   101   136    1
   142   104   105    1
   143   104   110    2
   144   105   106    2
   145   105   137    1
   146   106   107    1
   147   106   138    1
   148   107   108    1
   149   107   109    2
   150   108   139    1
   151   108   140    1
   152   108   141    1
   153   109   110    1
   154   109   142    1
   155   110   111    1
   156   111   143    1
   157   111   144    1
   158   111   145    1
@<TRIPOS>SUBSTRUCTURE
     1 RES1      145 GROUP             0 ****  ****    0  
