@<TRIPOS>MOLECULE
YEMSEP_geometry_0_nunpairedes_0_charge_3 Charge: 3 Unpaired_Electrons: 5 XTB_Unpaired_Electrons: 0 XTB_Charge: 3
   337   342     1     0     0
SMALL
NoCharges
****
Generated from Architector

@<TRIPOS>ATOM
     1 Dy1      -0.1787   -0.0577    0.1025   Dy        1 RES1   0.0000
     2 C1       -6.1709    7.3259   -5.1296   C.3       1 RES1   0.0000
     3 C2       -5.4034    6.0375   -5.3936   C.3       1 RES1   0.0000
     4 C3       -6.2266    4.8022   -5.0316   C.3       1 RES1   0.0000
     5 C4       -5.4577    3.4920   -5.2013   C.3       1 RES1   0.0000
     6 C5       -6.2637    2.2880   -4.7106   C.3       1 RES1   0.0000
     7 C6       -5.4056    1.0278   -4.6058   C.3       1 RES1   0.0000
     8 C7       -6.0982   -0.0959   -3.8318   C.3       1 RES1   0.0000
     9 C8       -5.1161   -1.1983   -3.4237   C.3       1 RES1   0.0000
    10 C9       -5.7209   -2.1681   -2.4054   C.3       1 RES1   0.0000
    11 C10      -4.7537   -3.2758   -1.9761   C.3       1 RES1   0.0000
    12 C11      -3.5165   -2.8014   -1.1913   C.3       1 RES1   0.0000
    13 C12      -3.5988   -2.8955    0.3368   C.3       1 RES1   0.0000
    14 N1       -2.3490   -3.3067    0.9813   N.am      1 RES1   0.0000
    15 C13      -2.0970   -4.7347    1.0024   C.3       1 RES1   0.0000
    16 C14      -1.5499   -5.3273   -0.3024   C.3       1 RES1   0.0000
    17 C15      -0.2391   -4.7327   -0.8451   C.3       1 RES1   0.0000
    18 C16      -0.3029   -3.5115   -1.7692   C.3       1 RES1   0.0000
    19 C17       1.0096   -3.2899   -2.5525   C.3       1 RES1   0.0000
    20 C18       0.9827   -3.8271   -4.0019   C.3       1 RES1   0.0000
    21 C19       1.3849   -2.7802   -5.0536   C.3       1 RES1   0.0000
    22 C20       0.2403   -1.8371   -5.4294   C.3       1 RES1   0.0000
    23 C21       0.6842   -0.7471   -6.4078   C.3       1 RES1   0.0000
    24 C22      -0.4768   -0.0163   -7.0855   C.3       1 RES1   0.0000
    25 C23      -1.3635    0.7582   -6.1127   C.3       1 RES1   0.0000
    26 C24      -2.2899    1.7372   -6.8253   C.3       1 RES1   0.0000
    27 C25      -1.5415   -2.4042    1.5083   C.2       1 RES1   0.0000
    28 O1       -1.7244   -1.1662    1.3619   O.2       1 RES1   0.0000
    29 C26      -0.3891   -2.7648    2.4586   C.3       1 RES1   0.0000
    30 O2        0.5351   -1.6793    2.4732   O.3       1 RES1   0.0000
    31 C27       0.6029   -0.8296    3.6103   C.3       1 RES1   0.0000
    32 C28      -0.3622    0.3568    3.4977   C.3       1 RES1   0.0000
    33 O3       -0.0257    1.1224    2.3183   O.3       1 RES1   0.0000
    34 C29      -0.1810    2.5321    2.5231   C.3       1 RES1   0.0000
    35 C30       0.0496    3.2303    1.1795   C.2       1 RES1   0.0000
    36 O4        0.0092    2.4765    0.1719   O.2       1 RES1   0.0000
    37 N2        0.1648    4.5499    1.1059   N.am      1 RES1   0.0000
    38 C31       0.1667    5.1960   -0.2154   C.3       1 RES1   0.0000
    39 C32      -0.3982    6.6282   -0.3369   C.3       1 RES1   0.0000
    40 C33      -1.8977    6.8659   -0.0711   C.3       1 RES1   0.0000
    41 C34      -2.2616    7.4737    1.2951   C.3       1 RES1   0.0000
    42 C35      -3.7284    7.9400    1.4213   C.3       1 RES1   0.0000
    43 C36      -4.1417    8.1211    2.8917   C.3       1 RES1   0.0000
    44 C37      -5.6363    8.4018    3.0961   C.3       1 RES1   0.0000
    45 C38      -6.5576    7.1749    2.9836   C.3       1 RES1   0.0000
    46 C39      -7.4294    6.9003    4.2194   C.3       1 RES1   0.0000
    47 C40      -6.7625    6.0748    5.3268   C.3       1 RES1   0.0000
    48 C41      -5.7352    6.8337    6.1671   C.3       1 RES1   0.0000
    49 C42      -5.1472    5.9481    7.2613   C.3       1 RES1   0.0000
    50 C43       0.5552    5.3983    2.2286   C.3       1 RES1   0.0000
    51 C44       2.0654    5.7205    2.2336   C.3       1 RES1   0.0000
    52 C45       2.3817    7.1566    1.8028   C.3       1 RES1   0.0000
    53 C46       3.8567    7.5220    1.9893   C.3       1 RES1   0.0000
    54 C47       4.8009    6.7890    1.0345   C.3       1 RES1   0.0000
    55 C48       4.5652    7.1240   -0.4434   C.3       1 RES1   0.0000
    56 C49       5.6933    6.6259   -1.3588   C.3       1 RES1   0.0000
    57 C50       5.5126    5.2102   -1.9115   C.3       1 RES1   0.0000
    58 C51       5.4147    4.1577   -0.8153   C.3       1 RES1   0.0000
    59 C52       5.6254    2.7325   -1.3121   C.3       1 RES1   0.0000
    60 C53       5.3508    1.7160   -0.2000   C.3       1 RES1   0.0000
    61 C54       6.1683    1.9567    1.0649   C.3       1 RES1   0.0000
    62 H1       -5.5692    8.1889   -5.3963   H         1 RES1   0.0000
    63 H2       -6.4408    7.4103   -4.0801   H         1 RES1   0.0000
    64 H3       -7.0829    7.3551   -5.7164   H         1 RES1   0.0000
    65 H4       -4.4793    6.0400   -4.8089   H         1 RES1   0.0000
    66 H5       -5.1265    5.9926   -6.4471   H         1 RES1   0.0000
    67 H6       -7.1200    4.7740   -5.6556   H         1 RES1   0.0000
    68 H7       -6.5538    4.8891   -3.9913   H         1 RES1   0.0000
    69 H8       -4.5144    3.5572   -4.6430   H         1 RES1   0.0000
    70 H9       -5.2057    3.3503   -6.2526   H         1 RES1   0.0000
    71 H10      -7.0960    2.1062   -5.3897   H         1 RES1   0.0000
    72 H11      -6.6983    2.5191   -3.7327   H         1 RES1   0.0000
    73 H12      -4.4643    1.2715   -4.0957   H         1 RES1   0.0000
    74 H13      -5.1458    0.6832   -5.6077   H         1 RES1   0.0000
    75 H14      -6.8914   -0.5228   -4.4453   H         1 RES1   0.0000
    76 H15      -6.5740    0.3131   -2.9328   H         1 RES1   0.0000
    77 H16      -4.2188   -0.7295   -3.0038   H         1 RES1   0.0000
    78 H17      -4.8037   -1.7482   -4.3144   H         1 RES1   0.0000
    79 H18      -6.5864   -2.6410   -2.8684   H         1 RES1   0.0000
    80 H19      -6.0730   -1.6141   -1.5325   H         1 RES1   0.0000
    81 H20      -4.3943   -3.7825   -2.8771   H         1 RES1   0.0000
    82 H21      -5.2946   -4.0268   -1.3954   H         1 RES1   0.0000
    83 H22      -3.2465   -1.7899   -1.4894   H         1 RES1   0.0000
    84 H23      -2.6929   -3.4271   -1.4944   H         1 RES1   0.0000
    85 H24      -4.3423   -3.6379    0.6240   H         1 RES1   0.0000
    86 H25      -3.8746   -1.9412    0.7782   H         1 RES1   0.0000
    87 H26      -3.0364   -5.2412    1.2238   H         1 RES1   0.0000
    88 H27      -1.4202   -4.9815    1.8131   H         1 RES1   0.0000
    89 H28      -2.3167   -5.3437   -1.0779   H         1 RES1   0.0000
    90 H29      -1.3558   -6.3763   -0.0581   H         1 RES1   0.0000
    91 H30       0.2292   -5.5318   -1.4181   H         1 RES1   0.0000
    92 H31       0.4242   -4.4872   -0.0144   H         1 RES1   0.0000
    93 H32      -0.5316   -2.5958   -1.1707   H         1 RES1   0.0000
    94 H33      -1.0881   -3.6430   -2.5168   H         1 RES1   0.0000
    95 H34       1.8443   -3.7443   -2.0095   H         1 RES1   0.0000
    96 H35       1.1982   -2.2144   -2.5893   H         1 RES1   0.0000
    97 H36      -0.0197   -4.1839   -4.2430   H         1 RES1   0.0000
    98 H37       1.6527   -4.6830   -4.0986   H         1 RES1   0.0000
    99 H38       1.7037   -3.2941   -5.9616   H         1 RES1   0.0000
   100 H39       2.2503   -2.2161   -4.6893   H         1 RES1   0.0000
   101 H40      -0.1829   -1.3883   -4.5267   H         1 RES1   0.0000
   102 H41      -0.5454   -2.4301   -5.8985   H         1 RES1   0.0000
   103 H42       1.2944   -1.2029   -7.1884   H         1 RES1   0.0000
   104 H43       1.3167   -0.0141   -5.8955   H         1 RES1   0.0000
   105 H44      -1.0885   -0.7321   -7.6358   H         1 RES1   0.0000
   106 H45      -0.0620    0.6847   -7.8123   H         1 RES1   0.0000
   107 H46      -0.7215    1.3161   -5.4234   H         1 RES1   0.0000
   108 H47      -1.9643    0.0607   -5.5246   H         1 RES1   0.0000
   109 H48      -1.7161    2.4898   -7.3619   H         1 RES1   0.0000
   110 H49      -2.9353    2.2469   -6.1114   H         1 RES1   0.0000
   111 H50      -2.9181    1.2144   -7.5422   H         1 RES1   0.0000
   112 H51       0.1724   -3.6496    2.1416   H         1 RES1   0.0000
   113 H52      -0.8183   -2.9600    3.4530   H         1 RES1   0.0000
   114 H53       1.6228   -0.4290    3.6034   H         1 RES1   0.0000
   115 H54       0.4259   -1.3876    4.5403   H         1 RES1   0.0000
   116 H55      -0.2828    0.9974    4.3789   H         1 RES1   0.0000
   117 H56      -1.3940   -0.0020    3.3946   H         1 RES1   0.0000
   118 H57       0.5003    2.8670    3.3157   H         1 RES1   0.0000
   119 H58      -1.2239    2.7591    2.8081   H         1 RES1   0.0000
   120 H59      -0.4068    4.5283   -0.8653   H         1 RES1   0.0000
   121 H60       1.2017    5.2407   -0.5802   H         1 RES1   0.0000
   122 H61      -0.2066    6.8900   -1.3817   H         1 RES1   0.0000
   123 H62       0.1748    7.3409    0.2544   H         1 RES1   0.0000
   124 H63      -2.4280    5.9268   -0.2087   H         1 RES1   0.0000
   125 H64      -2.2697    7.5468   -0.8377   H         1 RES1   0.0000
   126 H65      -1.6211    8.3388    1.4884   H         1 RES1   0.0000
   127 H66      -2.0774    6.7384    2.0835   H         1 RES1   0.0000
   128 H67      -4.4038    7.2249    0.9529   H         1 RES1   0.0000
   129 H68      -3.8567    8.8908    0.8976   H         1 RES1   0.0000
   130 H69      -3.5830    8.9666    3.2946   H         1 RES1   0.0000
   131 H70      -3.8594    7.2390    3.4746   H         1 RES1   0.0000
   132 H71      -5.9427    9.1630    2.3793   H         1 RES1   0.0000
   133 H72      -5.7699    8.8409    4.0827   H         1 RES1   0.0000
   134 H73      -5.9641    6.2836    2.7706   H         1 RES1   0.0000
   135 H74      -7.2339    7.3264    2.1436   H         1 RES1   0.0000
   136 H75      -8.3220    6.3517    3.9026   H         1 RES1   0.0000
   137 H76      -7.7775    7.8466    4.6350   H         1 RES1   0.0000
   138 H77      -6.2911    5.1906    4.8783   H         1 RES1   0.0000
   139 H78      -7.5435    5.7091    6.0015   H         1 RES1   0.0000
   140 H79      -6.2222    7.6972    6.6216   H         1 RES1   0.0000
   141 H80      -4.9307    7.2028    5.5308   H         1 RES1   0.0000
   142 H81      -5.9343    5.5585    7.9031   H         1 RES1   0.0000
   143 H82      -4.4495    6.5125    7.8749   H         1 RES1   0.0000
   144 H83      -4.6145    5.1009    6.8304   H         1 RES1   0.0000
   145 H84       0.2453    4.9371    3.1648   H         1 RES1   0.0000
   146 H85       0.0036    6.3300    2.1330   H         1 RES1   0.0000
   147 H86       2.5841    5.0174    1.5806   H         1 RES1   0.0000
   148 H87       2.4546    5.5855    3.2416   H         1 RES1   0.0000
   149 H88       1.7799    7.8500    2.3951   H         1 RES1   0.0000
   150 H89       2.1241    7.2959    0.7543   H         1 RES1   0.0000
   151 H90       4.1579    7.3257    3.0220   H         1 RES1   0.0000
   152 H91       3.9736    8.5941    1.8321   H         1 RES1   0.0000
   153 H92       4.7060    5.7147    1.1946   H         1 RES1   0.0000
   154 H93       5.8249    7.0698    1.2910   H         1 RES1   0.0000
   155 H94       4.4840    8.2111   -0.5368   H         1 RES1   0.0000
   156 H95       3.6140    6.6989   -0.7774   H         1 RES1   0.0000
   157 H96       6.6354    6.6761   -0.8091   H         1 RES1   0.0000
   158 H97       5.7786    7.3042   -2.2084   H         1 RES1   0.0000
   159 H98       6.3827    4.9888   -2.5301   H         1 RES1   0.0000
   160 H99       4.6298    5.1732   -2.5558   H         1 RES1   0.0000
   161 H100      4.4330    4.2099   -0.3364   H         1 RES1   0.0000
   162 H101      6.1802    4.3786   -0.0734   H         1 RES1   0.0000
   163 H102      6.6507    2.6115   -1.6654   H         1 RES1   0.0000
   164 H103      4.9565    2.5283   -2.1565   H         1 RES1   0.0000
   165 H104      5.5919    0.7165   -0.5761   H         1 RES1   0.0000
   166 H105      4.2827    1.7495    0.0626   H         1 RES1   0.0000
   167 H106      7.2323    1.8966    0.8525   H         1 RES1   0.0000
   168 H107      5.9281    1.2093    1.8183   H         1 RES1   0.0000
   169 H108      5.9494    2.9316    1.4887   H         1 RES1   0.0000
   170 C55      -1.8430   -8.9115    5.3401   C.3       1 RES1   0.0000
   171 C56      -2.2264   -7.4561    5.5681   C.3       1 RES1   0.0000
   172 C57      -3.4127   -7.0406    4.7021   C.3       1 RES1   0.0000
   173 C58      -3.7714   -5.5673    4.8692   C.3       1 RES1   0.0000
   174 C59      -4.9613   -5.1439    4.0111   C.3       1 RES1   0.0000
   175 C60      -5.1369   -3.6294    4.0214   C.3       1 RES1   0.0000
   176 C61      -6.1999   -3.1414    3.0404   C.3       1 RES1   0.0000
   177 C62      -6.1329   -1.6233    2.8814   C.3       1 RES1   0.0000
   178 C63      -6.7650   -1.1361    1.5811   C.3       1 RES1   0.0000
   179 C64      -6.6241    0.3767    1.4205   C.3       1 RES1   0.0000
   180 C65      -5.1951    0.8452    1.1052   C.3       1 RES1   0.0000
   181 C66      -4.8576    0.6995   -0.3838   C.3       1 RES1   0.0000
   182 N3       -3.8777    1.6384   -0.9426   N.am      1 RES1   0.0000
   183 C67      -4.3999    2.9107   -1.4264   C.3       1 RES1   0.0000
   184 C68      -5.3532    3.6351   -0.4673   C.3       1 RES1   0.0000
   185 C69      -4.6583    4.4673    0.6172   C.3       1 RES1   0.0000
   186 C70      -3.5614    3.8023    1.4752   C.3       1 RES1   0.0000
   187 C71      -3.9888    3.4695    2.9226   C.3       1 RES1   0.0000
   188 C72      -3.4142    4.4059    4.0068   C.3       1 RES1   0.0000
   189 C73      -2.4805    3.7500    5.0386   C.3       1 RES1   0.0000
   190 C74      -2.9518    2.3875    5.5467   C.3       1 RES1   0.0000
   191 C75      -2.0670    1.8528    6.6734   C.3       1 RES1   0.0000
   192 C76      -2.1740    0.3339    6.8202   C.3       1 RES1   0.0000
   193 C77      -3.5577   -0.1453    7.2531   C.3       1 RES1   0.0000
   194 C78      -3.5819   -1.6497    7.4979   C.3       1 RES1   0.0000
   195 C79      -2.6707    1.1979   -1.2378   C.2       1 RES1   0.0000
   196 O5       -2.2249    0.1170   -0.7723   O.2       1 RES1   0.0000
   197 C80      -1.7392    1.8966   -2.2240   C.3       1 RES1   0.0000
   198 O6       -0.5363    1.1375   -2.1800   O.3       1 RES1   0.0000
   199 C81       0.5606    1.7827   -2.8208   C.3       1 RES1   0.0000
   200 C82       1.7151    0.7911   -2.8423   C.3       1 RES1   0.0000
   201 O7        1.8226    0.2010   -1.5445   O.3       1 RES1   0.0000
   202 C83       2.9953   -0.6100   -1.4262   C.3       1 RES1   0.0000
   203 C84       2.7425   -1.5383   -0.2387   C.2       1 RES1   0.0000
   204 O8        1.5707   -1.5013    0.2260   O.2       1 RES1   0.0000
   205 N4        3.6896   -2.3257    0.2296   N.am      1 RES1   0.0000
   206 C85       3.4967   -2.9952    1.5232   C.3       1 RES1   0.0000
   207 C86       3.9589   -4.4553    1.6841   C.3       1 RES1   0.0000
   208 C87       2.9376   -5.5502    1.3343   C.3       1 RES1   0.0000
   209 C88       3.0919   -6.1418   -0.0700   C.3       1 RES1   0.0000
   210 C89       2.1363   -7.3215   -0.3000   C.3       1 RES1   0.0000
   211 C90       2.0833   -7.7434   -1.7736   C.3       1 RES1   0.0000
   212 C91       1.1199   -8.9095   -2.0295   C.3       1 RES1   0.0000
   213 C92      -0.3619   -8.4994   -2.0517   C.3       1 RES1   0.0000
   214 C93      -1.0684   -8.5111   -3.4139   C.3       1 RES1   0.0000
   215 C94      -0.6942   -7.4137   -4.4174   C.3       1 RES1   0.0000
   216 C95       0.6032   -7.6563   -5.1908   C.3       1 RES1   0.0000
   217 C96       0.6856   -6.7931   -6.4473   C.3       1 RES1   0.0000
   218 C97       5.0282   -2.3856   -0.3411   C.3       1 RES1   0.0000
   219 C98       6.1016   -1.7310    0.5499   C.3       1 RES1   0.0000
   220 C99       6.8628   -2.7257    1.4297   C.3       1 RES1   0.0000
   221 C100      8.0328   -2.0826    2.1780   C.3       1 RES1   0.0000
   222 C101      7.6184   -1.1625    3.3292   C.3       1 RES1   0.0000
   223 C102      6.9521   -1.9005    4.4938   C.3       1 RES1   0.0000
   224 C103      6.7933   -1.0380    5.7536   C.3       1 RES1   0.0000
   225 C104      5.4664   -0.2867    5.8926   C.3       1 RES1   0.0000
   226 C105      5.2355    0.7970    4.8425   C.3       1 RES1   0.0000
   227 C106      4.0656    1.7072    5.2130   C.3       1 RES1   0.0000
   228 C107      3.8185    2.8117    4.1813   C.3       1 RES1   0.0000
   229 C108      4.9164    3.8720    4.1890   C.3       1 RES1   0.0000
   230 H109     -1.0054   -9.1892    5.9731   H         1 RES1   0.0000
   231 H110     -1.5624   -9.0796    4.3025   H         1 RES1   0.0000
   232 H111     -2.6769   -9.5653    5.5770   H         1 RES1   0.0000
   233 H112     -1.3699   -6.8132    5.3469   H         1 RES1   0.0000
   234 H113     -2.4824   -7.3109    6.6175   H         1 RES1   0.0000
   235 H114     -4.2759   -7.6505    4.9651   H         1 RES1   0.0000
   236 H115     -3.1779   -7.2392    3.6531   H         1 RES1   0.0000
   237 H116     -2.9029   -4.9549    4.6010   H         1 RES1   0.0000
   238 H117     -3.9989   -5.3658    5.9162   H         1 RES1   0.0000
   239 H118     -5.8681   -5.6217    4.3791   H         1 RES1   0.0000
   240 H119     -4.8105   -5.4818    2.9821   H         1 RES1   0.0000
   241 H120     -4.1797   -3.1590    3.7591   H         1 RES1   0.0000
   242 H121     -5.3952   -3.3026    5.0296   H         1 RES1   0.0000
   243 H122     -7.1885   -3.4363    3.3886   H         1 RES1   0.0000
   244 H123     -6.0521   -3.6178    2.0667   H         1 RES1   0.0000
   245 H124     -5.0836   -1.3150    2.9157   H         1 RES1   0.0000
   246 H125     -6.6345   -1.1456    3.7241   H         1 RES1   0.0000
   247 H126     -7.8212   -1.4037    1.5889   H         1 RES1   0.0000
   248 H127     -6.3115   -1.6467    0.7279   H         1 RES1   0.0000
   249 H128     -6.9528    0.8562    2.3447   H         1 RES1   0.0000
   250 H129     -7.2954    0.7233    0.6316   H         1 RES1   0.0000
   251 H130     -4.4647    0.2907    1.6982   H         1 RES1   0.0000
   252 H131     -5.1273    1.8863    1.3901   H         1 RES1   0.0000
   253 H132     -5.7681    0.8435   -0.9700   H         1 RES1   0.0000
   254 H133     -4.4651   -0.2955   -0.5765   H         1 RES1   0.0000
   255 H134     -4.9519    2.7019   -2.3453   H         1 RES1   0.0000
   256 H135     -3.5606    3.5731   -1.6492   H         1 RES1   0.0000
   257 H136     -6.0867    2.9559   -0.0429   H         1 RES1   0.0000
   258 H137     -5.9158    4.3493   -1.0758   H         1 RES1   0.0000
   259 H138     -5.4304    4.8638    1.2798   H         1 RES1   0.0000
   260 H139     -4.2244    5.3156    0.0908   H         1 RES1   0.0000
   261 H140     -2.7105    4.4834    1.5238   H         1 RES1   0.0000
   262 H141     -3.1923    2.8984    0.9794   H         1 RES1   0.0000
   263 H142     -3.7042    2.4404    3.1412   H         1 RES1   0.0000
   264 H143     -5.0768    3.5022    3.0023   H         1 RES1   0.0000
   265 H144     -4.2404    4.8539    4.5547   H         1 RES1   0.0000
   266 H145     -2.8788    5.2301    3.5314   H         1 RES1   0.0000
   267 H146     -2.4077    4.4205    5.8984   H         1 RES1   0.0000
   268 H147     -1.4678    3.6629    4.6348   H         1 RES1   0.0000
   269 H148     -2.9571    1.6496    4.7394   H         1 RES1   0.0000
   270 H149     -3.9774    2.4871    5.8941   H         1 RES1   0.0000
   271 H150     -2.3391    2.3317    7.6141   H         1 RES1   0.0000
   272 H151     -1.0228    2.1139    6.4700   H         1 RES1   0.0000
   273 H152     -1.4449   -0.0036    7.5583   H         1 RES1   0.0000
   274 H153     -1.9159   -0.1391    5.8645   H         1 RES1   0.0000
   275 H154     -4.2950    0.1089    6.4908   H         1 RES1   0.0000
   276 H155     -3.8396    0.3685    8.1709   H         1 RES1   0.0000
   277 H156     -3.3147   -2.2001    6.5958   H         1 RES1   0.0000
   278 H157     -4.5750   -1.9670    7.8050   H         1 RES1   0.0000
   279 H158     -2.8804   -1.9187    8.2843   H         1 RES1   0.0000
   280 H159     -1.5438    2.9404   -1.9577   H         1 RES1   0.0000
   281 H160     -2.1755    1.8330   -3.2335   H         1 RES1   0.0000
   282 H161      0.8341    2.6805   -2.2542   H         1 RES1   0.0000
   283 H162      0.2986    2.0457   -3.8526   H         1 RES1   0.0000
   284 H163      2.6421    1.3098   -3.1025   H         1 RES1   0.0000
   285 H164      1.5302    0.0098   -3.5889   H         1 RES1   0.0000
   286 H165      3.8616    0.0409   -1.2671   H         1 RES1   0.0000
   287 H166      3.1419   -1.2024   -2.3386   H         1 RES1   0.0000
   288 H167      2.4335   -2.9221    1.7498   H         1 RES1   0.0000
   289 H168      4.0431   -2.3902    2.2567   H         1 RES1   0.0000
   290 H169      4.2136   -4.5591    2.7427   H         1 RES1   0.0000
   291 H170      4.8748   -4.6536    1.1305   H         1 RES1   0.0000
   292 H171      1.9222   -5.1618    1.4532   H         1 RES1   0.0000
   293 H172      3.0558   -6.3545    2.0628   H         1 RES1   0.0000
   294 H173      4.1206   -6.4878   -0.2022   H         1 RES1   0.0000
   295 H174      2.9043   -5.3604   -0.8152   H         1 RES1   0.0000
   296 H175      1.1323   -7.0570    0.0437   H         1 RES1   0.0000
   297 H176      2.4708   -8.1675    0.3048   H         1 RES1   0.0000
   298 H177      3.0858   -8.0437   -2.0838   H         1 RES1   0.0000
   299 H178      1.7949   -6.8882   -2.3959   H         1 RES1   0.0000
   300 H179      1.2769   -9.6599   -1.2527   H         1 RES1   0.0000
   301 H180      1.3704   -9.3857   -2.9756   H         1 RES1   0.0000
   302 H181     -0.4603   -7.5027   -1.6232   H         1 RES1   0.0000
   303 H182     -0.9228   -9.1843   -1.4130   H         1 RES1   0.0000
   304 H183     -2.1408   -8.4159   -3.2142   H         1 RES1   0.0000
   305 H184     -0.9178   -9.4823   -3.8837   H         1 RES1   0.0000
   306 H185     -0.6507   -6.4452   -3.9080   H         1 RES1   0.0000
   307 H186     -1.5039   -7.3561   -5.1499   H         1 RES1   0.0000
   308 H187      0.6542   -8.7062   -5.4823   H         1 RES1   0.0000
   309 H188      1.4641   -7.4470   -4.5559   H         1 RES1   0.0000
   310 H189     -0.1198   -7.0376   -7.1368   H         1 RES1   0.0000
   311 H190      1.6313   -6.9550   -6.9598   H         1 RES1   0.0000
   312 H191      0.6102   -5.7353   -6.2011   H         1 RES1   0.0000
   313 H192      5.0136   -1.9115   -1.3211   H         1 RES1   0.0000
   314 H193      5.2775   -3.4390   -0.4873   H         1 RES1   0.0000
   315 H194      5.6344   -0.9658    1.1699   H         1 RES1   0.0000
   316 H195      6.8284   -1.2336   -0.0955   H         1 RES1   0.0000
   317 H196      7.2541   -3.5189    0.7885   H         1 RES1   0.0000
   318 H197      6.1953   -3.1775    2.1601   H         1 RES1   0.0000
   319 H198      8.6512   -1.5267    1.4687   H         1 RES1   0.0000
   320 H199      8.6544   -2.8800    2.5863   H         1 RES1   0.0000
   321 H200      6.9570   -0.3809    2.9585   H         1 RES1   0.0000
   322 H201      8.5238   -0.6768    3.6976   H         1 RES1   0.0000
   323 H202      7.5734   -2.7640    4.7398   H         1 RES1   0.0000
   324 H203      5.9734   -2.2851    4.1941   H         1 RES1   0.0000
   325 H204      7.6184   -0.3253    5.7973   H         1 RES1   0.0000
   326 H205      6.8837   -1.6887    6.6249   H         1 RES1   0.0000
   327 H206      5.4710    0.1930    6.8729   H         1 RES1   0.0000
   328 H207      4.6390   -1.0033    5.8817   H         1 RES1   0.0000
   329 H208      5.0319    0.3387    3.8702   H         1 RES1   0.0000
   330 H209      6.1433    1.3939    4.7580   H         1 RES1   0.0000
   331 H210      4.2609    2.1707    6.1818   H         1 RES1   0.0000
   332 H211      3.1596    1.1000    5.3174   H         1 RES1   0.0000
   333 H212      2.8611    3.2969    4.4039   H         1 RES1   0.0000
   334 H213      3.7399    2.3713    3.1796   H         1 RES1   0.0000
   335 H214      4.9731    4.3528    5.1630   H         1 RES1   0.0000
   336 H215      4.7208    4.6402    3.4433   H         1 RES1   0.0000
   337 H216      5.8850    3.4305    3.9707   H         1 RES1   0.0000
@<TRIPOS>BOND
     1     1    28    1
     2     1    30    1
     3     1    33    1
     4     1    36    1
     5     1   196    1
     6     1   198    1
     7     1   201    1
     8     1   204    1
     9     2     3    1
    10     2    62    1
    11     2    63    1
    12     2    64    1
    13     3     4    1
    14     3    65    1
    15     3    66    1
    16     4     5    1
    17     4    67    1
    18     4    68    1
    19     5     6    1
    20     5    69    1
    21     5    70    1
    22     6     7    1
    23     6    71    1
    24     6    72    1
    25     7     8    1
    26     7    73    1
    27     7    74    1
    28     8     9    1
    29     8    75    1
    30     8    76    1
    31     9    10    1
    32     9    77    1
    33     9    78    1
    34    10    11    1
    35    10    79    1
    36    10    80    1
    37    11    12    1
    38    11    81    1
    39    11    82    1
    40    12    13    1
    41    12    83    1
    42    12    84    1
    43    13    14    1
    44    13    85    1
    45    13    86    1
    46    14    15    1
    47    14    27    1
    48    15    16    1
    49    15    87    1
    50    15    88    1
    51    16    17    1
    52    16    89    1
    53    16    90    1
    54    17    18    1
    55    17    91    1
    56    17    92    1
    57    18    19    1
    58    18    93    1
    59    18    94    1
    60    19    20    1
    61    19    95    1
    62    19    96    1
    63    20    21    1
    64    20    97    1
    65    20    98    1
    66    21    22    1
    67    21    99    1
    68    21   100    1
    69    22    23    1
    70    22   101    1
    71    22   102    1
    72    23    24    1
    73    23   103    1
    74    23   104    1
    75    24    25    1
    76    24   105    1
    77    24   106    1
    78    25    26    1
    79    25   107    1
    80    25   108    1
    81    26   109    1
    82    26   110    1
    83    26   111    1
    84    27    28    2
    85    27    29    1
    86    29    30    1
    87    29   112    1
    88    29   113    1
    89    30    31    1
    90    31    32    1
    91    31   114    1
    92    31   115    1
    93    32    33    1
    94    32   116    1
    95    32   117    1
    96    33    34    1
    97    34    35    1
    98    34   118    1
    99    34   119    1
   100    35    36    2
   101    35    37    1
   102    37    38    1
   103    37    50    1
   104    38    39    1
   105    38   120    1
   106    38   121    1
   107    39    40    1
   108    39   122    1
   109    39   123    1
   110    40    41    1
   111    40   124    1
   112    40   125    1
   113    41    42    1
   114    41   126    1
   115    41   127    1
   116    42    43    1
   117    42   128    1
   118    42   129    1
   119    43    44    1
   120    43   130    1
   121    43   131    1
   122    44    45    1
   123    44   132    1
   124    44   133    1
   125    45    46    1
   126    45   134    1
   127    45   135    1
   128    46    47    1
   129    46   136    1
   130    46   137    1
   131    47    48    1
   132    47   138    1
   133    47   139    1
   134    48    49    1
   135    48   140    1
   136    48   141    1
   137    49   142    1
   138    49   143    1
   139    49   144    1
   140    50    51    1
   141    50   145    1
   142    50   146    1
   143    51    52    1
   144    51   147    1
   145    51   148    1
   146    52    53    1
   147    52   149    1
   148    52   150    1
   149    53    54    1
   150    53   151    1
   151    53   152    1
   152    54    55    1
   153    54   153    1
   154    54   154    1
   155    55    56    1
   156    55   155    1
   157    55   156    1
   158    56    57    1
   159    56   157    1
   160    56   158    1
   161    57    58    1
   162    57   159    1
   163    57   160    1
   164    58    59    1
   165    58   161    1
   166    58   162    1
   167    59    60    1
   168    59   163    1
   169    59   164    1
   170    60    61    1
   171    60   165    1
   172    60   166    1
   173    61   167    1
   174    61   168    1
   175    61   169    1
   176   170   171    1
   177   170   230    1
   178   170   231    1
   179   170   232    1
   180   171   172    1
   181   171   233    1
   182   171   234    1
   183   172   173    1
   184   172   235    1
   185   172   236    1
   186   173   174    1
   187   173   237    1
   188   173   238    1
   189   174   175    1
   190   174   239    1
   191   174   240    1
   192   175   176    1
   193   175   241    1
   194   175   242    1
   195   176   177    1
   196   176   243    1
   197   176   244    1
   198   177   178    1
   199   177   245    1
   200   177   246    1
   201   178   179    1
   202   178   247    1
   203   178   248    1
   204   179   180    1
   205   179   249    1
   206   179   250    1
   207   180   181    1
   208   180   251    1
   209   180   252    1
   210   181   182    1
   211   181   253    1
   212   181   254    1
   213   182   183    1
   214   182   195    1
   215   183   184    1
   216   183   255    1
   217   183   256    1
   218   184   185    1
   219   184   257    1
   220   184   258    1
   221   185   186    1
   222   185   259    1
   223   185   260    1
   224   186   187    1
   225   186   261    1
   226   186   262    1
   227   187   188    1
   228   187   263    1
   229   187   264    1
   230   188   189    1
   231   188   265    1
   232   188   266    1
   233   189   190    1
   234   189   267    1
   235   189   268    1
   236   190   191    1
   237   190   269    1
   238   190   270    1
   239   191   192    1
   240   191   271    1
   241   191   272    1
   242   192   193    1
   243   192   273    1
   244   192   274    1
   245   193   194    1
   246   193   275    1
   247   193   276    1
   248   194   277    1
   249   194   278    1
   250   194   279    1
   251   195   196    2
   252   195   197    1
   253   197   198    1
   254   197   280    1
   255   197   281    1
   256   198   199    1
   257   199   200    1
   258   199   282    1
   259   199   283    1
   260   200   201    1
   261   200   284    1
   262   200   285    1
   263   201   202    1
   264   202   203    1
   265   202   286    1
   266   202   287    1
   267   203   204    2
   268   203   205    1
   269   205   206    1
   270   205   218    1
   271   206   207    1
   272   206   288    1
   273   206   289    1
   274   207   208    1
   275   207   290    1
   276   207   291    1
   277   208   209    1
   278   208   292    1
   279   208   293    1
   280   209   210    1
   281   209   294    1
   282   209   295    1
   283   210   211    1
   284   210   296    1
   285   210   297    1
   286   211   212    1
   287   211   298    1
   288   211   299    1
   289   212   213    1
   290   212   300    1
   291   212   301    1
   292   213   214    1
   293   213   302    1
   294   213   303    1
   295   214   215    1
   296   214   304    1
   297   214   305    1
   298   215   216    1
   299   215   306    1
   300   215   307    1
   301   216   217    1
   302   216   308    1
   303   216   309    1
   304   217   310    1
   305   217   311    1
   306   217   312    1
   307   218   219    1
   308   218   313    1
   309   218   314    1
   310   219   220    1
   311   219   315    1
   312   219   316    1
   313   220   221    1
   314   220   317    1
   315   220   318    1
   316   221   222    1
   317   221   319    1
   318   221   320    1
   319   222   223    1
   320   222   321    1
   321   222   322    1
   322   223   224    1
   323   223   323    1
   324   223   324    1
   325   224   225    1
   326   224   325    1
   327   224   326    1
   328   225   226    1
   329   225   327    1
   330   225   328    1
   331   226   227    1
   332   226   329    1
   333   226   330    1
   334   227   228    1
   335   227   331    1
   336   227   332    1
   337   228   229    1
   338   228   333    1
   339   228   334    1
   340   229   335    1
   341   229   336    1
   342   229   337    1
@<TRIPOS>SUBSTRUCTURE
     1 RES1      337 GROUP             0 ****  ****    0  
