@<TRIPOS>MOLECULE
ICIGOT_geomtry_0_nunpairedes_0_charge_2 Charge: 2 Unpaired_Electrons: 5 XTB_Unpaired_Electrons: 0 XTB_Charge: 2
   233   239     1     0     0
SMALL
NoCharges
****
Generated from Architector

@<TRIPOS>ATOM
     1 Dy1       0.0514   -0.2729   -0.2149   Dy        1 RES1   0.0000
     2 C1        3.9939    6.7803    7.5877   C.3       1 RES1   0.0000
     3 C2        2.4782    6.5907    7.5982   C.3       1 RES1   0.0000
     4 C3        1.8968    6.6100    6.1818   C.3       1 RES1   0.0000
     5 C4        1.9307    7.9899    5.5229   C.3       1 RES1   0.0000
     6 C5        1.0524    8.0877    4.2685   C.3       1 RES1   0.0000
     7 C6        1.7183    7.6781    2.9488   C.3       1 RES1   0.0000
     8 C7        0.6992    7.7247    1.8003   C.3       1 RES1   0.0000
     9 C8        1.2269    7.4075    0.3896   C.3       1 RES1   0.0000
    10 C9        1.2560    5.9090    0.0577   C.3       1 RES1   0.0000
    11 C10       1.8018    5.5922   -1.3531   C.3       1 RES1   0.0000
    12 C11       1.4714    4.1637   -1.8511   C.3       1 RES1   0.0000
    13 C12       2.6293    3.3847   -2.5172   C.3       1 RES1   0.0000
    14 N1        2.1342    2.0670   -2.9140   N.am      1 RES1   0.0000
    15 C13       1.4267    2.0704   -4.1987   C.3       1 RES1   0.0000
    16 C14       2.3971    1.8668   -5.3674   C.3       1 RES1   0.0000
    17 C15       3.0138    0.4601   -5.3961   C.3       1 RES1   0.0000
    18 C16       2.4470   -0.4964   -6.4516   C.3       1 RES1   0.0000
    19 C17       0.9816   -0.9221   -6.3280   C.3       1 RES1   0.0000
    20 C18      -0.0424    0.0679   -6.8860   C.3       1 RES1   0.0000
    21 C19      -1.3961   -0.5971   -7.1399   C.3       1 RES1   0.0000
    22 C20      -2.4145    0.3624   -7.7592   C.3       1 RES1   0.0000
    23 C21      -3.7301   -0.3377   -8.1169   C.3       1 RES1   0.0000
    24 C22      -4.6403   -0.6866   -6.9380   C.3       1 RES1   0.0000
    25 C23      -5.3095    0.5252   -6.2910   C.3       1 RES1   0.0000
    26 C24      -6.2528    0.1034   -5.1693   C.3       1 RES1   0.0000
    27 C25       2.0275    0.9860   -2.1366   C.2       1 RES1   0.0000
    28 O1        1.0438    0.2161   -2.1935   O.2       1 RES1   0.0000
    29 C26       3.1634    0.4884   -1.2157   C.3       1 RES1   0.0000
    30 O2        2.6040    0.2145    0.0686   O.3       1 RES1   0.0000
    31 C27       3.2598   -0.7765    0.8674   C.3       1 RES1   0.0000
    32 C28       3.4656   -0.2870    2.2960   C.3       1 RES1   0.0000
    33 C29       4.1280   -1.4369    3.0360   C.3       1 RES1   0.0000
    34 C30       3.1233   -2.5698    3.1540   C.3       1 RES1   0.0000
    35 N2        2.3808   -2.8270    1.9276   N.am      1 RES1   0.0000
    36 C31       1.5194   -4.0072    1.9663   C.3       1 RES1   0.0000
    37 C32       0.5623   -4.0147    3.1637   C.3       1 RES1   0.0000
    38 C33      -0.3183   -5.2645    3.1859   C.3       1 RES1   0.0000
    39 C34      -1.3870   -5.2865    2.0973   C.3       1 RES1   0.0000
    40 C35      -2.2385   -6.5544    2.1691   C.3       1 RES1   0.0000
    41 C36      -1.4334   -7.8148    1.8788   C.3       1 RES1   0.0000
    42 C37       2.3213   -1.9972    0.8996   C.2       1 RES1   0.0000
    43 O3        1.5294   -2.1170   -0.0567   O.2       1 RES1   0.0000
    44 H1        4.4303    6.5269    8.5515   H         1 RES1   0.0000
    45 H2        4.2609    7.8081    7.3520   H         1 RES1   0.0000
    46 H3        4.4432    6.1362    6.8329   H         1 RES1   0.0000
    47 H4        2.0045    7.3742    8.1939   H         1 RES1   0.0000
    48 H5        2.2301    5.6286    8.0660   H         1 RES1   0.0000
    49 H6        0.8588    6.2653    6.2177   H         1 RES1   0.0000
    50 H7        2.4739    5.9048    5.5769   H         1 RES1   0.0000
    51 H8        2.9603    8.2496    5.2832   H         1 RES1   0.0000
    52 H9        1.5703    8.7173    6.2532   H         1 RES1   0.0000
    53 H10       0.7321    9.1248    4.1583   H         1 RES1   0.0000
    54 H11       0.1574    7.4833    4.4339   H         1 RES1   0.0000
    55 H12       2.1617    6.6848    3.0410   H         1 RES1   0.0000
    56 H13       2.5304    8.3759    2.7393   H         1 RES1   0.0000
    57 H14       0.2885    8.7352    1.7757   H         1 RES1   0.0000
    58 H15      -0.1339    7.0524    2.0277   H         1 RES1   0.0000
    59 H16       2.2287    7.8217    0.2716   H         1 RES1   0.0000
    60 H17       0.5821    7.9163   -0.3280   H         1 RES1   0.0000
    61 H18       0.2453    5.5031    0.1461   H         1 RES1   0.0000
    62 H19       1.8624    5.4338    0.8296   H         1 RES1   0.0000
    63 H20       2.8781    5.7647   -1.3715   H         1 RES1   0.0000
    64 H21       1.3473    6.3074   -2.0370   H         1 RES1   0.0000
    65 H22       0.6555    4.2201   -2.5704   H         1 RES1   0.0000
    66 H23       1.0907    3.5713   -1.0184   H         1 RES1   0.0000
    67 H24       3.4854    3.3030   -1.8571   H         1 RES1   0.0000
    68 H25       2.9644    3.8909   -3.4246   H         1 RES1   0.0000
    69 H26       0.9173    3.0282   -4.3098   H         1 RES1   0.0000
    70 H27       0.7067    1.2568   -4.2081   H         1 RES1   0.0000
    71 H28       3.1869    2.6202   -5.3462   H         1 RES1   0.0000
    72 H29       1.8397    2.0335   -6.2903   H         1 RES1   0.0000
    73 H30       2.9379   -0.0017   -4.4070   H         1 RES1   0.0000
    74 H31       4.0762    0.5605   -5.6219   H         1 RES1   0.0000
    75 H32       3.0504   -1.4039   -6.3938   H         1 RES1   0.0000
    76 H33       2.6075   -0.0719   -7.4441   H         1 RES1   0.0000
    77 H34       0.7536   -1.1694   -5.2886   H         1 RES1   0.0000
    78 H35       0.8743   -1.8441   -6.9019   H         1 RES1   0.0000
    79 H36       0.3324    0.4623   -7.8319   H         1 RES1   0.0000
    80 H37      -0.1846    0.9142   -6.2133   H         1 RES1   0.0000
    81 H38      -1.7887   -0.9996   -6.2043   H         1 RES1   0.0000
    82 H39      -1.2540   -1.4349   -7.8247   H         1 RES1   0.0000
    83 H40      -1.9955    0.7717   -8.6830   H         1 RES1   0.0000
    84 H41      -2.5929    1.2039   -7.0839   H         1 RES1   0.0000
    85 H42      -3.4781   -1.2619   -8.6414   H         1 RES1   0.0000
    86 H43      -4.2937    0.2932   -8.8082   H         1 RES1   0.0000
    87 H44      -4.0830   -1.2482   -6.1837   H         1 RES1   0.0000
    88 H45      -5.4273   -1.3469   -7.3081   H         1 RES1   0.0000
    89 H46      -5.8753    1.0687   -7.0497   H         1 RES1   0.0000
    90 H47      -4.5547    1.2126   -5.9004   H         1 RES1   0.0000
    91 H48      -7.0192   -0.5633   -5.5569   H         1 RES1   0.0000
    92 H49      -6.7500    0.9655   -4.7295   H         1 RES1   0.0000
    93 H50      -5.7090   -0.4263   -4.3875   H         1 RES1   0.0000
    94 H51       4.0350    1.1496   -1.1352   H         1 RES1   0.0000
    95 H52       3.4850   -0.4550   -1.6858   H         1 RES1   0.0000
    96 H53       4.2166   -1.0574    0.4088   H         1 RES1   0.0000
    97 H54       2.4808   -0.0709    2.7219   H         1 RES1   0.0000
    98 H55       4.0767    0.6106    2.3395   H         1 RES1   0.0000
    99 H56       4.4362   -1.1331    4.0341   H         1 RES1   0.0000
   100 H57       5.0263   -1.7594    2.5093   H         1 RES1   0.0000
   101 H58       2.3911   -2.2913    3.9201   H         1 RES1   0.0000
   102 H59       3.6147   -3.4956    3.4669   H         1 RES1   0.0000
   103 H60       2.1556   -4.8998    2.0023   H         1 RES1   0.0000
   104 H61       0.9581   -4.0229    1.0282   H         1 RES1   0.0000
   105 H62      -0.0620   -3.1217    3.1332   H         1 RES1   0.0000
   106 H63       1.1341   -3.9961    4.0934   H         1 RES1   0.0000
   107 H64      -0.8139   -5.3180    4.1582   H         1 RES1   0.0000
   108 H65       0.3184   -6.1432    3.0859   H         1 RES1   0.0000
   109 H66      -0.9220   -5.2307    1.1121   H         1 RES1   0.0000
   110 H67      -2.0331   -4.4134    2.2112   H         1 RES1   0.0000
   111 H68      -3.0505   -6.4753    1.4446   H         1 RES1   0.0000
   112 H69      -2.6925   -6.6317    3.1579   H         1 RES1   0.0000
   113 H70      -0.9230   -7.7334    0.9223   H         1 RES1   0.0000
   114 H71      -2.0828   -8.6836    1.8419   H         1 RES1   0.0000
   115 H72      -0.6909   -7.9917    2.6517   H         1 RES1   0.0000
   116 C38      -0.4072    1.6569    9.6951   C.3       1 RES1   0.0000
   117 C39       0.0224    1.9231    8.2573   C.3       1 RES1   0.0000
   118 C40      -0.7352    1.0664    7.2395   C.3       1 RES1   0.0000
   119 C41      -0.4124   -0.4230    7.3557   C.3       1 RES1   0.0000
   120 C42      -0.9909   -1.2542    6.2102   C.3       1 RES1   0.0000
   121 C43      -2.5041   -1.4380    6.3122   C.3       1 RES1   0.0000
   122 C44      -3.0512   -2.1700    5.0874   C.3       1 RES1   0.0000
   123 C45      -4.5740   -2.3114    5.0567   C.3       1 RES1   0.0000
   124 C46      -5.3695   -1.0481    5.3848   C.3       1 RES1   0.0000
   125 C47      -4.9972    0.2197    4.6155   C.3       1 RES1   0.0000
   126 C48      -5.1485    0.0852    3.1008   C.3       1 RES1   0.0000
   127 C49      -4.7849    1.4055    2.3838   C.3       1 RES1   0.0000
   128 N3       -3.8816    1.1990    1.2633   N.am      1 RES1   0.0000
   129 C50      -4.4785    1.0622   -0.0623   C.3       1 RES1   0.0000
   130 C51      -4.7064    2.4100   -0.7596   C.3       1 RES1   0.0000
   131 C52      -3.4395    3.2082   -1.1074   C.3       1 RES1   0.0000
   132 C53      -2.8651    3.0114   -2.5171   C.3       1 RES1   0.0000
   133 C54      -2.0017    1.7614   -2.7254   C.3       1 RES1   0.0000
   134 C55      -2.7639    0.5323   -3.2280   C.3       1 RES1   0.0000
   135 C56      -1.8784   -0.7113   -3.1454   C.3       1 RES1   0.0000
   136 C57      -2.6202   -2.0265   -3.4023   C.3       1 RES1   0.0000
   137 C58      -1.6976   -3.1642   -3.8591   C.3       1 RES1   0.0000
   138 C59      -0.7964   -3.7442   -2.7598   C.3       1 RES1   0.0000
   139 C60      -1.3907   -4.9565   -2.0258   C.3       1 RES1   0.0000
   140 C61      -2.7511   -4.7206   -1.3790   C.3       1 RES1   0.0000
   141 C62      -2.5970    0.9328    1.3963   C.2       1 RES1   0.0000
   142 O4       -1.8633    0.6811    0.4025   O.2       1 RES1   0.0000
   143 C63      -1.9095    0.9229    2.7588   C.3       1 RES1   0.0000
   144 O5       -0.5157    1.0864    2.5385   O.3       1 RES1   0.0000
   145 C64      -0.1218    2.4504    2.4163   C.3       1 RES1   0.0000
   146 C65       0.1342    3.0891    3.7765   C.3       1 RES1   0.0000
   147 C66       1.1778    4.1780    3.6237   C.3       1 RES1   0.0000
   148 C67       2.4621    3.5695    3.0839   C.3       1 RES1   0.0000
   149 N4        2.2329    2.9536    1.7843   N.am      1 RES1   0.0000
   150 C68       3.2685    3.1375    0.7675   C.3       1 RES1   0.0000
   151 C69       4.7250    2.8520    1.1483   C.3       1 RES1   0.0000
   152 C70       5.7074    3.6019    0.2240   C.3       1 RES1   0.0000
   153 C71       6.2370    2.7677   -0.9485   C.3       1 RES1   0.0000
   154 C72       7.2542    3.5275   -1.8072   C.3       1 RES1   0.0000
   155 C73       6.6065    4.5456   -2.7380   C.3       1 RES1   0.0000
   156 C74       1.0624    2.4314    1.4487   C.2       1 RES1   0.0000
   157 O6        0.8086    1.9420    0.3204   O.2       1 RES1   0.0000
   158 H73       0.0965    2.3424   10.3706   H         1 RES1   0.0000
   159 H74      -0.1574    0.6440    9.9964   H         1 RES1   0.0000
   160 H75      -1.4796    1.7947    9.8061   H         1 RES1   0.0000
   161 H76       1.0964    1.7404    8.1607   H         1 RES1   0.0000
   162 H77      -0.1537    2.9767    8.0227   H         1 RES1   0.0000
   163 H78      -0.4792    1.4047    6.2293   H         1 RES1   0.0000
   164 H79      -1.8068    1.2246    7.3771   H         1 RES1   0.0000
   165 H80      -0.8004   -0.8017    8.3000   H         1 RES1   0.0000
   166 H81       0.6733   -0.5464    7.3701   H         1 RES1   0.0000
   167 H82      -0.5176   -2.2386    6.2065   H         1 RES1   0.0000
   168 H83      -0.7546   -0.7734    5.2544   H         1 RES1   0.0000
   169 H84      -2.9750   -0.4600    6.4056   H         1 RES1   0.0000
   170 H85      -2.7478   -2.0075    7.2110   H         1 RES1   0.0000
   171 H86      -2.6219   -3.1745    5.0576   H         1 RES1   0.0000
   172 H87      -2.7187   -1.6675    4.1765   H         1 RES1   0.0000
   173 H88      -4.8732   -3.0675    5.7827   H         1 RES1   0.0000
   174 H89      -4.8583   -2.6802    4.0705   H         1 RES1   0.0000
   175 H90      -5.2579   -0.8310    6.4468   H         1 RES1   0.0000
   176 H91      -6.4229   -1.2623    5.2048   H         1 RES1   0.0000
   177 H92      -3.9674    0.5068    4.8411   H         1 RES1   0.0000
   178 H93      -5.6479    1.0246    4.9721   H         1 RES1   0.0000
   179 H94      -6.1717   -0.2058    2.8622   H         1 RES1   0.0000
   180 H95      -4.4878   -0.7053    2.7414   H         1 RES1   0.0000
   181 H96      -4.3359    2.0999    3.0997   H         1 RES1   0.0000
   182 H97      -5.6765    1.8869    1.9815   H         1 RES1   0.0000
   183 H98      -5.4380    0.5566    0.0636   H         1 RES1   0.0000
   184 H99      -3.8204    0.4216   -0.6497   H         1 RES1   0.0000
   185 H100     -5.3435    3.0286   -0.1244   H         1 RES1   0.0000
   186 H101     -5.2707    2.2288   -1.6759   H         1 RES1   0.0000
   187 H102     -2.6540    2.9939   -0.3799   H         1 RES1   0.0000
   188 H103     -3.6930    4.2663   -1.0150   H         1 RES1   0.0000
   189 H104     -2.2544    3.8891   -2.7345   H         1 RES1   0.0000
   190 H105     -3.6781    2.9996   -3.2438   H         1 RES1   0.0000
   191 H106     -1.4794    1.5157   -1.7794   H         1 RES1   0.0000
   192 H107     -1.2268    1.9978   -3.4572   H         1 RES1   0.0000
   193 H108     -3.0521    0.6989   -4.2676   H         1 RES1   0.0000
   194 H109     -3.6862    0.3851   -2.6628   H         1 RES1   0.0000
   195 H110     -1.4211   -0.7378   -2.1282   H         1 RES1   0.0000
   196 H111     -1.0750   -0.6089   -3.8807   H         1 RES1   0.0000
   197 H112     -3.3644   -1.8654   -4.1866   H         1 RES1   0.0000
   198 H113     -3.1487   -2.3208   -2.4964   H         1 RES1   0.0000
   199 H114     -1.0783   -2.7971   -4.6829   H         1 RES1   0.0000
   200 H115     -2.3082   -3.9684   -4.2688   H         1 RES1   0.0000
   201 H116     -0.5426   -2.9548   -2.0387   H         1 RES1   0.0000
   202 H117      0.1392   -4.0815   -3.2119   H         1 RES1   0.0000
   203 H118     -0.6825   -5.2614   -1.2482   H         1 RES1   0.0000
   204 H119     -1.4780   -5.7943   -2.7227   H         1 RES1   0.0000
   205 H120     -2.7318   -3.8444   -0.7360   H         1 RES1   0.0000
   206 H121     -3.0205   -5.5828   -0.7733   H         1 RES1   0.0000
   207 H122     -3.5199   -4.5931   -2.1369   H         1 RES1   0.0000
   208 H123     -2.0452   -0.0764    3.1908   H         1 RES1   0.0000
   209 H124     -2.2943    1.6633    3.4693   H         1 RES1   0.0000
   210 H125     -0.9009    3.0112    1.8660   H         1 RES1   0.0000
   211 H126      0.4923    2.3273    4.4697   H         1 RES1   0.0000
   212 H127     -0.7874    3.5025    4.1875   H         1 RES1   0.0000
   213 H128      1.3548    4.6525    4.5826   H         1 RES1   0.0000
   214 H129      0.8218    4.9476    2.9392   H         1 RES1   0.0000
   215 H130      2.8581    2.8219    3.7796   H         1 RES1   0.0000
   216 H131      3.2218    4.3414    2.9513   H         1 RES1   0.0000
   217 H132      3.2244    4.1735    0.4237   H         1 RES1   0.0000
   218 H133      2.9566    2.5013   -0.0498   H         1 RES1   0.0000
   219 H134      4.9407    1.7884    1.0691   H         1 RES1   0.0000
   220 H135      4.9109    3.1530    2.1790   H         1 RES1   0.0000
   221 H136      6.5660    3.9267    0.8112   H         1 RES1   0.0000
   222 H137      5.2401    4.5093   -0.1620   H         1 RES1   0.0000
   223 H138      5.4200    2.4647   -1.6101   H         1 RES1   0.0000
   224 H139      6.7114    1.8651   -0.5553   H         1 RES1   0.0000
   225 H140      7.8003    2.8055   -2.4159   H         1 RES1   0.0000
   226 H141      7.9794    4.0261   -1.1641   H         1 RES1   0.0000
   227 H142      5.9472    4.0521   -3.4499   H         1 RES1   0.0000
   228 H143      7.3734    5.0783   -3.2928   H         1 RES1   0.0000
   229 H144      6.0305    5.2784   -2.1797   H         1 RES1   0.0000
   230 N5       -1.3301   -1.6157    1.1459   N.3       1 RES1   0.0000
   231 O7       -2.3198   -1.7860    1.7916   O.2       1 RES1   0.0000
   232 O8       -0.2774   -1.2456    1.6706   O.co2     1 RES1   0.0000
   233 O9       -1.3191   -1.8155   -0.0681   O.co2     1 RES1   0.0000
@<TRIPOS>BOND
     1     1    28    1
     2     1    30    1
     3     1    43    1
     4     1   142    1
     5     1   144    1
     6     1   157    1
     7     1   232    1
     8     1   233    1
     9     2     3    1
    10     2    44    1
    11     2    45    1
    12     2    46    1
    13     3     4    1
    14     3    47    1
    15     3    48    1
    16     4     5    1
    17     4    49    1
    18     4    50    1
    19     5     6    1
    20     5    51    1
    21     5    52    1
    22     6     7    1
    23     6    53    1
    24     6    54    1
    25     7     8    1
    26     7    55    1
    27     7    56    1
    28     8     9    1
    29     8    57    1
    30     8    58    1
    31     9    10    1
    32     9    59    1
    33     9    60    1
    34    10    11    1
    35    10    61    1
    36    10    62    1
    37    11    12    1
    38    11    63    1
    39    11    64    1
    40    12    13    1
    41    12    65    1
    42    12    66    1
    43    13    14    1
    44    13    67    1
    45    13    68    1
    46    14    15    1
    47    14    27    1
    48    15    16    1
    49    15    69    1
    50    15    70    1
    51    16    17    1
    52    16    71    1
    53    16    72    1
    54    17    18    1
    55    17    73    1
    56    17    74    1
    57    18    19    1
    58    18    75    1
    59    18    76    1
    60    19    20    1
    61    19    77    1
    62    19    78    1
    63    20    21    1
    64    20    79    1
    65    20    80    1
    66    21    22    1
    67    21    81    1
    68    21    82    1
    69    22    23    1
    70    22    83    1
    71    22    84    1
    72    23    24    1
    73    23    85    1
    74    23    86    1
    75    24    25    1
    76    24    87    1
    77    24    88    1
    78    25    26    1
    79    25    89    1
    80    25    90    1
    81    26    91    1
    82    26    92    1
    83    26    93    1
    84    27    28    2
    85    27    29    1
    86    29    30    1
    87    29    94    1
    88    29    95    1
    89    30    31    1
    90    31    32    1
    91    31    42    1
    92    31    96    1
    93    32    33    1
    94    32    97    1
    95    32    98    1
    96    33    34    1
    97    33    99    1
    98    33   100    1
    99    34    35    1
   100    34   101    1
   101    34   102    1
   102    35    36    1
   103    35    42    1
   104    36    37    1
   105    36   103    1
   106    36   104    1
   107    37    38    1
   108    37   105    1
   109    37   106    1
   110    38    39    1
   111    38   107    1
   112    38   108    1
   113    39    40    1
   114    39   109    1
   115    39   110    1
   116    40    41    1
   117    40   111    1
   118    40   112    1
   119    41   113    1
   120    41   114    1
   121    41   115    1
   122    42    43    2
   123   116   117    1
   124   116   158    1
   125   116   159    1
   126   116   160    1
   127   117   118    1
   128   117   161    1
   129   117   162    1
   130   118   119    1
   131   118   163    1
   132   118   164    1
   133   119   120    1
   134   119   165    1
   135   119   166    1
   136   120   121    1
   137   120   167    1
   138   120   168    1
   139   121   122    1
   140   121   169    1
   141   121   170    1
   142   122   123    1
   143   122   171    1
   144   122   172    1
   145   123   124    1
   146   123   173    1
   147   123   174    1
   148   124   125    1
   149   124   175    1
   150   124   176    1
   151   125   126    1
   152   125   177    1
   153   125   178    1
   154   126   127    1
   155   126   179    1
   156   126   180    1
   157   127   128    1
   158   127   181    1
   159   127   182    1
   160   128   129    1
   161   128   141    1
   162   129   130    1
   163   129   183    1
   164   129   184    1
   165   130   131    1
   166   130   185    1
   167   130   186    1
   168   131   132    1
   169   131   187    1
   170   131   188    1
   171   132   133    1
   172   132   189    1
   173   132   190    1
   174   133   134    1
   175   133   191    1
   176   133   192    1
   177   134   135    1
   178   134   193    1
   179   134   194    1
   180   135   136    1
   181   135   195    1
   182   135   196    1
   183   136   137    1
   184   136   197    1
   185   136   198    1
   186   137   138    1
   187   137   199    1
   188   137   200    1
   189   138   139    1
   190   138   201    1
   191   138   202    1
   192   139   140    1
   193   139   203    1
   194   139   204    1
   195   140   205    1
   196   140   206    1
   197   140   207    1
   198   141   142    2
   199   141   143    1
   200   143   144    1
   201   143   208    1
   202   143   209    1
   203   144   145    1
   204   145   146    1
   205   145   156    1
   206   145   210    1
   207   146   147    1
   208   146   211    1
   209   146   212    1
   210   147   148    1
   211   147   213    1
   212   147   214    1
   213   148   149    1
   214   148   215    1
   215   148   216    1
   216   149   150    1
   217   149   156    1
   218   150   151    1
   219   150   217    1
   220   150   218    1
   221   151   152    1
   222   151   219    1
   223   151   220    1
   224   152   153    1
   225   152   221    1
   226   152   222    1
   227   153   154    1
   228   153   223    1
   229   153   224    1
   230   154   155    1
   231   154   225    1
   232   154   226    1
   233   155   227    1
   234   155   228    1
   235   155   229    1
   236   156   157    2
   237   230   231    2
   238   230   232    1
   239   230   233    1
@<TRIPOS>SUBSTRUCTURE
     1 RES1      233 GROUP             0 ****  ****    0  
