@<TRIPOS>MOLECULE
YEMSEP_geometry_0_nunpairedes_0_charge_3 Charge: 3 Unpaired_Electrons: 5 XTB_Unpaired_Electrons: 0 XTB_Charge: 3
    87    92     1     0     0
SMALL
NoCharges
****
Generated from Architector

@<TRIPOS>ATOM
     1 Dy1      -0.0447   -0.2616   -0.2728   Dy        1 RES1   0.0000
     2 C1        4.2620   -1.8203    0.6055   C.3       1 RES1   0.0000
     3 N1        3.1952   -1.7081   -0.3709   N.am      1 RES1   0.0000
     4 C2        3.4266   -0.7807   -1.4674   C.3       1 RES1   0.0000
     5 C3        1.9988   -2.2751   -0.3224   C.2       1 RES1   0.0000
     6 O1        1.0789   -1.8931   -1.0958   O.2       1 RES1   0.0000
     7 C4        1.6556   -3.4280    0.6094   C.3       1 RES1   0.0000
     8 N2        0.4816   -3.0391    1.3789   N.3       1 RES1   0.0000
     9 C5        0.8152   -2.6631    2.7371   C.3       1 RES1   0.0000
    10 C6        1.2002   -1.1812    2.7927   C.2       1 RES1   0.0000
    11 O2        1.0870   -0.4844    1.7497   O.2       1 RES1   0.0000
    12 N3        1.6018   -0.6946    3.9509   N.am      1 RES1   0.0000
    13 C7        1.8143    0.7275    4.1439   C.3       1 RES1   0.0000
    14 C8        1.8007   -1.4624    5.1668   C.3       1 RES1   0.0000
    15 C9       -0.7603   -3.7713    1.1990   C.3       1 RES1   0.0000
    16 C10      -1.8944   -2.8041    0.8287   C.2       1 RES1   0.0000
    17 O3       -1.5992   -1.6114    0.5502   O.2       1 RES1   0.0000
    18 N4       -3.1498   -3.2107    0.8387   N.am      1 RES1   0.0000
    19 C11      -4.2253   -2.2862    0.5151   C.3       1 RES1   0.0000
    20 C12      -3.6192   -4.5238    1.2266   C.3       1 RES1   0.0000
    21 H1        5.1365   -2.2853    0.1535   H         1 RES1   0.0000
    22 H2        3.9730   -2.4093    1.4718   H         1 RES1   0.0000
    23 H3        4.5372   -0.8181    0.9494   H         1 RES1   0.0000
    24 H4        4.4833   -0.7693   -1.7232   H         1 RES1   0.0000
    25 H5        3.1049    0.2355   -1.2092   H         1 RES1   0.0000
    26 H6        2.8686   -1.1362   -2.3355   H         1 RES1   0.0000
    27 H7        2.4826   -3.7373    1.2561   H         1 RES1   0.0000
    28 H8        1.4278   -4.2717   -0.0475   H         1 RES1   0.0000
    29 H9        1.6338   -3.2955    3.1109   H         1 RES1   0.0000
    30 H10      -0.0469   -2.8092    3.3925   H         1 RES1   0.0000
    31 H11       1.7362    1.2584    3.1985   H         1 RES1   0.0000
    32 H12       2.7953    0.9049    4.5784   H         1 RES1   0.0000
    33 H13       1.0686    1.1042    4.8442   H         1 RES1   0.0000
    34 H14       1.6939   -2.5309    5.0261   H         1 RES1   0.0000
    35 H15       1.0919   -1.1411    5.9317   H         1 RES1   0.0000
    36 H16       2.8040   -1.2747    5.5515   H         1 RES1   0.0000
    37 H17      -1.0275   -4.3017    2.1193   H         1 RES1   0.0000
    38 H18      -0.6384   -4.5103    0.4006   H         1 RES1   0.0000
    39 H19      -3.8340   -1.4048    0.0086   H         1 RES1   0.0000
    40 H20      -4.7420   -1.9935    1.4299   H         1 RES1   0.0000
    41 H21      -4.9473   -2.7794   -0.1330   H         1 RES1   0.0000
    42 H22      -2.8262   -5.1635    1.5951   H         1 RES1   0.0000
    43 H23      -4.0847   -5.0271    0.3791   H         1 RES1   0.0000
    44 H24      -4.3764   -4.4085    2.0036   H         1 RES1   0.0000
    45 C13      -1.9491    1.0470    2.3710   C.3       1 RES1   0.0000
    46 N5       -2.3815    1.8891    1.2636   N.am      1 RES1   0.0000
    47 C14      -3.7690    2.3217    1.2523   C.3       1 RES1   0.0000
    48 C15      -1.4542    2.2355    0.3762   C.2       1 RES1   0.0000
    49 O4       -0.3048    1.7285    0.4353   O.2       1 RES1   0.0000
    50 C16      -1.7247    3.3151   -0.6747   C.3       1 RES1   0.0000
    51 N6       -1.2707    2.9740   -1.9914   N.3       1 RES1   0.0000
    52 C17       0.0894    3.1442   -2.4500   C.3       1 RES1   0.0000
    53 C18       0.7001    1.8051   -2.8708   C.2       1 RES1   0.0000
    54 O5        0.7242    0.8526   -2.0502   O.2       1 RES1   0.0000
    55 N7        1.1156    1.6231   -4.1175   N.am      1 RES1   0.0000
    56 C19       1.4407    0.2795   -4.5676   C.3       1 RES1   0.0000
    57 C20       1.3572    2.6814   -5.0838   C.3       1 RES1   0.0000
    58 C21      -2.1692    2.2978   -2.8723   C.3       1 RES1   0.0000
    59 C22      -2.2807    0.7941   -2.6113   C.2       1 RES1   0.0000
    60 O6       -1.8862    0.3176   -1.5150   O.2       1 RES1   0.0000
    61 N8       -2.8308    0.0291   -3.5382   N.am      1 RES1   0.0000
    62 C23      -3.4104    0.5100   -4.7744   C.3       1 RES1   0.0000
    63 C24      -2.8990   -1.4081   -3.3399   C.3       1 RES1   0.0000
    64 H25      -0.9055    1.2818    2.5986   H         1 RES1   0.0000
    65 H26      -2.0293   -0.0168    2.1167   H         1 RES1   0.0000
    66 H27      -2.5505    1.2649    3.2523   H         1 RES1   0.0000
    67 H28      -3.8632    3.3177    1.6846   H         1 RES1   0.0000
    68 H29      -4.3675    1.6302    1.8433   H         1 RES1   0.0000
    69 H30      -4.1735    2.3347    0.2427   H         1 RES1   0.0000
    70 H31      -1.1828    4.2021   -0.3279   H         1 RES1   0.0000
    71 H32      -2.7845    3.5811   -0.7280   H         1 RES1   0.0000
    72 H33       0.6886    3.5447   -1.6316   H         1 RES1   0.0000
    73 H34       0.0824    3.8532   -3.2847   H         1 RES1   0.0000
    74 H35       1.0541   -0.4463   -3.8511   H         1 RES1   0.0000
    75 H36       2.5190    0.1552   -4.6598   H         1 RES1   0.0000
    76 H37       0.9817    0.0981   -5.5398   H         1 RES1   0.0000
    77 H38       1.8341    3.5415   -4.6171   H         1 RES1   0.0000
    78 H39       0.4391    3.0059   -5.5782   H         1 RES1   0.0000
    79 H40       2.0336    2.3028   -5.8480   H         1 RES1   0.0000
    80 H41      -1.8561    2.4927   -3.9011   H         1 RES1   0.0000
    81 H42      -3.1771    2.7071   -2.7347   H         1 RES1   0.0000
    82 H43      -3.5672    1.5831   -4.7698   H         1 RES1   0.0000
    83 H44      -4.3829    0.0413   -4.9162   H         1 RES1   0.0000
    84 H45      -2.7699    0.2456   -5.6179   H         1 RES1   0.0000
    85 H46      -2.1763   -1.7010   -2.5718   H         1 RES1   0.0000
    86 H47      -2.6621   -1.9111   -4.2766   H         1 RES1   0.0000
    87 H48      -3.8994   -1.7079   -3.0213   H         1 RES1   0.0000
@<TRIPOS>BOND
     1     1     3    1
     2     1     6    1
     3     1    11    1
     4     1    17    1
     5     1    46    1
     6     1    49    1
     7     1    54    1
     8     1    60    1
     9     2     3    1
    10     2    21    1
    11     2    22    1
    12     2    23    1
    13     3     4    1
    14     3     5    1
    15     4    24    1
    16     4    25    1
    17     4    26    1
    18     5     6    2
    19     5     7    1
    20     7     8    1
    21     7    27    1
    22     7    28    1
    23     8     9    1
    24     8    15    1
    25     9    10    1
    26     9    29    1
    27     9    30    1
    28    10    11    2
    29    10    12    1
    30    12    13    1
    31    12    14    1
    32    13    31    1
    33    13    32    1
    34    13    33    1
    35    14    34    1
    36    14    35    1
    37    14    36    1
    38    15    16    1
    39    15    37    1
    40    15    38    1
    41    16    17    2
    42    16    18    1
    43    18    19    1
    44    18    20    1
    45    19    39    1
    46    19    40    1
    47    19    41    1
    48    20    42    1
    49    20    43    1
    50    20    44    1
    51    45    46    1
    52    45    64    1
    53    45    65    1
    54    45    66    1
    55    46    47    1
    56    46    48    1
    57    47    67    1
    58    47    68    1
    59    47    69    1
    60    48    49    2
    61    48    50    1
    62    50    51    1
    63    50    70    1
    64    50    71    1
    65    51    52    1
    66    51    58    1
    67    52    53    1
    68    52    72    1
    69    52    73    1
    70    53    54    2
    71    53    55    1
    72    55    56    1
    73    55    57    1
    74    56    74    1
    75    56    75    1
    76    56    76    1
    77    57    77    1
    78    57    78    1
    79    57    79    1
    80    58    59    1
    81    58    80    1
    82    58    81    1
    83    59    60    2
    84    59    61    1
    85    61    62    1
    86    61    63    1
    87    62    82    1
    88    62    83    1
    89    62    84    1
    90    63    85    1
    91    63    86    1
    92    63    87    1
@<TRIPOS>SUBSTRUCTURE
     1 RES1       87 GROUP             0 ****  ****    0  
