@<TRIPOS>MOLECULE
YEMSEP_geometry_0_nunpairedes_0_charge_2 Charge: 2 Unpaired_Electrons: 5 XTB_Unpaired_Electrons: 0 XTB_Charge: 2
   131   143     1     0     0
SMALL
NoCharges
****
Generated from Architector

@<TRIPOS>ATOM
     1 Dy1      -0.5109   -0.0367    0.0541   Dy        1 RES1   0.0000
     2 C1        5.4289    3.2886    5.0268   C.3       1 RES1   0.0000
     3 C2        6.0523    2.0317    5.6351   C.3       1 RES1   0.0000
     4 C3        7.2027    1.4297    4.8015   C.3       1 RES1   0.0000
     5 C4        7.0830   -0.0807    4.4948   C.3       1 RES1   0.0000
     6 C5        6.8455   -0.4316    3.0130   C.3       1 RES1   0.0000
     7 C6        5.8686   -1.5877    2.7839   C.3       1 RES1   0.0000
     8 C7        5.2664   -1.5720    1.3758   C.3       1 RES1   0.0000
     9 C8        4.0221   -2.4547    1.3578   C.3       1 RES1   0.0000
    10 N1        3.4553   -2.6615    0.0363   N.am      1 RES1   0.0000
    11 C9        2.3034   -2.0623   -0.2850   C.2       1 RES1   0.0000
    12 O1        1.8441   -1.1278    0.3965   O.2       1 RES1   0.0000
    13 C10       1.4383   -2.6046   -1.3707   C.ar      1 RES1   0.0000
    14 C11       1.6693   -3.8437   -1.9853   C.ar      1 RES1   0.0000
    15 C12       0.7587   -4.3090   -2.8966   C.ar      1 RES1   0.0000
    16 C13      -0.4015   -3.5638   -3.1613   C.ar      1 RES1   0.0000
    17 C14      -1.3887   -4.0047   -4.0806   C.ar      1 RES1   0.0000
    18 C15      -2.5338   -3.3043   -4.2490   C.ar      1 RES1   0.0000
    19 C16      -2.7889   -2.1185   -3.5022   C.ar      1 RES1   0.0000
    20 C17      -4.0041   -1.4182   -3.6109   C.ar      1 RES1   0.0000
    21 C18      -4.1799   -0.2746   -2.8665   C.ar      1 RES1   0.0000
    22 C19      -3.1543    0.1472   -2.0106   C.ar      1 RES1   0.0000
    23 N2       -2.0150   -0.5120   -1.8492   N.ar      1 RES1   0.0000
    24 C20      -1.8241   -1.6322   -2.5909   C.ar      1 RES1   0.0000
    25 C21      -0.5935   -2.3656   -2.4314   C.ar      1 RES1   0.0000
    26 N3        0.3258   -1.8958   -1.5677   N.ar      1 RES1   0.0000
    27 C22       4.2934   -3.2841   -0.9172   C.ar      1 RES1   0.0000
    28 C23       4.9066   -4.5008   -0.6420   C.ar      1 RES1   0.0000
    29 C24       5.6909   -5.1057   -1.6066   C.ar      1 RES1   0.0000
    30 C25       5.8866   -4.5079   -2.8497   C.ar      1 RES1   0.0000
    31 C26       6.6534   -5.1940   -3.9277   C.3       1 RES1   0.0000
    32 C27       5.3237   -3.2520   -3.0820   C.ar      1 RES1   0.0000
    33 C28       4.5352   -2.6398   -2.1286   C.ar      1 RES1   0.0000
    34 H1        4.4756    3.5175    5.5012   H         1 RES1   0.0000
    35 H2        5.2598    3.1541    3.9611   H         1 RES1   0.0000
    36 H3        6.0768    4.1537    5.1540   H         1 RES1   0.0000
    37 H4        5.2779    1.2792    5.7952   H         1 RES1   0.0000
    38 H5        6.4331    2.2854    6.6243   H         1 RES1   0.0000
    39 H6        8.1386    1.5949    5.3332   H         1 RES1   0.0000
    40 H7        7.2943    1.9933    3.8728   H         1 RES1   0.0000
    41 H8        6.2826   -0.5095    5.1004   H         1 RES1   0.0000
    42 H9        8.0060   -0.5576    4.8086   H         1 RES1   0.0000
    43 H10       7.7934   -0.6751    2.5297   H         1 RES1   0.0000
    44 H11       6.4456    0.4388    2.4957   H         1 RES1   0.0000
    45 H12       5.0408   -1.5012    3.4913   H         1 RES1   0.0000
    46 H13       6.3539   -2.5523    2.9500   H         1 RES1   0.0000
    47 H14       5.9866   -1.9363    0.6413   H         1 RES1   0.0000
    48 H15       4.9892   -0.5528    1.0977   H         1 RES1   0.0000
    49 H16       3.2371   -2.0123    1.9712   H         1 RES1   0.0000
    50 H17       4.2995   -3.4285    1.7643   H         1 RES1   0.0000
    51 H18       2.5300   -4.4423   -1.7361   H         1 RES1   0.0000
    52 H19       0.9132   -5.2602   -3.3829   H         1 RES1   0.0000
    53 H20      -1.1998   -4.9099   -4.6350   H         1 RES1   0.0000
    54 H21      -3.2824   -3.6434   -4.9466   H         1 RES1   0.0000
    55 H22      -4.7706   -1.8003   -4.2694   H         1 RES1   0.0000
    56 H23      -5.0927    0.3031   -2.9133   H         1 RES1   0.0000
    57 H24      -3.2748    1.0627   -1.4379   H         1 RES1   0.0000
    58 H25       4.7290   -4.9886    0.3060   H         1 RES1   0.0000
    59 H26       6.1409   -6.0640   -1.3881   H         1 RES1   0.0000
    60 H27       7.2731   -5.9918   -3.5342   H         1 RES1   0.0000
    61 H28       7.2727   -4.4887   -4.4731   H         1 RES1   0.0000
    62 H29       5.9679   -5.6363   -4.6490   H         1 RES1   0.0000
    63 H30       5.5052   -2.7501   -4.0212   H         1 RES1   0.0000
    64 H31       4.0914   -1.6677   -2.3063   H         1 RES1   0.0000
    65 C29       4.3607   -5.8260    3.5177   C.3       1 RES1   0.0000
    66 C30       4.2182   -4.7509    4.5869   C.3       1 RES1   0.0000
    67 C31       2.9149   -4.8367    5.3858   C.3       1 RES1   0.0000
    68 C32       1.6577   -4.4612    4.5936   C.3       1 RES1   0.0000
    69 C33       0.4330   -4.2766    5.4945   C.3       1 RES1   0.0000
    70 C34       0.4442   -2.9647    6.3007   C.3       1 RES1   0.0000
    71 C35      -0.8781   -2.1806    6.2550   C.3       1 RES1   0.0000
    72 C36      -0.9848   -1.0761    5.1909   C.3       1 RES1   0.0000
    73 N4       -0.9686   -1.5488    3.8155   N.am      1 RES1   0.0000
    74 C37      -0.2813   -1.0543    2.7988   C.2       1 RES1   0.0000
    75 O2       -0.5065   -1.4848    1.6317   O.2       1 RES1   0.0000
    76 C38       0.8586   -0.0503    2.8531   C.ar      1 RES1   0.0000
    77 C39       1.9800   -0.1333    3.6968   C.ar      1 RES1   0.0000
    78 C40       3.1039    0.6128    3.4004   C.ar      1 RES1   0.0000
    79 C41       3.1639    1.3180    2.1852   C.ar      1 RES1   0.0000
    80 C42       4.3349    1.9741    1.7037   C.ar      1 RES1   0.0000
    81 C43       4.3684    2.6081    0.5078   C.ar      1 RES1   0.0000
    82 C44       3.2653    2.5154   -0.3905   C.ar      1 RES1   0.0000
    83 C45       3.3276    2.9564   -1.7290   C.ar      1 RES1   0.0000
    84 C46       2.2652    2.7041   -2.5666   C.ar      1 RES1   0.0000
    85 C47       1.1739    1.9848   -2.0708   C.ar      1 RES1   0.0000
    86 N5        1.0864    1.5646   -0.8196   N.ar      1 RES1   0.0000
    87 C48       2.0907    1.8532    0.0352   C.ar      1 RES1   0.0000
    88 C49       2.0029    1.3329    1.3851   C.ar      1 RES1   0.0000
    89 N6        0.8582    0.7453    1.7800   N.ar      1 RES1   0.0000
    90 C50      -1.9102   -2.5817    3.4730   C.ar      1 RES1   0.0000
    91 C51      -3.2672   -2.4515    3.7226   C.ar      1 RES1   0.0000
    92 C52      -4.1270   -3.4880    3.3981   C.ar      1 RES1   0.0000
    93 C53      -3.6605   -4.6674    2.8256   C.ar      1 RES1   0.0000
    94 C54      -4.5752   -5.7949    2.4681   C.3       1 RES1   0.0000
    95 C55      -2.2926   -4.7803    2.5909   C.ar      1 RES1   0.0000
    96 C56      -1.4298   -3.7507    2.8936   C.ar      1 RES1   0.0000
    97 H32       5.3079   -5.7062    2.9977   H         1 RES1   0.0000
    98 H33       3.5502   -5.7787    2.7947   H         1 RES1   0.0000
    99 H34       4.3505   -6.8127    3.9704   H         1 RES1   0.0000
   100 H35       4.2906   -3.7592    4.1324   H         1 RES1   0.0000
   101 H36       5.0484   -4.8523    5.2878   H         1 RES1   0.0000
   102 H37       3.0005   -4.1688    6.2472   H         1 RES1   0.0000
   103 H38       2.8002   -5.8548    5.7651   H         1 RES1   0.0000
   104 H39       1.4404   -5.2499    3.8692   H         1 RES1   0.0000
   105 H40       1.8300   -3.5354    4.0331   H         1 RES1   0.0000
   106 H41       0.3730   -5.1321    6.1662   H         1 RES1   0.0000
   107 H42      -0.4630   -4.3080    4.8779   H         1 RES1   0.0000
   108 H43       1.2495   -2.3140    5.9538   H         1 RES1   0.0000
   109 H44       0.6580   -3.1946    7.3446   H         1 RES1   0.0000
   110 H45      -1.0189   -1.6641    7.2063   H         1 RES1   0.0000
   111 H46      -1.7121   -2.8749    6.1467   H         1 RES1   0.0000
   112 H47      -0.2000   -0.3329    5.3302   H         1 RES1   0.0000
   113 H48      -1.9441   -0.5727    5.3454   H         1 RES1   0.0000
   114 H49       1.9801   -0.8158    4.5303   H         1 RES1   0.0000
   115 H50       3.9557    0.6349    4.0663   H         1 RES1   0.0000
   116 H51       5.2142    1.9496    2.3235   H         1 RES1   0.0000
   117 H52       5.2559    3.1434    0.1990   H         1 RES1   0.0000
   118 H53       4.2214    3.4595   -2.0737   H         1 RES1   0.0000
   119 H54       2.2552    3.0179   -3.5994   H         1 RES1   0.0000
   120 H55       0.3455    1.7140   -2.7189   H         1 RES1   0.0000
   121 H56      -3.6650   -1.5492    4.1606   H         1 RES1   0.0000
   122 H57      -5.1807   -3.3812    3.6165   H         1 RES1   0.0000
   123 H58      -5.5031   -5.7455    3.0312   H         1 RES1   0.0000
   124 H59      -4.0841   -6.7467    2.6549   H         1 RES1   0.0000
   125 H60      -4.8288   -5.7758    1.4070   H         1 RES1   0.0000
   126 H61      -1.8995   -5.7020    2.1935   H         1 RES1   0.0000
   127 H62      -0.3743   -3.8525    2.7042   H         1 RES1   0.0000
   128 N7       -1.7046    1.6154    1.2341   N.3       1 RES1   0.0000
   129 O3       -1.5844    2.3432    2.1639   O.2       1 RES1   0.0000
   130 O4       -1.3728    1.9422    0.0861   O.co2     1 RES1   0.0000
   131 O5       -2.1690    0.4693    1.3584   O.co2     1 RES1   0.0000
@<TRIPOS>BOND
     1     1    12    1
     2     1    23    1
     3     1    26    1
     4     1    75    1
     5     1    86    1
     6     1    89    1
     7     1   130    1
     8     1   131    1
     9     2     3    1
    10     2    34    1
    11     2    35    1
    12     2    36    1
    13     3     4    1
    14     3    37    1
    15     3    38    1
    16     4     5    1
    17     4    39    1
    18     4    40    1
    19     5     6    1
    20     5    41    1
    21     5    42    1
    22     6     7    1
    23     6    43    1
    24     6    44    1
    25     7     8    1
    26     7    45    1
    27     7    46    1
    28     8     9    1
    29     8    47    1
    30     8    48    1
    31     9    10    1
    32     9    49    1
    33     9    50    1
    34    10    11    1
    35    10    27    1
    36    11    12    2
    37    11    13    1
    38    13    14    1
    39    13    26    2
    40    14    15    2
    41    14    51    1
    42    15    16    1
    43    15    52    1
    44    16    17    1
    45    16    25    2
    46    17    18    2
    47    17    53    1
    48    18    19    1
    49    18    54    1
    50    19    20    1
    51    19    24    2
    52    20    21    2
    53    20    55    1
    54    21    22    1
    55    21    56    1
    56    22    23    2
    57    22    57    1
    58    23    24    1
    59    24    25    1
    60    25    26    1
    61    27    28    1
    62    27    33    2
    63    28    29    2
    64    28    58    1
    65    29    30    1
    66    29    59    1
    67    30    31    1
    68    30    32    2
    69    31    60    1
    70    31    61    1
    71    31    62    1
    72    32    33    1
    73    32    63    1
    74    33    64    1
    75    65    66    1
    76    65    97    1
    77    65    98    1
    78    65    99    1
    79    66    67    1
    80    66   100    1
    81    66   101    1
    82    67    68    1
    83    67   102    1
    84    67   103    1
    85    68    69    1
    86    68   104    1
    87    68   105    1
    88    69    70    1
    89    69   106    1
    90    69   107    1
    91    70    71    1
    92    70   108    1
    93    70   109    1
    94    71    72    1
    95    71   110    1
    96    71   111    1
    97    72    73    1
    98    72   112    1
    99    72   113    1
   100    73    74    1
   101    73    90    1
   102    74    75    2
   103    74    76    1
   104    76    77    1
   105    76    89    2
   106    77    78    2
   107    77   114    1
   108    78    79    1
   109    78   115    1
   110    79    80    1
   111    79    88    2
   112    80    81    2
   113    80   116    1
   114    81    82    1
   115    81   117    1
   116    82    83    1
   117    82    87    2
   118    83    84    2
   119    83   118    1
   120    84    85    1
   121    84   119    1
   122    85    86    2
   123    85   120    1
   124    86    87    1
   125    87    88    1
   126    88    89    1
   127    90    91    1
   128    90    96    2
   129    91    92    2
   130    91   121    1
   131    92    93    1
   132    92   122    1
   133    93    94    1
   134    93    95    2
   135    94   123    1
   136    94   124    1
   137    94   125    1
   138    95    96    1
   139    95   126    1
   140    96   127    1
   141   128   129    2
   142   128   130    1
   143   128   131    1
@<TRIPOS>SUBSTRUCTURE
     1 RES1      131 GROUP             0 ****  ****    0  
