@<TRIPOS>MOLECULE
ICIGOT_geomtry_0_nunpairedes_0_charge_2 Charge: 2 Unpaired_Electrons: 5 XTB_Unpaired_Electrons: 0 XTB_Charge: 2
   183   187     1     0     0
SMALL
NoCharges
****
Generated from Architector

@<TRIPOS>ATOM
     1 Dy1      -0.0454   -0.0094   -0.1267   Dy        1 RES1   0.0000
     2 C1       -1.3562   -4.5468    4.8627   C.3       1 RES1   0.0000
     3 C2       -0.9558   -4.5051    6.3314   C.3       1 RES1   0.0000
     4 C3        0.4677   -5.0024    6.5874   C.3       1 RES1   0.0000
     5 C4        1.5827   -4.1789    5.9331   C.3       1 RES1   0.0000
     6 C5        1.6610   -2.7371    6.4473   C.3       1 RES1   0.0000
     7 C6        1.0035   -1.6912    5.5434   C.3       1 RES1   0.0000
     8 C7        1.0907   -0.3232    6.2136   C.3       1 RES1   0.0000
     9 C8        0.4171    0.8215    5.4516   C.3       1 RES1   0.0000
    10 N1        0.9115    1.0570    4.0979   N.am      1 RES1   0.0000
    11 C9        1.9882    2.0547    3.9422   C.3       1 RES1   0.0000
    12 C10       3.4602    1.6380    3.7428   C.3       1 RES1   0.0000
    13 C11       3.7352    1.0068    2.3829   C.3       1 RES1   0.0000
    14 C12       4.0363    0.7652    4.8538   C.3       1 RES1   0.0000
    15 C13       0.2808    0.6387    3.0058   C.2       1 RES1   0.0000
    16 O1        0.7328    0.8393    1.8592   O.2       1 RES1   0.0000
    17 C14      -1.0899   -0.0701    3.1098   C.3       1 RES1   0.0000
    18 O2       -1.7805   -0.0047    1.8669   O.3       1 RES1   0.0000
    19 C15      -2.8226    0.9728    1.7701   C.3       1 RES1   0.0000
    20 C16      -2.5325    1.8553    0.5397   C.2       1 RES1   0.0000
    21 O3       -1.3824    1.7941    0.0634   O.2       1 RES1   0.0000
    22 N2       -3.5005    2.5792   -0.0031   N.am      1 RES1   0.0000
    23 C17      -3.2862    3.1676   -1.3257   C.3       1 RES1   0.0000
    24 C18      -3.5324    2.1483   -2.4450   C.3       1 RES1   0.0000
    25 C19      -4.8829    1.4374   -2.3615   C.3       1 RES1   0.0000
    26 C20      -5.1707    0.5805   -3.6102   C.3       1 RES1   0.0000
    27 C21      -5.4127   -0.8992   -3.3100   C.3       1 RES1   0.0000
    28 C22      -4.1620   -1.6462   -2.8571   C.3       1 RES1   0.0000
    29 C23      -4.4378   -3.1092   -2.5060   C.3       1 RES1   0.0000
    30 C24      -5.1558   -3.2758   -1.1712   C.3       1 RES1   0.0000
    31 C25      -4.6622    3.0369    0.7307   C.3       1 RES1   0.0000
    32 C26      -4.4065    4.4282    1.3539   C.3       1 RES1   0.0000
    33 C27      -3.1552    4.4470    2.2281   C.3       1 RES1   0.0000
    34 C28      -5.6266    4.8490    2.1662   C.3       1 RES1   0.0000
    35 H1       -2.3849   -4.2214    4.7415   H         1 RES1   0.0000
    36 H2       -1.2769   -5.5633    4.4904   H         1 RES1   0.0000
    37 H3       -0.7154   -3.9036    4.2630   H         1 RES1   0.0000
    38 H4       -1.6405   -5.1403    6.8982   H         1 RES1   0.0000
    39 H5       -1.0710   -3.4936    6.7254   H         1 RES1   0.0000
    40 H6        0.5474   -6.0348    6.2390   H         1 RES1   0.0000
    41 H7        0.6393   -5.0119    7.6668   H         1 RES1   0.0000
    42 H8        1.4723   -4.1851    4.8458   H         1 RES1   0.0000
    43 H9        2.5250   -4.6820    6.1564   H         1 RES1   0.0000
    44 H10       2.7065   -2.4577    6.5747   H         1 RES1   0.0000
    45 H11       1.1981   -2.6909    7.4328   H         1 RES1   0.0000
    46 H12      -0.0429   -1.9482    5.3705   H         1 RES1   0.0000
    47 H13       1.5134   -1.6666    4.5731   H         1 RES1   0.0000
    48 H14       2.1338   -0.0809    6.4051   H         1 RES1   0.0000
    49 H15       0.5886   -0.3823    7.1810   H         1 RES1   0.0000
    50 H16       0.5674    1.7363    6.0249   H         1 RES1   0.0000
    51 H17      -0.6551    0.6320    5.4331   H         1 RES1   0.0000
    52 H18       1.9506    2.6813    4.8334   H         1 RES1   0.0000
    53 H19       1.7189    2.6700    3.0770   H         1 RES1   0.0000
    54 H20       3.9914    2.5979    3.7706   H         1 RES1   0.0000
    55 H21       3.3141    0.0063    2.3313   H         1 RES1   0.0000
    56 H22       4.8111    0.9315    2.2340   H         1 RES1   0.0000
    57 H23       3.3150    1.6161    1.5827   H         1 RES1   0.0000
    58 H24       3.6163   -0.2364    4.8330   H         1 RES1   0.0000
    59 H25       3.8669    1.2114    5.8301   H         1 RES1   0.0000
    60 H26       5.1122    0.6698    4.7220   H         1 RES1   0.0000
    61 H27      -1.7025    0.3723    3.9004   H         1 RES1   0.0000
    62 H28      -0.9442   -1.1334    3.3321   H         1 RES1   0.0000
    63 H29      -2.8926    1.5826    2.6728   H         1 RES1   0.0000
    64 H30      -3.7696    0.4414    1.6223   H         1 RES1   0.0000
    65 H31      -2.2562    3.5299   -1.3998   H         1 RES1   0.0000
    66 H32      -3.9666    4.0096   -1.4290   H         1 RES1   0.0000
    67 H33      -2.7380    1.4017   -2.4264   H         1 RES1   0.0000
    68 H34      -3.4638    2.6791   -3.3977   H         1 RES1   0.0000
    69 H35      -5.6637    2.1904   -2.2638   H         1 RES1   0.0000
    70 H36      -4.9112    0.8083   -1.4695   H         1 RES1   0.0000
    71 H37      -4.3430    0.6609   -4.3154   H         1 RES1   0.0000
    72 H38      -6.0601    0.9699   -4.1102   H         1 RES1   0.0000
    73 H39      -5.7751   -1.3693   -4.2273   H         1 RES1   0.0000
    74 H40      -6.2032   -0.9925   -2.5625   H         1 RES1   0.0000
    75 H41      -3.7146   -1.1641   -1.9846   H         1 RES1   0.0000
    76 H42      -3.4258   -1.6114   -3.6618   H         1 RES1   0.0000
    77 H43      -3.4802   -3.6350   -2.4609   H         1 RES1   0.0000
    78 H44      -5.0346   -3.5701   -3.2963   H         1 RES1   0.0000
    79 H45      -4.6124   -2.7609   -0.3773   H         1 RES1   0.0000
    80 H46      -5.2339   -4.3277   -0.9044   H         1 RES1   0.0000
    81 H47      -6.1640   -2.8731   -1.2159   H         1 RES1   0.0000
    82 H48      -4.9263    2.3275    1.5129   H         1 RES1   0.0000
    83 H49      -5.5066    3.1080    0.0430   H         1 RES1   0.0000
    84 H50      -4.2623    5.1456    0.5390   H         1 RES1   0.0000
    85 H51      -3.3170    3.8840    3.1454   H         1 RES1   0.0000
    86 H52      -2.9158    5.4682    2.5051   H         1 RES1   0.0000
    87 H53      -2.2962    4.0391    1.7004   H         1 RES1   0.0000
    88 H54      -5.7898    4.1640    2.9945   H         1 RES1   0.0000
    89 H55      -6.5194    4.8686    1.5498   H         1 RES1   0.0000
    90 H56      -5.4736    5.8438    2.5719   H         1 RES1   0.0000
    91 C29      -5.8229   -8.9026   -0.1662   C.3       1 RES1   0.0000
    92 C30      -4.4478   -8.2994   -0.4243   C.3       1 RES1   0.0000
    93 C31      -4.0970   -8.3033   -1.9115   C.3       1 RES1   0.0000
    94 C32      -2.6528   -7.8921   -2.2097   C.3       1 RES1   0.0000
    95 C33      -2.3464   -6.4176   -1.9003   C.3       1 RES1   0.0000
    96 C34      -1.6161   -6.2236   -0.5680   C.3       1 RES1   0.0000
    97 C35      -1.4407   -4.7437   -0.2134   C.3       1 RES1   0.0000
    98 C36      -0.9666   -4.5222    1.2338   C.3       1 RES1   0.0000
    99 N3        0.4423   -4.1502    1.3498   N.am      1 RES1   0.0000
   100 C37       1.3812   -5.1071    1.9141   C.3       1 RES1   0.0000
   101 C38       1.8464   -6.2312    0.9720   C.3       1 RES1   0.0000
   102 C39       2.9014   -7.0509    1.7115   C.3       1 RES1   0.0000
   103 C40       2.4067   -5.7041   -0.3447   C.3       1 RES1   0.0000
   104 C41       0.7624   -2.9069    1.0247   C.2       1 RES1   0.0000
   105 O4       -0.1040   -2.0527    0.7334   O.2       1 RES1   0.0000
   106 C42       2.2354   -2.4825    1.0222   C.3       1 RES1   0.0000
   107 O5        2.3473   -1.1614    0.5026   O.3       1 RES1   0.0000
   108 C43       3.2406   -1.0024   -0.5937   C.3       1 RES1   0.0000
   109 C44       2.4382   -1.0200   -1.9025   C.2       1 RES1   0.0000
   110 O6        1.1932   -1.0853   -1.7622   O.2       1 RES1   0.0000
   111 N4        3.0546   -0.9399   -3.0689   N.am      1 RES1   0.0000
   112 C45       4.4876   -1.1735   -3.2151   C.3       1 RES1   0.0000
   113 C46       5.4600   -0.1168   -2.6794   C.3       1 RES1   0.0000
   114 C47       6.8891   -0.6860   -2.6364   C.3       1 RES1   0.0000
   115 C48       7.6687   -0.2367   -1.3981   C.3       1 RES1   0.0000
   116 C49       7.2607   -0.9755   -0.1188   C.3       1 RES1   0.0000
   117 C50       8.2335   -0.6831    1.0266   C.3       1 RES1   0.0000
   118 C51       8.1079   -1.6364    2.2160   C.3       1 RES1   0.0000
   119 C52       6.8032   -1.4985    2.9884   C.3       1 RES1   0.0000
   120 C53       2.2580   -0.8164   -4.2907   C.3       1 RES1   0.0000
   121 C54       2.3891    0.5373   -5.0211   C.3       1 RES1   0.0000
   122 C55       2.2367    1.7090   -4.0557   C.3       1 RES1   0.0000
   123 C56       3.6501    0.6976   -5.8706   C.3       1 RES1   0.0000
   124 H57      -6.0535   -8.8873    0.8955   H         1 RES1   0.0000
   125 H58      -5.8537   -9.9331   -0.5076   H         1 RES1   0.0000
   126 H59      -6.5914   -8.3450   -0.6941   H         1 RES1   0.0000
   127 H60      -3.6970   -8.8779    0.1209   H         1 RES1   0.0000
   128 H61      -4.4286   -7.2750   -0.0428   H         1 RES1   0.0000
   129 H62      -4.7800   -7.6394   -2.4474   H         1 RES1   0.0000
   130 H63      -4.2521   -9.3119   -2.3004   H         1 RES1   0.0000
   131 H64      -2.4675   -8.0771   -3.2689   H         1 RES1   0.0000
   132 H65      -1.9744   -8.5335   -1.6427   H         1 RES1   0.0000
   133 H66      -3.2843   -5.8600   -1.8880   H         1 RES1   0.0000
   134 H67      -1.7263   -5.9995   -2.6967   H         1 RES1   0.0000
   135 H68      -0.6444   -6.7182   -0.6312   H         1 RES1   0.0000
   136 H69      -2.1897   -6.7097    0.2237   H         1 RES1   0.0000
   137 H70      -2.4079   -4.2527   -0.3282   H         1 RES1   0.0000
   138 H71      -0.7532   -4.2616   -0.9143   H         1 RES1   0.0000
   139 H72      -1.1213   -5.4303    1.8134   H         1 RES1   0.0000
   140 H73      -1.5532   -3.7115    1.6734   H         1 RES1   0.0000
   141 H74       0.8857   -5.5763    2.7690   H         1 RES1   0.0000
   142 H75       2.2574   -4.5795    2.2936   H         1 RES1   0.0000
   143 H76       0.9895   -6.8722    0.7524   H         1 RES1   0.0000
   144 H77       3.7760   -6.4404    1.9257   H         1 RES1   0.0000
   145 H78       3.2190   -7.8934    1.1073   H         1 RES1   0.0000
   146 H79       2.5119   -7.4343    2.6500   H         1 RES1   0.0000
   147 H80       3.3585   -5.1995   -0.1836   H         1 RES1   0.0000
   148 H81       1.7083   -5.0242   -0.8286   H         1 RES1   0.0000
   149 H82       2.5915   -6.5342   -1.0204   H         1 RES1   0.0000
   150 H83       2.8091   -3.1952    0.4250   H         1 RES1   0.0000
   151 H84       2.6294   -2.4748    2.0474   H         1 RES1   0.0000
   152 H85       4.0466   -1.7444   -0.5826   H         1 RES1   0.0000
   153 H86       3.6773   -0.0072   -0.4610   H         1 RES1   0.0000
   154 H87       4.6748   -1.2911   -4.2807   H         1 RES1   0.0000
   155 H88       4.7152   -2.1326   -2.7396   H         1 RES1   0.0000
   156 H89       5.1945    0.2089   -1.6775   H         1 RES1   0.0000
   157 H90       5.4393    0.7656   -3.3181   H         1 RES1   0.0000
   158 H91       7.4362   -0.3796   -3.5266   H         1 RES1   0.0000
   159 H92       6.8575   -1.7775   -2.6411   H         1 RES1   0.0000
   160 H93       7.5566    0.8405   -1.2586   H         1 RES1   0.0000
   161 H94       8.7277   -0.4315   -1.5722   H         1 RES1   0.0000
   162 H95       7.2696   -2.0518   -0.3145   H         1 RES1   0.0000
   163 H96       6.2452   -0.6951    0.1795   H         1 RES1   0.0000
   164 H97       8.1007    0.3487    1.3614   H         1 RES1   0.0000
   165 H98       9.2505   -0.7705    0.6381   H         1 RES1   0.0000
   166 H99       8.9353   -1.4320    2.8963   H         1 RES1   0.0000
   167 H100      8.2205   -2.6660    1.8696   H         1 RES1   0.0000
   168 H101      6.6581   -0.4646    3.2923   H         1 RES1   0.0000
   169 H102      6.8376   -2.1161    3.8812   H         1 RES1   0.0000
   170 H103      5.9513   -1.8109    2.3879   H         1 RES1   0.0000
   171 H104      1.2085   -0.9523   -4.0165   H         1 RES1   0.0000
   172 H105      2.5376   -1.6247   -4.9722   H         1 RES1   0.0000
   173 H106      1.5361    0.5512   -5.7091   H         1 RES1   0.0000
   174 H107      3.0437    1.7351   -3.3253   H         1 RES1   0.0000
   175 H108      1.2945    1.6367   -3.5218   H         1 RES1   0.0000
   176 H109      2.2458    2.6440   -4.6074   H         1 RES1   0.0000
   177 H110      4.5336    0.9213   -5.2777   H         1 RES1   0.0000
   178 H111      3.5007    1.5293   -6.5542   H         1 RES1   0.0000
   179 H112      3.8418   -0.1852   -6.4746   H         1 RES1   0.0000
   180 N5       -0.9367    0.0294   -2.3273   N.3       1 RES1   0.0000
   181 O7       -1.0909   -0.2777   -3.4627   O.2       1 RES1   0.0000
   182 O8       -1.5256   -0.5603   -1.3996   O.co2     1 RES1   0.0000
   183 O9       -0.1811    0.9635   -2.0099   O.co2     1 RES1   0.0000
@<TRIPOS>BOND
     1     1    16    1
     2     1    18    1
     3     1    21    1
     4     1   105    1
     5     1   107    1
     6     1   110    1
     7     1   182    1
     8     1   183    1
     9     2     3    1
    10     2    35    1
    11     2    36    1
    12     2    37    1
    13     3     4    1
    14     3    38    1
    15     3    39    1
    16     4     5    1
    17     4    40    1
    18     4    41    1
    19     5     6    1
    20     5    42    1
    21     5    43    1
    22     6     7    1
    23     6    44    1
    24     6    45    1
    25     7     8    1
    26     7    46    1
    27     7    47    1
    28     8     9    1
    29     8    48    1
    30     8    49    1
    31     9    10    1
    32     9    50    1
    33     9    51    1
    34    10    11    1
    35    10    15    1
    36    11    12    1
    37    11    52    1
    38    11    53    1
    39    12    13    1
    40    12    14    1
    41    12    54    1
    42    13    55    1
    43    13    56    1
    44    13    57    1
    45    14    58    1
    46    14    59    1
    47    14    60    1
    48    15    16    2
    49    15    17    1
    50    17    18    1
    51    17    61    1
    52    17    62    1
    53    18    19    1
    54    19    20    1
    55    19    63    1
    56    19    64    1
    57    20    21    2
    58    20    22    1
    59    22    23    1
    60    22    31    1
    61    23    24    1
    62    23    65    1
    63    23    66    1
    64    24    25    1
    65    24    67    1
    66    24    68    1
    67    25    26    1
    68    25    69    1
    69    25    70    1
    70    26    27    1
    71    26    71    1
    72    26    72    1
    73    27    28    1
    74    27    73    1
    75    27    74    1
    76    28    29    1
    77    28    75    1
    78    28    76    1
    79    29    30    1
    80    29    77    1
    81    29    78    1
    82    30    79    1
    83    30    80    1
    84    30    81    1
    85    31    32    1
    86    31    82    1
    87    31    83    1
    88    32    33    1
    89    32    34    1
    90    32    84    1
    91    33    85    1
    92    33    86    1
    93    33    87    1
    94    34    88    1
    95    34    89    1
    96    34    90    1
    97    91    92    1
    98    91   124    1
    99    91   125    1
   100    91   126    1
   101    92    93    1
   102    92   127    1
   103    92   128    1
   104    93    94    1
   105    93   129    1
   106    93   130    1
   107    94    95    1
   108    94   131    1
   109    94   132    1
   110    95    96    1
   111    95   133    1
   112    95   134    1
   113    96    97    1
   114    96   135    1
   115    96   136    1
   116    97    98    1
   117    97   137    1
   118    97   138    1
   119    98    99    1
   120    98   139    1
   121    98   140    1
   122    99   100    1
   123    99   104    1
   124   100   101    1
   125   100   141    1
   126   100   142    1
   127   101   102    1
   128   101   103    1
   129   101   143    1
   130   102   144    1
   131   102   145    1
   132   102   146    1
   133   103   147    1
   134   103   148    1
   135   103   149    1
   136   104   105    2
   137   104   106    1
   138   106   107    1
   139   106   150    1
   140   106   151    1
   141   107   108    1
   142   108   109    1
   143   108   152    1
   144   108   153    1
   145   109   110    2
   146   109   111    1
   147   111   112    1
   148   111   120    1
   149   112   113    1
   150   112   154    1
   151   112   155    1
   152   113   114    1
   153   113   156    1
   154   113   157    1
   155   114   115    1
   156   114   158    1
   157   114   159    1
   158   115   116    1
   159   115   160    1
   160   115   161    1
   161   116   117    1
   162   116   162    1
   163   116   163    1
   164   117   118    1
   165   117   164    1
   166   117   165    1
   167   118   119    1
   168   118   166    1
   169   118   167    1
   170   119   168    1
   171   119   169    1
   172   119   170    1
   173   120   121    1
   174   120   171    1
   175   120   172    1
   176   121   122    1
   177   121   123    1
   178   121   173    1
   179   122   174    1
   180   122   175    1
   181   122   176    1
   182   123   177    1
   183   123   178    1
   184   123   179    1
   185   180   181    2
   186   180   182    1
   187   180   183    1
@<TRIPOS>SUBSTRUCTURE
     1 RES1      183 GROUP             0 ****  ****    0  
