@<TRIPOS>MOLECULE
YEMSEP_geometry_0_nunpairedes_0_charge_2 Charge: 2 Unpaired_Electrons: 5 XTB_Unpaired_Electrons: 0 XTB_Charge: 2
   291   295     1     0     0
SMALL
NoCharges
****
Generated from Architector

@<TRIPOS>ATOM
     1 Dy1      -0.2652    0.4502    0.1449   Dy        1 RES1   0.0000
     2 C1        2.3354   -6.2669    0.0740   C.3       1 RES1   0.0000
     3 C2        2.2600   -7.4797   -0.8455   C.3       1 RES1   0.0000
     4 C3        2.7576   -7.1886   -2.2608   C.3       1 RES1   0.0000
     5 C4        1.7940   -6.3207   -3.0670   C.3       1 RES1   0.0000
     6 C5        2.2843   -6.0460   -4.4899   C.3       1 RES1   0.0000
     7 C6        3.5839   -5.2407   -4.6102   C.3       1 RES1   0.0000
     8 C7        3.5123   -3.8600   -3.9547   C.3       1 RES1   0.0000
     9 C8        4.6956   -2.9431   -4.2850   C.3       1 RES1   0.0000
    10 C9        4.4405   -1.4801   -3.8866   C.3       1 RES1   0.0000
    11 C10       4.3816   -1.3708   -2.3565   C.3       1 RES1   0.0000
    12 N1        3.7910   -0.1910   -1.7152   N.am      1 RES1   0.0000
    13 C11       4.6441    0.5426   -0.7605   C.3       1 RES1   0.0000
    14 C12       4.9608    2.0131   -1.0780   C.3       1 RES1   0.0000
    15 C13       6.3185    2.4902   -0.5109   C.3       1 RES1   0.0000
    16 C14       6.5493    2.3562    1.0013   C.3       1 RES1   0.0000
    17 C15       7.9312    2.8971    1.4171   C.3       1 RES1   0.0000
    18 C16       8.5674    2.1778    2.6173   C.3       1 RES1   0.0000
    19 C17       8.1428    2.7013    3.9871   C.3       1 RES1   0.0000
    20 C18       8.9478    2.0558    5.1193   C.3       1 RES1   0.0000
    21 C19       8.6261    0.5832    5.3981   C.3       1 RES1   0.0000
    22 C20       7.3379    0.4415    6.2025   C.3       1 RES1   0.0000
    23 C21       2.4707   -0.0125   -1.6189   C.2       1 RES1   0.0000
    24 O1        1.9728    0.8121   -0.8269   O.2       1 RES1   0.0000
    25 C22       1.4585   -0.7830   -2.5218   C.3       1 RES1   0.0000
    26 C23       1.1411   -2.2108   -2.0670   C.3       1 RES1   0.0000
    27 O2        0.2482   -0.0601   -2.3481   O.3       1 RES1   0.0000
    28 C24      -0.5204    0.3065   -3.4944   C.3       1 RES1   0.0000
    29 C25      -1.5438   -0.7797   -3.8649   C.3       1 RES1   0.0000
    30 C26      -1.1276    1.6495   -3.0238   C.2       1 RES1   0.0000
    31 O3       -1.0052    1.9106   -1.8087   O.2       1 RES1   0.0000
    32 N2       -1.6257    2.5040   -3.9029   N.am      1 RES1   0.0000
    33 C27      -1.8763    2.1985   -5.3052   C.3       1 RES1   0.0000
    34 C28      -3.2467    2.6753   -5.8226   C.3       1 RES1   0.0000
    35 C29      -4.4313    2.4482   -4.8832   C.3       1 RES1   0.0000
    36 C30      -4.9703    1.0195   -4.8132   C.3       1 RES1   0.0000
    37 C31      -6.0207    0.9585   -3.7024   C.3       1 RES1   0.0000
    38 C32      -6.7186   -0.3842   -3.4814   C.3       1 RES1   0.0000
    39 C33      -5.8244   -1.4662   -2.8626   C.3       1 RES1   0.0000
    40 C34      -5.3103   -2.4871   -3.8751   C.3       1 RES1   0.0000
    41 C35      -4.4647   -3.5689   -3.2047   C.3       1 RES1   0.0000
    42 C36      -3.9300   -4.5827   -4.2088   C.3       1 RES1   0.0000
    43 C37      -1.7168    3.9138   -3.5213   C.3       1 RES1   0.0000
    44 C38      -0.3300    4.5666   -3.5742   C.3       1 RES1   0.0000
    45 C39      -0.4146    6.0885   -3.3943   C.3       1 RES1   0.0000
    46 C40       0.6610    6.6232   -2.4516   C.3       1 RES1   0.0000
    47 C41       0.6844    8.1515   -2.3867   C.3       1 RES1   0.0000
    48 C42      -0.6654    8.8035   -2.0864   C.3       1 RES1   0.0000
    49 C43      -1.3298    8.3617   -0.7819   C.3       1 RES1   0.0000
    50 C44      -0.6326    8.9042    0.4641   C.3       1 RES1   0.0000
    51 C45      -1.2973    8.4568    1.7674   C.3       1 RES1   0.0000
    52 C46      -2.7351    8.9405    1.9229   C.3       1 RES1   0.0000
    53 H1        2.1126   -6.5544    1.0995   H         1 RES1   0.0000
    54 H2        1.6209   -5.5009   -0.2240   H         1 RES1   0.0000
    55 H3        3.3386   -5.8432    0.0426   H         1 RES1   0.0000
    56 H4        1.2316   -7.8349   -0.8963   H         1 RES1   0.0000
    57 H5        2.8666   -8.2781   -0.4184   H         1 RES1   0.0000
    58 H6        2.8963   -8.1370   -2.7843   H         1 RES1   0.0000
    59 H7        3.7295   -6.6976   -2.2036   H         1 RES1   0.0000
    60 H8        1.6098   -5.3797   -2.5440   H         1 RES1   0.0000
    61 H9        0.8368   -6.8409   -3.1390   H         1 RES1   0.0000
    62 H10       1.4917   -5.5253   -5.0326   H         1 RES1   0.0000
    63 H11       2.4489   -7.0041   -4.9854   H         1 RES1   0.0000
    64 H12       3.8059   -5.1309   -5.6717   H         1 RES1   0.0000
    65 H13       4.4058   -5.8029   -4.1694   H         1 RES1   0.0000
    66 H14       3.4580   -4.0166   -2.8742   H         1 RES1   0.0000
    67 H15       2.5917   -3.3702   -4.2811   H         1 RES1   0.0000
    68 H16       4.8908   -2.9799   -5.3563   H         1 RES1   0.0000
    69 H17       5.5931   -3.2996   -3.7789   H         1 RES1   0.0000
    70 H18       3.5229   -1.1370   -4.3620   H         1 RES1   0.0000
    71 H19       5.2494   -0.8571   -4.2653   H         1 RES1   0.0000
    72 H20       5.4086   -1.4500   -2.0028   H         1 RES1   0.0000
    73 H21       3.8504   -2.2448   -1.9859   H         1 RES1   0.0000
    74 H22       5.5879    0.0041   -0.7156   H         1 RES1   0.0000
    75 H23       4.1435    0.4985    0.2098   H         1 RES1   0.0000
    76 H24       4.1630    2.6497   -0.6947   H         1 RES1   0.0000
    77 H25       5.0017    2.1393   -2.1601   H         1 RES1   0.0000
    78 H26       6.4114    3.5469   -0.7694   H         1 RES1   0.0000
    79 H27       7.1276    1.9600   -1.0187   H         1 RES1   0.0000
    80 H28       6.5136    1.3002    1.2727   H         1 RES1   0.0000
    81 H29       5.7608    2.8831    1.5437   H         1 RES1   0.0000
    82 H30       7.8686    3.9598    1.6479   H         1 RES1   0.0000
    83 H31       8.6154    2.7941    0.5736   H         1 RES1   0.0000
    84 H32       9.6529    2.2968    2.5545   H         1 RES1   0.0000
    85 H33       8.3506    1.1100    2.5655   H         1 RES1   0.0000
    86 H34       7.0734    2.5520    4.1508   H         1 RES1   0.0000
    87 H35       8.3285    3.7759    4.0194   H         1 RES1   0.0000
    88 H36       8.7573    2.6150    6.0368   H         1 RES1   0.0000
    89 H37      10.0101    2.1533    4.8914   H         1 RES1   0.0000
    90 H38       9.4492    0.1472    5.9680   H         1 RES1   0.0000
    91 H39       8.5449    0.0131    4.4706   H         1 RES1   0.0000
    92 H40       7.4757    0.8769    7.1878   H         1 RES1   0.0000
    93 H41       7.0593   -0.6048    6.3217   H         1 RES1   0.0000
    94 H42       6.5238    0.9697    5.7100   H         1 RES1   0.0000
    95 H43       1.7891   -0.7578   -3.5666   H         1 RES1   0.0000
    96 H44       0.5312   -2.1377   -1.1617   H         1 RES1   0.0000
    97 H45       2.0185   -2.8131   -1.8739   H         1 RES1   0.0000
    98 H46       0.5556   -2.7130   -2.8330   H         1 RES1   0.0000
    99 H47       0.1562    0.5158   -4.3340   H         1 RES1   0.0000
   100 H48      -2.5317   -0.5146   -3.4982   H         1 RES1   0.0000
   101 H49      -1.2626   -1.7187   -3.3958   H         1 RES1   0.0000
   102 H50      -1.5959   -0.9496   -4.9376   H         1 RES1   0.0000
   103 H51      -1.8031    1.1261   -5.4417   H         1 RES1   0.0000
   104 H52      -1.1017    2.6765   -5.9166   H         1 RES1   0.0000
   105 H53      -3.4311    2.1582   -6.7646   H         1 RES1   0.0000
   106 H54      -3.1891    3.7386   -6.0578   H         1 RES1   0.0000
   107 H55      -5.2429    3.0977   -5.2133   H         1 RES1   0.0000
   108 H56      -4.1588    2.7620   -3.8758   H         1 RES1   0.0000
   109 H57      -4.1606    0.3224   -4.6020   H         1 RES1   0.0000
   110 H58      -5.4149    0.7445   -5.7712   H         1 RES1   0.0000
   111 H59      -6.7884    1.7035   -3.9267   H         1 RES1   0.0000
   112 H60      -5.5392    1.2456   -2.7643   H         1 RES1   0.0000
   113 H61      -7.1452   -0.7493   -4.4159   H         1 RES1   0.0000
   114 H62      -7.5515   -0.1939   -2.8025   H         1 RES1   0.0000
   115 H63      -6.3837   -2.0043   -2.0932   H         1 RES1   0.0000
   116 H64      -4.9766   -0.9881   -2.3715   H         1 RES1   0.0000
   117 H65      -4.7222   -1.9834   -4.6454   H         1 RES1   0.0000
   118 H66      -6.1618   -2.9596   -4.3686   H         1 RES1   0.0000
   119 H67      -5.0769   -4.0894   -2.4651   H         1 RES1   0.0000
   120 H68      -3.6361   -3.0971   -2.6683   H         1 RES1   0.0000
   121 H69      -4.7529   -5.0324   -4.7572   H         1 RES1   0.0000
   122 H70      -3.3856   -5.3772   -3.7041   H         1 RES1   0.0000
   123 H71      -3.2651   -4.1076   -4.9267   H         1 RES1   0.0000
   124 H72      -2.1251    3.9835   -2.5114   H         1 RES1   0.0000
   125 H73      -2.3844    4.4174   -4.2169   H         1 RES1   0.0000
   126 H74       0.1363    4.3404   -4.5348   H         1 RES1   0.0000
   127 H75       0.2955    4.1260   -2.7942   H         1 RES1   0.0000
   128 H76      -1.3955    6.3521   -2.9977   H         1 RES1   0.0000
   129 H77      -0.3066    6.5753   -4.3640   H         1 RES1   0.0000
   130 H78       1.6439    6.2920   -2.7932   H         1 RES1   0.0000
   131 H79       0.5038    6.2104   -1.4534   H         1 RES1   0.0000
   132 H80       1.0266    8.5362   -3.3500   H         1 RES1   0.0000
   133 H81       1.4166    8.4557   -1.6355   H         1 RES1   0.0000
   134 H82      -1.3522    8.6016   -2.9092   H         1 RES1   0.0000
   135 H83      -0.5171    9.8835   -2.0521   H         1 RES1   0.0000
   136 H84      -1.3710    7.2712   -0.7237   H         1 RES1   0.0000
   137 H85      -2.3585    8.7249   -0.7875   H         1 RES1   0.0000
   138 H86      -0.6352    9.9950    0.4200   H         1 RES1   0.0000
   139 H87       0.4100    8.5754    0.4796   H         1 RES1   0.0000
   140 H88      -0.7070    8.8455    2.5987   H         1 RES1   0.0000
   141 H89      -1.2787    7.3659    1.8302   H         1 RES1   0.0000
   142 H90      -2.8083   10.0051    1.7139   H         1 RES1   0.0000
   143 H91      -3.0763    8.7687    2.9415   H         1 RES1   0.0000
   144 H92      -3.4081    8.4122    1.2517   H         1 RES1   0.0000
   145 C47      -2.2864   -7.4089    1.9092   C.3       1 RES1   0.0000
   146 C48      -2.0381   -8.6393    2.7732   C.3       1 RES1   0.0000
   147 C49      -1.1646   -8.3505    3.9956   C.3       1 RES1   0.0000
   148 C50       0.2960   -8.0789    3.6352   C.3       1 RES1   0.0000
   149 C51       1.2056   -7.9274    4.8570   C.3       1 RES1   0.0000
   150 C52       0.7982   -6.8158    5.8261   C.3       1 RES1   0.0000
   151 C53       0.7492   -5.4313    5.1837   C.3       1 RES1   0.0000
   152 C54       0.2364   -4.3760    6.1619   C.3       1 RES1   0.0000
   153 C55      -0.0970   -3.0477    5.4818   C.3       1 RES1   0.0000
   154 C56      -1.4201   -3.1133    4.7046   C.3       1 RES1   0.0000
   155 N3       -1.6253   -1.9152    3.9055   N.am      1 RES1   0.0000
   156 C57      -2.4512   -0.8529    4.4690   C.3       1 RES1   0.0000
   157 C58      -1.6906    0.4179    4.8363   C.3       1 RES1   0.0000
   158 C59      -2.6654    1.5384    5.2047   C.3       1 RES1   0.0000
   159 C60      -3.6406    1.9255    4.0829   C.3       1 RES1   0.0000
   160 C61      -5.0255    1.2898    4.2282   C.3       1 RES1   0.0000
   161 C62      -6.0214    1.7567    3.1626   C.3       1 RES1   0.0000
   162 C63      -5.6869    1.3754    1.7105   C.3       1 RES1   0.0000
   163 C64      -6.4265    0.1422    1.1806   C.3       1 RES1   0.0000
   164 C65      -5.9658   -1.1951    1.7591   C.3       1 RES1   0.0000
   165 C66      -4.5940   -1.6283    1.2540   C.3       1 RES1   0.0000
   166 C67      -1.0820   -1.6959    2.7154   C.2       1 RES1   0.0000
   167 O4       -1.1371   -0.5903    2.1398   O.2       1 RES1   0.0000
   168 C68      -0.3922   -2.8368    1.9659   C.3       1 RES1   0.0000
   169 C69      -1.4038   -3.5670    1.0870   C.3       1 RES1   0.0000
   170 O5        0.6296   -2.2503    1.1502   O.3       1 RES1   0.0000
   171 C70       1.9042   -2.2224    1.7834   C.3       1 RES1   0.0000
   172 C71       2.9338   -2.9055    0.8729   C.3       1 RES1   0.0000
   173 C72       2.3093   -0.7737    2.0986   C.2       1 RES1   0.0000
   174 O6        1.5987    0.1619    1.6850   O.2       1 RES1   0.0000
   175 N4        3.4388   -0.5932    2.7776   N.am      1 RES1   0.0000
   176 C73       4.1541   -1.6733    3.4596   C.3       1 RES1   0.0000
   177 C74       5.6885   -1.6475    3.3789   C.3       1 RES1   0.0000
   178 C75       6.3256   -1.3626    2.0126   C.3       1 RES1   0.0000
   179 C76       6.7463   -2.5367    1.1227   C.3       1 RES1   0.0000
   180 C77       7.7937   -2.0249    0.1236   C.3       1 RES1   0.0000
   181 C78       8.6714   -3.0760   -0.5605   C.3       1 RES1   0.0000
   182 C79       8.0070   -3.9773   -1.6098   C.3       1 RES1   0.0000
   183 C80       7.4284   -5.2770   -1.0517   C.3       1 RES1   0.0000
   184 C81       6.8496   -6.1794   -2.1418   C.3       1 RES1   0.0000
   185 C82       6.4216   -7.5320   -1.5823   C.3       1 RES1   0.0000
   186 C83       3.8625    0.7819    3.0419   C.3       1 RES1   0.0000
   187 C84       3.4624    1.2860    4.4293   C.3       1 RES1   0.0000
   188 C85       3.5872    2.8154    4.5213   C.3       1 RES1   0.0000
   189 C86       2.2293    3.5131    4.4145   C.3       1 RES1   0.0000
   190 C87       2.3210    4.9820    3.9995   C.3       1 RES1   0.0000
   191 C88       2.7363    5.2114    2.5420   C.3       1 RES1   0.0000
   192 C89       2.0000    4.3472    1.5170   C.3       1 RES1   0.0000
   193 C90       0.4894    4.5478    1.5572   C.3       1 RES1   0.0000
   194 C91      -0.2551    3.5718    0.6456   C.3       1 RES1   0.0000
   195 C92      -1.7408    3.9277    0.5751   C.3       1 RES1   0.0000
   196 H93      -2.9364   -7.6622    1.0778   H         1 RES1   0.0000
   197 H94      -1.3546   -7.0221    1.5063   H         1 RES1   0.0000
   198 H95      -2.7704   -6.6279    2.4918   H         1 RES1   0.0000
   199 H96      -1.5682   -9.4195    2.1723   H         1 RES1   0.0000
   200 H97      -2.9984   -9.0253    3.1180   H         1 RES1   0.0000
   201 H98      -1.2005   -9.2113    4.6671   H         1 RES1   0.0000
   202 H99      -1.5856   -7.4961    4.5304   H         1 RES1   0.0000
   203 H100      0.3682   -7.1843    3.0123   H         1 RES1   0.0000
   204 H101      0.6647   -8.9159    3.0382   H         1 RES1   0.0000
   205 H102      2.2270   -7.7493    4.5109   H         1 RES1   0.0000
   206 H103      1.2056   -8.8687    5.4083   H         1 RES1   0.0000
   207 H104      1.5035   -6.8058    6.6588   H         1 RES1   0.0000
   208 H105     -0.1829   -7.0464    6.2405   H         1 RES1   0.0000
   209 H106      0.0907   -5.4737    4.3149   H         1 RES1   0.0000
   210 H107      1.7486   -5.1540    4.8378   H         1 RES1   0.0000
   211 H108      0.9932   -4.2047    6.9284   H         1 RES1   0.0000
   212 H109     -0.6582   -4.7494    6.6613   H         1 RES1   0.0000
   213 H110      0.7132   -2.7745    4.8012   H         1 RES1   0.0000
   214 H111     -0.1696   -2.2605    6.2318   H         1 RES1   0.0000
   215 H112     -2.2449   -3.1941    5.4170   H         1 RES1   0.0000
   216 H113     -1.4570   -3.9995    4.0685   H         1 RES1   0.0000
   217 H114     -2.9662   -1.2400    5.3481   H         1 RES1   0.0000
   218 H115     -3.1913   -0.6060    3.7087   H         1 RES1   0.0000
   219 H116     -1.0765    0.7337    3.9887   H         1 RES1   0.0000
   220 H117     -1.0294    0.2188    5.6827   H         1 RES1   0.0000
   221 H118     -2.0726    2.4101    5.4775   H         1 RES1   0.0000
   222 H119     -3.2264    1.2412    6.0908   H         1 RES1   0.0000
   223 H120     -3.2012    1.6617    3.1176   H         1 RES1   0.0000
   224 H121     -3.7762    3.0088    4.0893   H         1 RES1   0.0000
   225 H122     -5.4368    1.5643    5.2020   H         1 RES1   0.0000
   226 H123     -4.9592    0.2035    4.2099   H         1 RES1   0.0000
   227 H124     -6.0955    2.8437    3.2296   H         1 RES1   0.0000
   228 H125     -7.0042    1.3543    3.4181   H         1 RES1   0.0000
   229 H126     -4.6110    1.2380    1.5918   H         1 RES1   0.0000
   230 H127     -5.9715    2.2113    1.0673   H         1 RES1   0.0000
   231 H128     -6.3053    0.1107    0.0946   H         1 RES1   0.0000
   232 H129     -7.4929    0.2590    1.3865   H         1 RES1   0.0000
   233 H130     -6.6907   -1.9591    1.4735   H         1 RES1   0.0000
   234 H131     -5.9651   -1.1411    2.8477   H         1 RES1   0.0000
   235 H132     -4.6116   -1.7179    0.1704   H         1 RES1   0.0000
   236 H133     -4.3256   -2.5957    1.6732   H         1 RES1   0.0000
   237 H134     -3.8218   -0.9111    1.5277   H         1 RES1   0.0000
   238 H135      0.0723   -3.5570    2.6450   H         1 RES1   0.0000
   239 H136     -1.8676   -2.8707    0.3950   H         1 RES1   0.0000
   240 H137     -2.1779   -4.0222    1.6957   H         1 RES1   0.0000
   241 H138     -0.9064   -4.3545    0.5278   H         1 RES1   0.0000
   242 H139      1.8323   -2.7612    2.7339   H         1 RES1   0.0000
   243 H140      3.6841   -2.2048    0.5268   H         1 RES1   0.0000
   244 H141      2.4089   -3.3151    0.0203   H         1 RES1   0.0000
   245 H142      3.4184   -3.7376    1.3725   H         1 RES1   0.0000
   246 H143      3.8106   -2.6269    3.0803   H         1 RES1   0.0000
   247 H144      3.8811   -1.6242    4.5204   H         1 RES1   0.0000
   248 H145      6.0310   -2.6133    3.7535   H         1 RES1   0.0000
   249 H146      6.0500   -0.8931    4.0733   H         1 RES1   0.0000
   250 H147      7.2474   -0.8190    2.2309   H         1 RES1   0.0000
   251 H148      5.6762   -0.7012    1.4417   H         1 RES1   0.0000
   252 H149      5.8914   -2.9741    0.6035   H         1 RES1   0.0000
   253 H150      7.2081   -3.3099    1.7340   H         1 RES1   0.0000
   254 H151      8.4818   -1.3822    0.6804   H         1 RES1   0.0000
   255 H152      7.3207   -1.3918   -0.6341   H         1 RES1   0.0000
   256 H153      9.1262   -3.7003    0.2104   H         1 RES1   0.0000
   257 H154      9.4787   -2.5245   -1.0504   H         1 RES1   0.0000
   258 H155      8.7718   -4.2473   -2.3410   H         1 RES1   0.0000
   259 H156      7.2297   -3.4183   -2.1393   H         1 RES1   0.0000
   260 H157      6.6496   -5.0630   -0.3170   H         1 RES1   0.0000
   261 H158      8.2253   -5.8184   -0.5390   H         1 RES1   0.0000
   262 H159      7.5963   -6.3406   -2.9206   H         1 RES1   0.0000
   263 H160      5.9950   -5.6828   -2.6106   H         1 RES1   0.0000
   264 H161      7.2820   -8.0625   -1.1836   H         1 RES1   0.0000
   265 H162      5.9736   -8.1505   -2.3557   H         1 RES1   0.0000
   266 H163      5.6971   -7.4132   -0.7792   H         1 RES1   0.0000
   267 H164      3.3971    1.4133    2.2834   H         1 RES1   0.0000
   268 H165      4.9414    0.8480    2.9189   H         1 RES1   0.0000
   269 H166      4.1006    0.8210    5.1781   H         1 RES1   0.0000
   270 H167      2.4338    0.9855    4.6294   H         1 RES1   0.0000
   271 H168      4.2576    3.1743    3.7396   H         1 RES1   0.0000
   272 H169      4.0394    3.0872    5.4744   H         1 RES1   0.0000
   273 H170      1.7454    3.4638    5.3918   H         1 RES1   0.0000
   274 H171      1.5944    2.9779    3.7085   H         1 RES1   0.0000
   275 H172      3.0503    5.4792    4.6402   H         1 RES1   0.0000
   276 H173      1.3520    5.4526    4.1805   H         1 RES1   0.0000
   277 H174      3.8072    5.0339    2.4363   H         1 RES1   0.0000
   278 H175      2.5671    6.2636    2.3080   H         1 RES1   0.0000
   279 H176      2.2326    3.2882    1.6695   H         1 RES1   0.0000
   280 H177      2.3654    4.6167    0.5227   H         1 RES1   0.0000
   281 H178      0.2675    5.5656    1.2347   H         1 RES1   0.0000
   282 H179      0.1101    4.4390    2.5740   H         1 RES1   0.0000
   283 H180     -0.1242    2.5212    1.0596   H         1 RES1   0.0000
   284 H181      0.1765    3.6152   -0.3625   H         1 RES1   0.0000
   285 H182     -2.1817    3.9010    1.5693   H         1 RES1   0.0000
   286 H183     -2.2817    3.2282   -0.0588   H         1 RES1   0.0000
   287 H184     -1.8600    4.9361    0.1767   H         1 RES1   0.0000
   288 N5       -2.4760    0.0684   -0.6412   N.3       1 RES1   0.0000
   289 O7       -3.3288    0.1548   -1.4666   O.2       1 RES1   0.0000
   290 O8       -1.6782   -0.8899   -0.6570   O.co2     1 RES1   0.0000
   291 O9       -2.3312    0.8989    0.2568   O.co2     1 RES1   0.0000
@<TRIPOS>BOND
     1     1    24    1
     2     1    27    1
     3     1    31    1
     4     1   167    1
     5     1   170    1
     6     1   174    1
     7     1   290    1
     8     1   291    1
     9     2     3    1
    10     2    53    1
    11     2    54    1
    12     2    55    1
    13     3     4    1
    14     3    56    1
    15     3    57    1
    16     4     5    1
    17     4    58    1
    18     4    59    1
    19     5     6    1
    20     5    60    1
    21     5    61    1
    22     6     7    1
    23     6    62    1
    24     6    63    1
    25     7     8    1
    26     7    64    1
    27     7    65    1
    28     8     9    1
    29     8    66    1
    30     8    67    1
    31     9    10    1
    32     9    68    1
    33     9    69    1
    34    10    11    1
    35    10    70    1
    36    10    71    1
    37    11    12    1
    38    11    72    1
    39    11    73    1
    40    12    13    1
    41    12    23    1
    42    13    14    1
    43    13    74    1
    44    13    75    1
    45    14    15    1
    46    14    76    1
    47    14    77    1
    48    15    16    1
    49    15    78    1
    50    15    79    1
    51    16    17    1
    52    16    80    1
    53    16    81    1
    54    17    18    1
    55    17    82    1
    56    17    83    1
    57    18    19    1
    58    18    84    1
    59    18    85    1
    60    19    20    1
    61    19    86    1
    62    19    87    1
    63    20    21    1
    64    20    88    1
    65    20    89    1
    66    21    22    1
    67    21    90    1
    68    21    91    1
    69    22    92    1
    70    22    93    1
    71    22    94    1
    72    23    24    2
    73    23    25    1
    74    25    26    1
    75    25    27    1
    76    25    95    1
    77    26    96    1
    78    26    97    1
    79    26    98    1
    80    27    28    1
    81    28    29    1
    82    28    30    1
    83    28    99    1
    84    29   100    1
    85    29   101    1
    86    29   102    1
    87    30    31    2
    88    30    32    1
    89    32    33    1
    90    32    43    1
    91    33    34    1
    92    33   103    1
    93    33   104    1
    94    34    35    1
    95    34   105    1
    96    34   106    1
    97    35    36    1
    98    35   107    1
    99    35   108    1
   100    36    37    1
   101    36   109    1
   102    36   110    1
   103    37    38    1
   104    37   111    1
   105    37   112    1
   106    38    39    1
   107    38   113    1
   108    38   114    1
   109    39    40    1
   110    39   115    1
   111    39   116    1
   112    40    41    1
   113    40   117    1
   114    40   118    1
   115    41    42    1
   116    41   119    1
   117    41   120    1
   118    42   121    1
   119    42   122    1
   120    42   123    1
   121    43    44    1
   122    43   124    1
   123    43   125    1
   124    44    45    1
   125    44   126    1
   126    44   127    1
   127    45    46    1
   128    45   128    1
   129    45   129    1
   130    46    47    1
   131    46   130    1
   132    46   131    1
   133    47    48    1
   134    47   132    1
   135    47   133    1
   136    48    49    1
   137    48   134    1
   138    48   135    1
   139    49    50    1
   140    49   136    1
   141    49   137    1
   142    50    51    1
   143    50   138    1
   144    50   139    1
   145    51    52    1
   146    51   140    1
   147    51   141    1
   148    52   142    1
   149    52   143    1
   150    52   144    1
   151   145   146    1
   152   145   196    1
   153   145   197    1
   154   145   198    1
   155   146   147    1
   156   146   199    1
   157   146   200    1
   158   147   148    1
   159   147   201    1
   160   147   202    1
   161   148   149    1
   162   148   203    1
   163   148   204    1
   164   149   150    1
   165   149   205    1
   166   149   206    1
   167   150   151    1
   168   150   207    1
   169   150   208    1
   170   151   152    1
   171   151   209    1
   172   151   210    1
   173   152   153    1
   174   152   211    1
   175   152   212    1
   176   153   154    1
   177   153   213    1
   178   153   214    1
   179   154   155    1
   180   154   215    1
   181   154   216    1
   182   155   156    1
   183   155   166    1
   184   156   157    1
   185   156   217    1
   186   156   218    1
   187   157   158    1
   188   157   219    1
   189   157   220    1
   190   158   159    1
   191   158   221    1
   192   158   222    1
   193   159   160    1
   194   159   223    1
   195   159   224    1
   196   160   161    1
   197   160   225    1
   198   160   226    1
   199   161   162    1
   200   161   227    1
   201   161   228    1
   202   162   163    1
   203   162   229    1
   204   162   230    1
   205   163   164    1
   206   163   231    1
   207   163   232    1
   208   164   165    1
   209   164   233    1
   210   164   234    1
   211   165   235    1
   212   165   236    1
   213   165   237    1
   214   166   167    2
   215   166   168    1
   216   168   169    1
   217   168   170    1
   218   168   238    1
   219   169   239    1
   220   169   240    1
   221   169   241    1
   222   170   171    1
   223   171   172    1
   224   171   173    1
   225   171   242    1
   226   172   243    1
   227   172   244    1
   228   172   245    1
   229   173   174    2
   230   173   175    1
   231   175   176    1
   232   175   186    1
   233   176   177    1
   234   176   246    1
   235   176   247    1
   236   177   178    1
   237   177   248    1
   238   177   249    1
   239   178   179    1
   240   178   250    1
   241   178   251    1
   242   179   180    1
   243   179   252    1
   244   179   253    1
   245   180   181    1
   246   180   254    1
   247   180   255    1
   248   181   182    1
   249   181   256    1
   250   181   257    1
   251   182   183    1
   252   182   258    1
   253   182   259    1
   254   183   184    1
   255   183   260    1
   256   183   261    1
   257   184   185    1
   258   184   262    1
   259   184   263    1
   260   185   264    1
   261   185   265    1
   262   185   266    1
   263   186   187    1
   264   186   267    1
   265   186   268    1
   266   187   188    1
   267   187   269    1
   268   187   270    1
   269   188   189    1
   270   188   271    1
   271   188   272    1
   272   189   190    1
   273   189   273    1
   274   189   274    1
   275   190   191    1
   276   190   275    1
   277   190   276    1
   278   191   192    1
   279   191   277    1
   280   191   278    1
   281   192   193    1
   282   192   279    1
   283   192   280    1
   284   193   194    1
   285   193   281    1
   286   193   282    1
   287   194   195    1
   288   194   283    1
   289   194   284    1
   290   195   285    1
   291   195   286    1
   292   195   287    1
   293   288   289    2
   294   288   290    1
   295   288   291    1
@<TRIPOS>SUBSTRUCTURE
     1 RES1      291 GROUP             0 ****  ****    0  
