@<TRIPOS>MOLECULE
ICIGOT_geomtry_0_nunpairedes_0_charge_3 Charge: 3 Unpaired_Electrons: 5 XTB_Unpaired_Electrons: 0 XTB_Charge: 3
   245   248     1     0     0
SMALL
NoCharges
****
Generated from Architector

@<TRIPOS>ATOM
     1 Dy1      -0.2819    0.2863    0.2189   Dy        1 RES1   0.0000
     2 C1        3.3309   -5.8595   -6.3557   C.3       1 RES1   0.0000
     3 C2        2.1049   -6.2997   -7.1514   C.3       1 RES1   0.0000
     4 C3        0.8005   -5.6519   -6.6762   C.3       1 RES1   0.0000
     5 C4        0.7542   -4.1470   -6.9361   C.3       1 RES1   0.0000
     6 C5       -0.5928   -3.4969   -6.6091   C.3       1 RES1   0.0000
     7 C6       -0.9529   -3.5716   -5.1249   C.3       1 RES1   0.0000
     8 C7       -2.2312   -2.8157   -4.7529   C.3       1 RES1   0.0000
     9 C8       -2.1655   -1.2901   -4.9153   C.3       1 RES1   0.0000
    10 N1       -1.1667   -0.6469   -4.0657   N.am      1 RES1   0.0000
    11 C9        0.0738   -0.1585   -4.6780   C.3       1 RES1   0.0000
    12 C10       1.3419   -0.9652   -4.3861   C.3       1 RES1   0.0000
    13 C11       2.6078   -0.1083   -4.5738   C.3       1 RES1   0.0000
    14 C12       2.5814    0.5249   -5.9691   C.3       1 RES1   0.0000
    15 C13       3.8948   -0.9457   -4.4362   C.3       1 RES1   0.0000
    16 C14       4.4873   -1.2254   -3.0367   C.3       1 RES1   0.0000
    17 C15       5.1947    0.0012   -2.4533   C.3       1 RES1   0.0000
    18 C16       5.5249   -2.3439   -3.1862   C.3       1 RES1   0.0000
    19 C17       3.4511   -1.6961   -2.0076   C.3       1 RES1   0.0000
    20 C18      -1.3665   -0.3675   -2.7931   C.2       1 RES1   0.0000
    21 O1       -0.4517    0.0857   -2.0573   O.2       1 RES1   0.0000
    22 C19      -2.7728   -0.5050   -2.1834   C.3       1 RES1   0.0000
    23 O2       -2.6340   -0.3170   -0.7785   O.3       1 RES1   0.0000
    24 C20      -3.7528    0.2187   -0.0672   C.3       1 RES1   0.0000
    25 C21      -3.3010    1.5844    0.5104   C.2       1 RES1   0.0000
    26 O3       -2.0701    1.8376    0.4354   O.2       1 RES1   0.0000
    27 N2       -4.2170    2.4343    0.9557   N.am      1 RES1   0.0000
    28 C22      -4.1173    3.8671    0.6859   C.3       1 RES1   0.0000
    29 C23      -4.9778    4.2146   -0.5409   C.3       1 RES1   0.0000
    30 C24      -4.5133    3.5748   -1.8481   C.3       1 RES1   0.0000
    31 C25      -3.0473    3.8768   -2.1398   C.3       1 RES1   0.0000
    32 C26      -2.6638    3.6830   -3.6040   C.3       1 RES1   0.0000
    33 C27      -1.3040    4.2896   -3.9418   C.3       1 RES1   0.0000
    34 C28      -0.0978    3.5140   -3.4180   C.3       1 RES1   0.0000
    35 C29       0.0954    3.4434   -1.9023   C.3       1 RES1   0.0000
    36 C30      -5.4178    1.9641    1.6425   C.3       1 RES1   0.0000
    37 C31      -5.0526    1.1473    2.9027   C.3       1 RES1   0.0000
    38 C32      -5.1635    1.8309    4.2955   C.3       1 RES1   0.0000
    39 C33      -6.1683    2.9774    4.3658   C.3       1 RES1   0.0000
    40 C34      -3.7973    2.2615    4.8632   C.3       1 RES1   0.0000
    41 C35      -3.2120    1.3231    5.9379   C.3       1 RES1   0.0000
    42 C36      -3.9705    1.4777    7.2559   C.3       1 RES1   0.0000
    43 C37      -3.2360   -0.1368    5.4771   C.3       1 RES1   0.0000
    44 C38      -1.7446    1.7071    6.1688   C.3       1 RES1   0.0000
    45 H1        4.2003   -6.4308   -6.6702   H         1 RES1   0.0000
    46 H2        3.5517   -4.8053   -6.5124   H         1 RES1   0.0000
    47 H3        3.1794   -6.0345   -5.2908   H         1 RES1   0.0000
    48 H4        2.2600   -6.0709   -8.2072   H         1 RES1   0.0000
    49 H5        2.0042   -7.3838   -7.0598   H         1 RES1   0.0000
    50 H6       -0.0302   -6.1258   -7.2025   H         1 RES1   0.0000
    51 H7        0.6821   -5.8583   -5.6090   H         1 RES1   0.0000
    52 H8        1.5420   -3.6569   -6.3592   H         1 RES1   0.0000
    53 H9        0.9661   -3.9763   -7.9933   H         1 RES1   0.0000
    54 H10      -0.5424   -2.4542   -6.9268   H         1 RES1   0.0000
    55 H11      -1.3769   -3.9809   -7.1924   H         1 RES1   0.0000
    56 H12      -1.0971   -4.6195   -4.8584   H         1 RES1   0.0000
    57 H13      -0.1262   -3.1931   -4.5222   H         1 RES1   0.0000
    58 H14      -3.0488   -3.1734   -5.3801   H         1 RES1   0.0000
    59 H15      -2.4798   -3.0608   -3.7183   H         1 RES1   0.0000
    60 H16      -1.9315   -1.0623   -5.9539   H         1 RES1   0.0000
    61 H17      -3.1488   -0.8652   -4.7051   H         1 RES1   0.0000
    62 H18      -0.0907   -0.0852   -5.7507   H         1 RES1   0.0000
    63 H19       0.2299    0.8449   -4.2737   H         1 RES1   0.0000
    64 H20       1.2856   -1.3182   -3.3583   H         1 RES1   0.0000
    65 H21       1.4036   -1.8223   -5.0538   H         1 RES1   0.0000
    66 H22       2.6002    0.6863   -3.8199   H         1 RES1   0.0000
    67 H23       2.5275   -0.2519   -6.7281   H         1 RES1   0.0000
    68 H24       1.7354    1.1954   -6.0958   H         1 RES1   0.0000
    69 H25       3.4812    1.1037   -6.1487   H         1 RES1   0.0000
    70 H26       3.7281   -1.8986   -4.9425   H         1 RES1   0.0000
    71 H27       4.6745   -0.4337   -5.0024   H         1 RES1   0.0000
    72 H28       5.8363    0.4730   -3.1901   H         1 RES1   0.0000
    73 H29       4.4814    0.7343   -2.0810   H         1 RES1   0.0000
    74 H30       5.8223   -0.3026   -1.6187   H         1 RES1   0.0000
    75 H31       6.3054   -2.0592   -3.8832   H         1 RES1   0.0000
    76 H32       5.9918   -2.5540   -2.2272   H         1 RES1   0.0000
    77 H33       5.0659   -3.2610   -3.5457   H         1 RES1   0.0000
    78 H34       2.7300   -0.9054   -1.7849   H         1 RES1   0.0000
    79 H35       2.9533   -2.5930   -2.3701   H         1 RES1   0.0000
    80 H36       3.9778   -1.9459   -1.0886   H         1 RES1   0.0000
    81 H37      -3.3985    0.2735   -2.6414   H         1 RES1   0.0000
    82 H38      -3.2225   -1.4869   -2.3792   H         1 RES1   0.0000
    83 H39      -4.6115    0.3755   -0.7295   H         1 RES1   0.0000
    84 H40      -4.0445   -0.4932    0.7102   H         1 RES1   0.0000
    85 H41      -4.4945    4.4228    1.5453   H         1 RES1   0.0000
    86 H42      -3.0696    4.1278    0.5338   H         1 RES1   0.0000
    87 H43      -6.0122    3.9266   -0.3483   H         1 RES1   0.0000
    88 H44      -4.9521    5.2983   -0.6565   H         1 RES1   0.0000
    89 H45      -4.6718    2.4940   -1.8246   H         1 RES1   0.0000
    90 H46      -5.1362    3.9650   -2.6516   H         1 RES1   0.0000
    91 H47      -2.8568    4.9160   -1.8714   H         1 RES1   0.0000
    92 H48      -2.4308    3.2409   -1.5075   H         1 RES1   0.0000
    93 H49      -2.6803    2.6183   -3.8677   H         1 RES1   0.0000
    94 H50      -3.4175    4.1718   -4.2216   H         1 RES1   0.0000
    95 H51      -1.2129    4.3155   -5.0299   H         1 RES1   0.0000
    96 H52      -1.2621    5.3180   -3.5776   H         1 RES1   0.0000
    97 H53      -0.1547    2.5015   -3.8118   H         1 RES1   0.0000
    98 H54       0.7910    3.9747   -3.8498   H         1 RES1   0.0000
    99 H55      -0.1496    4.3990   -1.4369   H         1 RES1   0.0000
   100 H56      -0.5185    2.6614   -1.4315   H         1 RES1   0.0000
   101 H57       1.1343    3.1930   -1.6983   H         1 RES1   0.0000
   102 H58      -6.0011    2.8412    1.9235   H         1 RES1   0.0000
   103 H59      -6.0287    1.3584    0.9666   H         1 RES1   0.0000
   104 H60      -5.6939    0.2645    2.9221   H         1 RES1   0.0000
   105 H61      -4.0199    0.8080    2.7825   H         1 RES1   0.0000
   106 H62      -5.5497    1.0631    4.9662   H         1 RES1   0.0000
   107 H63      -5.7843    3.8866    3.9104   H         1 RES1   0.0000
   108 H64      -7.1088    2.7002    3.8990   H         1 RES1   0.0000
   109 H65      -6.3770    3.1980    5.4096   H         1 RES1   0.0000
   110 H66      -3.0638    2.3419    4.0591   H         1 RES1   0.0000
   111 H67      -3.8956    3.2442    5.3259   H         1 RES1   0.0000
   112 H68      -5.0245    1.2460    7.1414   H         1 RES1   0.0000
   113 H69      -3.5639    0.8163    8.0161   H         1 RES1   0.0000
   114 H70      -3.8849    2.4979    7.6190   H         1 RES1   0.0000
   115 H71      -4.2413   -0.5397    5.4029   H         1 RES1   0.0000
   116 H72      -2.7514   -0.2265    4.5024   H         1 RES1   0.0000
   117 H73      -2.6908   -0.7393    6.1952   H         1 RES1   0.0000
   118 H74      -1.6485    2.7631    6.4038   H         1 RES1   0.0000
   119 H75      -1.3296    1.1408    6.9991   H         1 RES1   0.0000
   120 H76      -1.1506    1.4921    5.2797   H         1 RES1   0.0000
   121 C39      -2.0600    4.9878    3.3143   C.3       1 RES1   0.0000
   122 C40      -0.8997    4.0107    3.1676   C.3       1 RES1   0.0000
   123 C41       0.3161    4.5484    3.9237   C.3       1 RES1   0.0000
   124 C42       1.4674    3.5461    4.0013   C.3       1 RES1   0.0000
   125 C43       2.7247    4.2379    4.5368   C.3       1 RES1   0.0000
   126 C44       4.0779    3.5705    4.2668   C.3       1 RES1   0.0000
   127 C45       4.7262    3.9951    2.9435   C.3       1 RES1   0.0000
   128 C46       4.5695    3.0658    1.7325   C.3       1 RES1   0.0000
   129 N3        3.2434    3.0655    1.1142   N.am      1 RES1   0.0000
   130 C47       2.6816    4.3757    0.7299   C.3       1 RES1   0.0000
   131 C48       3.6905    5.3968    0.1883   C.3       1 RES1   0.0000
   132 C49       3.7677    5.5893   -1.3419   C.3       1 RES1   0.0000
   133 C50       2.6330    6.5114   -1.7913   C.3       1 RES1   0.0000
   134 C51       3.7959    4.2872   -2.1633   C.3       1 RES1   0.0000
   135 C52       4.8103    4.2415   -3.3346   C.3       1 RES1   0.0000
   136 C53       4.8111    5.5160   -4.1763   C.3       1 RES1   0.0000
   137 C54       6.2197    3.9795   -2.8023   C.3       1 RES1   0.0000
   138 C55       4.4079    3.0858   -4.2561   C.3       1 RES1   0.0000
   139 C56       2.5125    1.9775    0.9783   C.2       1 RES1   0.0000
   140 O4        1.3363    1.9666    0.5214   O.2       1 RES1   0.0000
   141 C57       3.0885    0.6153    1.3979   C.3       1 RES1   0.0000
   142 O5        2.1952   -0.3911    0.9178   O.3       1 RES1   0.0000
   143 C58       2.2924   -1.6391    1.5989   C.3       1 RES1   0.0000
   144 C59       0.9363   -1.9273    2.2567   C.2       1 RES1   0.0000
   145 O6        0.0921   -0.9978    2.2449   O.2       1 RES1   0.0000
   146 N4        0.7573   -3.1099    2.8233   N.am      1 RES1   0.0000
   147 C60       1.6534   -4.2423    2.5981   C.3       1 RES1   0.0000
   148 C61       1.3691   -4.9955    1.2823   C.3       1 RES1   0.0000
   149 C62      -0.1201   -5.1564    0.9645   C.3       1 RES1   0.0000
   150 C63      -0.3513   -6.0223   -0.2767   C.3       1 RES1   0.0000
   151 C64      -1.8281   -6.2400   -0.6214   C.3       1 RES1   0.0000
   152 C65      -2.5869   -4.9800   -1.0467   C.3       1 RES1   0.0000
   153 C66      -3.9286   -5.3332   -1.6975   C.3       1 RES1   0.0000
   154 C67      -4.8290   -4.1210   -1.9144   C.3       1 RES1   0.0000
   155 C68      -0.4563   -3.4137    3.5835   C.3       1 RES1   0.0000
   156 C69      -0.7808   -2.4415    4.7153   C.3       1 RES1   0.0000
   157 C70       0.1894   -2.5425    5.9098   C.3       1 RES1   0.0000
   158 C71      -0.5687   -2.4252    7.2300   C.3       1 RES1   0.0000
   159 C72       1.2842   -1.4803    5.7440   C.3       1 RES1   0.0000
   160 C73       2.5076   -1.5366    6.6842   C.3       1 RES1   0.0000
   161 C74       2.9662   -2.9761    6.9145   C.3       1 RES1   0.0000
   162 C75       3.6477   -0.7694    5.9983   C.3       1 RES1   0.0000
   163 C76       2.2274   -0.8537    8.0235   C.3       1 RES1   0.0000
   164 H77      -1.9197    5.8766    2.7107   H         1 RES1   0.0000
   165 H78      -3.0108    4.5392    3.0496   H         1 RES1   0.0000
   166 H79      -2.1170    5.2972    4.3573   H         1 RES1   0.0000
   167 H80      -0.6270    3.8474    2.1138   H         1 RES1   0.0000
   168 H81      -1.1859    3.0291    3.5667   H         1 RES1   0.0000
   169 H82       0.0405    4.8510    4.9339   H         1 RES1   0.0000
   170 H83       0.6463    5.4598    3.4140   H         1 RES1   0.0000
   171 H84       1.6125    3.1404    3.0008   H         1 RES1   0.0000
   172 H85       1.1840    2.7157    4.6567   H         1 RES1   0.0000
   173 H86       2.5977    4.3520    5.6150   H         1 RES1   0.0000
   174 H87       2.7782    5.2474    4.1220   H         1 RES1   0.0000
   175 H88       4.0117    2.4853    4.3551   H         1 RES1   0.0000
   176 H89       4.7450    3.9114    5.0581   H         1 RES1   0.0000
   177 H90       5.8022    4.0886    3.0923   H         1 RES1   0.0000
   178 H91       4.3658    4.9912    2.7021   H         1 RES1   0.0000
   179 H92       4.8576    2.0583    2.0215   H         1 RES1   0.0000
   180 H93       5.2780    3.3904    0.9654   H         1 RES1   0.0000
   181 H94       2.2070    4.7874    1.6239   H         1 RES1   0.0000
   182 H95       1.8989    4.1810   -0.0015   H         1 RES1   0.0000
   183 H96       4.6919    5.1828    0.5464   H         1 RES1   0.0000
   184 H97       3.4198    6.3685    0.6066   H         1 RES1   0.0000
   185 H98       4.7078    6.1207   -1.5110   H         1 RES1   0.0000
   186 H99       1.6666    6.1240   -1.4746   H         1 RES1   0.0000
   187 H100      2.6233    6.6196   -2.8707   H         1 RES1   0.0000
   188 H101      2.7591    7.5008   -1.3569   H         1 RES1   0.0000
   189 H102      2.8008    4.1173   -2.5805   H         1 RES1   0.0000
   190 H103      4.0205    3.4433   -1.5032   H         1 RES1   0.0000
   191 H104      5.1516    6.3774   -3.6134   H         1 RES1   0.0000
   192 H105      3.8179    5.7206   -4.5668   H         1 RES1   0.0000
   193 H106      5.4801    5.3860   -5.0223   H         1 RES1   0.0000
   194 H107      6.5635    4.7934   -2.1720   H         1 RES1   0.0000
   195 H108      6.9176    3.8814   -3.6280   H         1 RES1   0.0000
   196 H109      6.2532    3.0563   -2.2278   H         1 RES1   0.0000
   197 H110      3.5344    3.3518   -4.8452   H         1 RES1   0.0000
   198 H111      4.1709    2.1987   -3.6820   H         1 RES1   0.0000
   199 H112      5.2178    2.8467   -4.9384   H         1 RES1   0.0000
   200 H113      3.1510    0.5860    2.4926   H         1 RES1   0.0000
   201 H114      4.0790    0.4463    0.9587   H         1 RES1   0.0000
   202 H115      3.0602   -1.6050    2.3789   H         1 RES1   0.0000
   203 H116      2.5500   -2.4090    0.8688   H         1 RES1   0.0000
   204 H117      1.5109   -4.9363    3.4252   H         1 RES1   0.0000
   205 H118      2.6966   -3.9282    2.6251   H         1 RES1   0.0000
   206 H119      1.8116   -5.9872    1.3793   H         1 RES1   0.0000
   207 H120      1.8655   -4.5102    0.4391   H         1 RES1   0.0000
   208 H121     -0.5686   -4.1711    0.8142   H         1 RES1   0.0000
   209 H122     -0.6185   -5.6344    1.8076   H         1 RES1   0.0000
   210 H123      0.0891   -7.0027   -0.0988   H         1 RES1   0.0000
   211 H124      0.1634   -5.5907   -1.1390   H         1 RES1   0.0000
   212 H125     -2.3405   -6.6884    0.2312   H         1 RES1   0.0000
   213 H126     -1.8776   -6.9602   -1.4391   H         1 RES1   0.0000
   214 H127     -1.9812   -4.4015   -1.7550   H         1 RES1   0.0000
   215 H128     -2.7782   -4.3523   -0.1680   H         1 RES1   0.0000
   216 H129     -4.4525   -6.0499   -1.0638   H         1 RES1   0.0000
   217 H130     -3.7455   -5.8177   -2.6573   H         1 RES1   0.0000
   218 H131     -5.0228   -3.6062   -0.9743   H         1 RES1   0.0000
   219 H132     -5.7827   -4.4379   -2.3255   H         1 RES1   0.0000
   220 H133     -4.3844   -3.4166   -2.6167   H         1 RES1   0.0000
   221 H134     -0.3271   -4.4010    4.0273   H         1 RES1   0.0000
   222 H135     -1.3005   -3.4780    2.8921   H         1 RES1   0.0000
   223 H136     -1.7848   -2.7023    5.0511   H         1 RES1   0.0000
   224 H137     -0.8087   -1.4168    4.3454   H         1 RES1   0.0000
   225 H138      0.6518   -3.5313    5.8810   H         1 RES1   0.0000
   226 H139     -0.8026   -1.3907    7.4561   H         1 RES1   0.0000
   227 H140      0.0161   -2.8268    8.0490   H         1 RES1   0.0000
   228 H141     -1.4954   -2.9911    7.1911   H         1 RES1   0.0000
   229 H142      0.8232   -0.4938    5.8352   H         1 RES1   0.0000
   230 H143      1.6602   -1.5631    4.7185   H         1 RES1   0.0000
   231 H144      3.1188   -3.4919    5.9678   H         1 RES1   0.0000
   232 H145      2.2453   -3.5334    7.5034   H         1 RES1   0.0000
   233 H146      3.9059   -2.9817    7.4574   H         1 RES1   0.0000
   234 H147      3.9571   -1.2689    5.0796   H         1 RES1   0.0000
   235 H148      4.5105   -0.7172    6.6560   H         1 RES1   0.0000
   236 H149      3.3400    0.2479    5.7607   H         1 RES1   0.0000
   237 H150      1.5158   -1.4092    8.6211   H         1 RES1   0.0000
   238 H151      1.8386    0.1504    7.8724   H         1 RES1   0.0000
   239 H152      3.1454   -0.7756    8.5982   H         1 RES1   0.0000
   240 O7       -1.9114   -1.9675    1.0211   O.3       1 RES1   0.0000
   241 H153     -2.0904   -1.9316    1.9708   H         1 RES1   0.0000
   242 H154     -2.6146   -2.4986    0.6172   H         1 RES1   0.0000
   243 O8        0.3772   -2.0387   -0.6054   O.3       1 RES1   0.0000
   244 H155     -0.1877   -2.8224   -0.7014   H         1 RES1   0.0000
   245 H156      1.1311   -2.1664   -1.2051   H         1 RES1   0.0000
@<TRIPOS>BOND
     1     1    21    1
     2     1    23    1
     3     1    26    1
     4     1   140    1
     5     1   142    1
     6     1   145    1
     7     1   240    1
     8     1   243    1
     9     2     3    1
    10     2    45    1
    11     2    46    1
    12     2    47    1
    13     3     4    1
    14     3    48    1
    15     3    49    1
    16     4     5    1
    17     4    50    1
    18     4    51    1
    19     5     6    1
    20     5    52    1
    21     5    53    1
    22     6     7    1
    23     6    54    1
    24     6    55    1
    25     7     8    1
    26     7    56    1
    27     7    57    1
    28     8     9    1
    29     8    58    1
    30     8    59    1
    31     9    10    1
    32     9    60    1
    33     9    61    1
    34    10    11    1
    35    10    20    1
    36    11    12    1
    37    11    62    1
    38    11    63    1
    39    12    13    1
    40    12    64    1
    41    12    65    1
    42    13    14    1
    43    13    15    1
    44    13    66    1
    45    14    67    1
    46    14    68    1
    47    14    69    1
    48    15    16    1
    49    15    70    1
    50    15    71    1
    51    16    17    1
    52    16    18    1
    53    16    19    1
    54    17    72    1
    55    17    73    1
    56    17    74    1
    57    18    75    1
    58    18    76    1
    59    18    77    1
    60    19    78    1
    61    19    79    1
    62    19    80    1
    63    20    21    2
    64    20    22    1
    65    22    23    1
    66    22    81    1
    67    22    82    1
    68    23    24    1
    69    24    25    1
    70    24    83    1
    71    24    84    1
    72    25    26    2
    73    25    27    1
    74    27    28    1
    75    27    36    1
    76    28    29    1
    77    28    85    1
    78    28    86    1
    79    29    30    1
    80    29    87    1
    81    29    88    1
    82    30    31    1
    83    30    89    1
    84    30    90    1
    85    31    32    1
    86    31    91    1
    87    31    92    1
    88    32    33    1
    89    32    93    1
    90    32    94    1
    91    33    34    1
    92    33    95    1
    93    33    96    1
    94    34    35    1
    95    34    97    1
    96    34    98    1
    97    35    99    1
    98    35   100    1
    99    35   101    1
   100    36    37    1
   101    36   102    1
   102    36   103    1
   103    37    38    1
   104    37   104    1
   105    37   105    1
   106    38    39    1
   107    38    40    1
   108    38   106    1
   109    39   107    1
   110    39   108    1
   111    39   109    1
   112    40    41    1
   113    40   110    1
   114    40   111    1
   115    41    42    1
   116    41    43    1
   117    41    44    1
   118    42   112    1
   119    42   113    1
   120    42   114    1
   121    43   115    1
   122    43   116    1
   123    43   117    1
   124    44   118    1
   125    44   119    1
   126    44   120    1
   127   121   122    1
   128   121   164    1
   129   121   165    1
   130   121   166    1
   131   122   123    1
   132   122   167    1
   133   122   168    1
   134   123   124    1
   135   123   169    1
   136   123   170    1
   137   124   125    1
   138   124   171    1
   139   124   172    1
   140   125   126    1
   141   125   173    1
   142   125   174    1
   143   126   127    1
   144   126   175    1
   145   126   176    1
   146   127   128    1
   147   127   177    1
   148   127   178    1
   149   128   129    1
   150   128   179    1
   151   128   180    1
   152   129   130    1
   153   129   139    1
   154   130   131    1
   155   130   181    1
   156   130   182    1
   157   131   132    1
   158   131   183    1
   159   131   184    1
   160   132   133    1
   161   132   134    1
   162   132   185    1
   163   133   186    1
   164   133   187    1
   165   133   188    1
   166   134   135    1
   167   134   189    1
   168   134   190    1
   169   135   136    1
   170   135   137    1
   171   135   138    1
   172   136   191    1
   173   136   192    1
   174   136   193    1
   175   137   194    1
   176   137   195    1
   177   137   196    1
   178   138   197    1
   179   138   198    1
   180   138   199    1
   181   139   140    2
   182   139   141    1
   183   141   142    1
   184   141   200    1
   185   141   201    1
   186   142   143    1
   187   143   144    1
   188   143   202    1
   189   143   203    1
   190   144   145    2
   191   144   146    1
   192   146   147    1
   193   146   155    1
   194   147   148    1
   195   147   204    1
   196   147   205    1
   197   148   149    1
   198   148   206    1
   199   148   207    1
   200   149   150    1
   201   149   208    1
   202   149   209    1
   203   150   151    1
   204   150   210    1
   205   150   211    1
   206   151   152    1
   207   151   212    1
   208   151   213    1
   209   152   153    1
   210   152   214    1
   211   152   215    1
   212   153   154    1
   213   153   216    1
   214   153   217    1
   215   154   218    1
   216   154   219    1
   217   154   220    1
   218   155   156    1
   219   155   221    1
   220   155   222    1
   221   156   157    1
   222   156   223    1
   223   156   224    1
   224   157   158    1
   225   157   159    1
   226   157   225    1
   227   158   226    1
   228   158   227    1
   229   158   228    1
   230   159   160    1
   231   159   229    1
   232   159   230    1
   233   160   161    1
   234   160   162    1
   235   160   163    1
   236   161   231    1
   237   161   232    1
   238   161   233    1
   239   162   234    1
   240   162   235    1
   241   162   236    1
   242   163   237    1
   243   163   238    1
   244   163   239    1
   245   240   241    1
   246   240   242    1
   247   243   244    1
   248   243   245    1
@<TRIPOS>SUBSTRUCTURE
     1 RES1      245 GROUP             0 ****  ****    0  
