@<TRIPOS>MOLECULE
square_prismatic_0_nunpairedes_0_charge_3 Charge: 3 Unpaired_Electrons: 5 XTB_Unpaired_Electrons: 0 XTB_Charge: 3
   157   168     1     0     0
SMALL
NoCharges
****
Generated from Architector

@<TRIPOS>ATOM
     1 Dy1       0.0968    0.0480   -0.0093   Dy        1 RES1   0.0000
     2 C1        1.6106   -2.1941   -6.9864   C.3       1 RES1   0.0000
     3 C2        1.5249   -2.6236   -5.5267   C.3       1 RES1   0.0000
     4 C3        0.5303   -3.7625   -5.3159   C.3       1 RES1   0.0000
     5 C4        0.3488   -4.1193   -3.8362   C.3       1 RES1   0.0000
     6 N1       -0.2308   -3.0364   -3.0499   N.am      1 RES1   0.0000
     7 C5       -1.6981   -2.9436   -3.1560   C.3       1 RES1   0.0000
     8 C6       -2.2734   -1.6081   -3.6419   C.3       1 RES1   0.0000
     9 C7       -2.0606   -1.3071   -5.1237   C.3       1 RES1   0.0000
    10 C8       -2.8783   -0.0911   -5.5397   C.3       1 RES1   0.0000
    11 C9        0.3265   -2.2378   -2.1404   C.2       1 RES1   0.0000
    12 O1       -0.4446   -1.5052   -1.4682   O.2       1 RES1   0.0000
    13 C10       1.7929   -2.0896   -1.7452   C.ar      1 RES1   0.0000
    14 C11       2.8959   -2.9216   -1.9956   C.ar      1 RES1   0.0000
    15 C12       4.0998   -2.6638   -1.3695   C.ar      1 RES1   0.0000
    16 C13       4.2308   -1.5977   -0.4603   C.ar      1 RES1   0.0000
    17 C14       5.4039   -1.3645    0.3156   C.ar      1 RES1   0.0000
    18 C15       5.4207   -0.4073    1.2742   C.ar      1 RES1   0.0000
    19 C16       4.2699    0.3968    1.5405   C.ar      1 RES1   0.0000
    20 C17       4.1752    1.2867    2.6256   C.ar      1 RES1   0.0000
    21 C18       2.9870    1.9323    2.9157   C.ar      1 RES1   0.0000
    22 C19       1.8748    1.7306    2.0832   C.ar      1 RES1   0.0000
    23 C20       0.4176    2.1571    2.2390   C.2       1 RES1   0.0000
    24 O2       -0.3573    1.5323    1.4718   O.2       1 RES1   0.0000
    25 N2       -0.1432    3.0300    3.0718   N.am      1 RES1   0.0000
    26 C21      -1.6029    3.1359    2.9726   C.3       1 RES1   0.0000
    27 C22      -2.3448    1.9650    3.6194   C.3       1 RES1   0.0000
    28 C23      -3.8474    2.0728    3.3431   C.3       1 RES1   0.0000
    29 C24      -4.5028    3.2267    4.0961   C.3       1 RES1   0.0000
    30 C25       0.4191    3.9643    4.0269   C.3       1 RES1   0.0000
    31 C26       0.2744    5.4302    3.5894   C.3       1 RES1   0.0000
    32 C27       1.1194    5.7967    2.3682   C.3       1 RES1   0.0000
    33 C28       0.4792    5.3905    1.0413   C.3       1 RES1   0.0000
    34 N3        1.9897    0.9267    1.0206   N.ar      1 RES1   0.0000
    35 C29       3.1091    0.2457    0.7467   C.ar      1 RES1   0.0000
    36 C30       3.0875   -0.7828   -0.2852   C.ar      1 RES1   0.0000
    37 N4        1.9453   -1.0362   -0.9396   N.ar      1 RES1   0.0000
    38 H1        2.3427   -1.3986   -7.1002   H         1 RES1   0.0000
    39 H2        0.6518   -1.8298   -7.3489   H         1 RES1   0.0000
    40 H3        1.9156   -3.0307   -7.6079   H         1 RES1   0.0000
    41 H4        1.2256   -1.7695   -4.9143   H         1 RES1   0.0000
    42 H5        2.5146   -2.9391   -5.1887   H         1 RES1   0.0000
    43 H6        0.8857   -4.6566   -5.8284   H         1 RES1   0.0000
    44 H7       -0.4344   -3.4947   -5.7484   H         1 RES1   0.0000
    45 H8        1.3014   -4.4232   -3.4152   H         1 RES1   0.0000
    46 H9       -0.3405   -4.9683   -3.7580   H         1 RES1   0.0000
    47 H10      -2.1121   -3.1512   -2.1621   H         1 RES1   0.0000
    48 H11      -2.0207   -3.7271   -3.8372   H         1 RES1   0.0000
    49 H12      -1.8784   -0.7854   -3.0405   H         1 RES1   0.0000
    50 H13      -3.3478   -1.6595   -3.4580   H         1 RES1   0.0000
    51 H14      -2.3786   -2.1577   -5.7273   H         1 RES1   0.0000
    52 H15      -1.0035   -1.1249   -5.3181   H         1 RES1   0.0000
    53 H16      -3.9403   -0.3137   -5.5146   H         1 RES1   0.0000
    54 H17      -2.6244    0.2212   -6.5470   H         1 RES1   0.0000
    55 H18      -2.6962    0.7424   -4.8656   H         1 RES1   0.0000
    56 H19       2.8419   -3.7839   -2.6354   H         1 RES1   0.0000
    57 H20       4.9465   -3.3079   -1.5449   H         1 RES1   0.0000
    58 H21       6.2582   -1.9944    0.1399   H         1 RES1   0.0000
    59 H22       6.2992   -0.2672    1.8805   H         1 RES1   0.0000
    60 H23       5.0335    1.4188    3.2659   H         1 RES1   0.0000
    61 H24       2.9521    2.5440    3.7965   H         1 RES1   0.0000
    62 H25      -1.8792    3.1924    1.9153   H         1 RES1   0.0000
    63 H26      -1.9015    4.0521    3.4699   H         1 RES1   0.0000
    64 H27      -2.1789    1.9693    4.6978   H         1 RES1   0.0000
    65 H28      -1.9624    1.0226    3.2209   H         1 RES1   0.0000
    66 H29      -4.3242    1.1371    3.6417   H         1 RES1   0.0000
    67 H30      -4.0079    2.1909    2.2668   H         1 RES1   0.0000
    68 H31      -4.2202    3.2048    5.1446   H         1 RES1   0.0000
    69 H32      -5.5826    3.1394    4.0397   H         1 RES1   0.0000
    70 H33      -4.2216    4.1871    3.6749   H         1 RES1   0.0000
    71 H34       1.4691    3.7629    4.1982   H         1 RES1   0.0000
    72 H35      -0.1224    3.8141    4.9666   H         1 RES1   0.0000
    73 H36       0.5780    6.0379    4.4408   H         1 RES1   0.0000
    74 H37      -0.7664    5.6663    3.3724   H         1 RES1   0.0000
    75 H38       2.1075    5.3406    2.4616   H         1 RES1   0.0000
    76 H39       1.2513    6.8779    2.3552   H         1 RES1   0.0000
    77 H40       0.4889    4.3094    0.8979   H         1 RES1   0.0000
    78 H41       1.0231    5.8493    0.2186   H         1 RES1   0.0000
    79 H42      -0.5521    5.7378    0.9999   H         1 RES1   0.0000
    80 C31       0.9961    1.4172   -5.8164   C.3       1 RES1   0.0000
    81 C32       0.4997    2.8267   -6.1272   C.3       1 RES1   0.0000
    82 C33      -0.6584    3.2796   -5.2251   C.3       1 RES1   0.0000
    83 C34      -0.2190    3.9861   -3.9334   C.3       1 RES1   0.0000
    84 N5        0.4382    3.1008   -2.9940   N.am      1 RES1   0.0000
    85 C35       1.9042    3.1758   -3.0126   C.3       1 RES1   0.0000
    86 C36       2.4474    4.1917   -2.0071   C.3       1 RES1   0.0000
    87 C37       3.9743    4.1303   -1.9316   C.3       1 RES1   0.0000
    88 C38       4.6384    4.5861   -3.2260   C.3       1 RES1   0.0000
    89 C39      -0.1197    2.2376   -2.1560   C.2       1 RES1   0.0000
    90 O3        0.6482    1.5202   -1.4599   O.2       1 RES1   0.0000
    91 C40      -1.6072    1.9882   -1.9129   C.ar      1 RES1   0.0000
    92 C41      -2.7551    2.5265   -2.5188   C.ar      1 RES1   0.0000
    93 C42      -4.0068    2.0952   -2.1138   C.ar      1 RES1   0.0000
    94 C43      -4.1471    1.1274   -1.1013   C.ar      1 RES1   0.0000
    95 C44      -5.3932    0.6008   -0.6337   C.ar      1 RES1   0.0000
    96 C45      -5.4372   -0.3617    0.3284   C.ar      1 RES1   0.0000
    97 C46      -4.2408   -0.8834    0.9116   C.ar      1 RES1   0.0000
    98 C47      -4.1956   -1.9179    1.8626   C.ar      1 RES1   0.0000
    99 C48      -2.9839   -2.3843    2.3411   C.ar      1 RES1   0.0000
   100 C49      -1.7873   -1.7980    1.8993   C.ar      1 RES1   0.0000
   101 C50      -0.3319   -2.1055    2.2310   C.2       1 RES1   0.0000
   102 O4        0.5003   -1.4879    1.5133   O.2       1 RES1   0.0000
   103 N6        0.1509   -2.9452    3.1440   N.am      1 RES1   0.0000
   104 C51      -0.5200   -3.7065    4.1837   C.3       1 RES1   0.0000
   105 C52      -0.3367   -5.2317    4.1055   C.3       1 RES1   0.0000
   106 C53      -0.8080   -5.8742    2.7998   C.3       1 RES1   0.0000
   107 C54       0.1404   -5.6849    1.6164   C.3       1 RES1   0.0000
   108 C55       1.6054   -3.1201    3.1977   C.3       1 RES1   0.0000
   109 C56       2.3058   -2.3157    4.2982   C.3       1 RES1   0.0000
   110 C57       3.5845   -3.0469    4.7143   C.3       1 RES1   0.0000
   111 C58       4.6262   -2.9832    3.6048   C.3       1 RES1   0.0000
   112 N7       -1.8347   -0.8215    0.9957   N.ar      1 RES1   0.0000
   113 C59      -2.9894   -0.3729    0.4949   C.ar      1 RES1   0.0000
   114 C60      -2.9428    0.6462   -0.5377   C.ar      1 RES1   0.0000
   115 N8       -1.7479    1.0771   -0.9506   N.ar      1 RES1   0.0000
   116 H43       1.7366    1.1153   -6.5539   H         1 RES1   0.0000
   117 H44       0.1656    0.7151   -5.8634   H         1 RES1   0.0000
   118 H45       1.4471    1.3526   -4.8286   H         1 RES1   0.0000
   119 H46       0.1564    2.8404   -7.1601   H         1 RES1   0.0000
   120 H47       1.3194    3.5418   -6.0580   H         1 RES1   0.0000
   121 H48      -1.2722    2.4116   -4.9817   H         1 RES1   0.0000
   122 H49      -1.2836    3.9867   -5.7703   H         1 RES1   0.0000
   123 H50      -1.0592    4.4765   -3.4439   H         1 RES1   0.0000
   124 H51       0.5013    4.7651   -4.1876   H         1 RES1   0.0000
   125 H52       2.2085    3.4579   -4.0182   H         1 RES1   0.0000
   126 H53       2.3223    2.1928   -2.7801   H         1 RES1   0.0000
   127 H54       2.0197    3.9807   -1.0256   H         1 RES1   0.0000
   128 H55       2.1543    5.1994   -2.3045   H         1 RES1   0.0000
   129 H56       4.2909    3.1113   -1.6937   H         1 RES1   0.0000
   130 H57       4.3056    4.7732   -1.1150   H         1 RES1   0.0000
   131 H58       4.4783    3.8694   -4.0269   H         1 RES1   0.0000
   132 H59       5.7092    4.6950   -3.0838   H         1 RES1   0.0000
   133 H60       4.2409    5.5489   -3.5345   H         1 RES1   0.0000
   134 H61      -2.7004    3.2644   -3.2976   H         1 RES1   0.0000
   135 H62      -4.8905    2.5013   -2.5813   H         1 RES1   0.0000
   136 H63      -6.3072    0.9728   -1.0741   H         1 RES1   0.0000
   137 H64      -6.3805   -0.7709    0.6568   H         1 RES1   0.0000
   138 H65      -5.1125   -2.3647    2.2137   H         1 RES1   0.0000
   139 H66      -3.0024   -3.2048    3.0345   H         1 RES1   0.0000
   140 H67      -1.5792   -3.4834    4.1915   H         1 RES1   0.0000
   141 H68      -0.1047   -3.3635    5.1380   H         1 RES1   0.0000
   142 H69      -0.9231   -5.6334    4.9331   H         1 RES1   0.0000
   143 H70       0.6977   -5.5167    4.2972   H         1 RES1   0.0000
   144 H71      -1.7965   -5.4889    2.5451   H         1 RES1   0.0000
   145 H72      -0.9161   -6.9451    2.9692   H         1 RES1   0.0000
   146 H73       0.1682   -4.6488    1.2803   H         1 RES1   0.0000
   147 H74      -0.1880   -6.3023    0.7824   H         1 RES1   0.0000
   148 H75       1.1491   -6.0002    1.8790   H         1 RES1   0.0000
   149 H76       2.0343   -2.8947    2.2199   H         1 RES1   0.0000
   150 H77       1.7661   -4.1751    3.4068   H         1 RES1   0.0000
   151 H78       1.6517   -2.2116    5.1637   H         1 RES1   0.0000
   152 H79       2.5637   -1.3145    3.9495   H         1 RES1   0.0000
   153 H80       3.3566   -4.0893    4.9401   H         1 RES1   0.0000
   154 H81       3.9869   -2.6016    5.6230   H         1 RES1   0.0000
   155 H82       4.2574   -3.4726    2.7051   H         1 RES1   0.0000
   156 H83       5.5472   -3.4726    3.9072   H         1 RES1   0.0000
   157 H84       4.8430   -1.9436    3.3696   H         1 RES1   0.0000
@<TRIPOS>BOND
     1     1    12    1
     2     1    24    1
     3     1    34    1
     4     1    37    1
     5     1    90    1
     6     1   102    1
     7     1   112    1
     8     1   115    1
     9     2     3    1
    10     2    38    1
    11     2    39    1
    12     2    40    1
    13     3     4    1
    14     3    41    1
    15     3    42    1
    16     4     5    1
    17     4    43    1
    18     4    44    1
    19     5     6    1
    20     5    45    1
    21     5    46    1
    22     6     7    1
    23     6    11    1
    24     7     8    1
    25     7    47    1
    26     7    48    1
    27     8     9    1
    28     8    49    1
    29     8    50    1
    30     9    10    1
    31     9    51    1
    32     9    52    1
    33    10    53    1
    34    10    54    1
    35    10    55    1
    36    11    12    2
    37    11    13    1
    38    13    14    1
    39    13    37    2
    40    14    15    2
    41    14    56    1
    42    15    16    1
    43    15    57    1
    44    16    17    1
    45    16    36    2
    46    17    18    2
    47    17    58    1
    48    18    19    1
    49    18    59    1
    50    19    20    1
    51    19    35    2
    52    20    21    2
    53    20    60    1
    54    21    22    1
    55    21    61    1
    56    22    23    1
    57    22    34    2
    58    23    24    2
    59    23    25    1
    60    25    26    1
    61    25    30    1
    62    26    27    1
    63    26    62    1
    64    26    63    1
    65    27    28    1
    66    27    64    1
    67    27    65    1
    68    28    29    1
    69    28    66    1
    70    28    67    1
    71    29    68    1
    72    29    69    1
    73    29    70    1
    74    30    31    1
    75    30    71    1
    76    30    72    1
    77    31    32    1
    78    31    73    1
    79    31    74    1
    80    32    33    1
    81    32    75    1
    82    32    76    1
    83    33    77    1
    84    33    78    1
    85    33    79    1
    86    34    35    1
    87    35    36    1
    88    36    37    1
    89    80    81    1
    90    80   116    1
    91    80   117    1
    92    80   118    1
    93    81    82    1
    94    81   119    1
    95    81   120    1
    96    82    83    1
    97    82   121    1
    98    82   122    1
    99    83    84    1
   100    83   123    1
   101    83   124    1
   102    84    85    1
   103    84    89    1
   104    85    86    1
   105    85   125    1
   106    85   126    1
   107    86    87    1
   108    86   127    1
   109    86   128    1
   110    87    88    1
   111    87   129    1
   112    87   130    1
   113    88   131    1
   114    88   132    1
   115    88   133    1
   116    89    90    2
   117    89    91    1
   118    91    92    1
   119    91   115    2
   120    92    93    2
   121    92   134    1
   122    93    94    1
   123    93   135    1
   124    94    95    1
   125    94   114    2
   126    95    96    2
   127    95   136    1
   128    96    97    1
   129    96   137    1
   130    97    98    1
   131    97   113    2
   132    98    99    2
   133    98   138    1
   134    99   100    1
   135    99   139    1
   136   100   101    1
   137   100   112    2
   138   101   102    2
   139   101   103    1
   140   103   104    1
   141   103   108    1
   142   104   105    1
   143   104   140    1
   144   104   141    1
   145   105   106    1
   146   105   142    1
   147   105   143    1
   148   106   107    1
   149   106   144    1
   150   106   145    1
   151   107   146    1
   152   107   147    1
   153   107   148    1
   154   108   109    1
   155   108   149    1
   156   108   150    1
   157   109   110    1
   158   109   151    1
   159   109   152    1
   160   110   111    1
   161   110   153    1
   162   110   154    1
   163   111   155    1
   164   111   156    1
   165   111   157    1
   166   112   113    1
   167   113   114    1
   168   114   115    1
@<TRIPOS>SUBSTRUCTURE
     1 RES1      157 GROUP             0 ****  ****    0  
