@<TRIPOS>MOLECULE
dodecahedral_0_nunpairedes_0_charge_3 Charge: 3 Unpaired_Electrons: 5 XTB_Unpaired_Electrons: 0 XTB_Charge: 3
   281   284     1     0     0
SMALL
NoCharges
****
Generated from Architector

@<TRIPOS>ATOM
     1 Dy1      -0.1293    0.1237   -0.0634   Dy        1 RES1   0.0000
     2 C1        5.8158   -1.2531    3.4308   C.3       1 RES1   0.0000
     3 C2        6.0470   -0.4402    2.1599   C.3       1 RES1   0.0000
     4 C3        6.1582   -1.3400    0.9235   C.3       1 RES1   0.0000
     5 C4        5.7780   -0.6710   -0.4038   C.3       1 RES1   0.0000
     6 C5        5.4716   -1.7220   -1.4789   C.3       1 RES1   0.0000
     7 C6        4.5317   -1.2422   -2.5985   C.3       1 RES1   0.0000
     8 C7        3.5443   -2.3570   -2.9537   C.3       1 RES1   0.0000
     9 C8        2.7285   -2.1492   -4.2304   C.3       1 RES1   0.0000
    10 C9        1.6632   -3.2403   -4.3987   C.3       1 RES1   0.0000
    11 C10       0.2601   -2.9045   -3.8677   C.3       1 RES1   0.0000
    12 C11      -0.0703   -3.5851   -2.5362   C.3       1 RES1   0.0000
    13 C12      -1.5705   -3.8298   -2.3398   C.3       1 RES1   0.0000
    14 N1       -2.3859   -2.9078   -1.5388   N.am      1 RES1   0.0000
    15 C13      -3.7793   -3.3539   -1.4268   C.3       1 RES1   0.0000
    16 C14      -4.0675   -4.8439   -1.1891   C.3       1 RES1   0.0000
    17 C15      -3.6099   -5.3776    0.1722   C.3       1 RES1   0.0000
    18 C16      -4.2046   -6.7457    0.5282   C.3       1 RES1   0.0000
    19 C17      -3.8866   -7.1687    1.9674   C.3       1 RES1   0.0000
    20 C18      -2.4484   -7.6544    2.1734   C.3       1 RES1   0.0000
    21 C19      -2.0253   -7.6551    3.6464   C.3       1 RES1   0.0000
    22 C20      -0.5374   -7.9575    3.8062   C.3       1 RES1   0.0000
    23 C21      -2.0302   -1.6730   -1.2302   C.2       1 RES1   0.0000
    24 O1       -0.9399   -1.1733   -1.5854   O.2       1 RES1   0.0000
    25 C22      -2.9081   -0.7906   -0.3096   C.3       1 RES1   0.0000
    26 O2       -2.4053    0.5514   -0.2072   O.3       1 RES1   0.0000
    27 C23      -2.8221    1.5209   -1.1857   C.3       1 RES1   0.0000
    28 C24      -1.6033    1.9348   -2.0282   C.2       1 RES1   0.0000
    29 O3       -0.4818    1.4858   -1.6869   O.2       1 RES1   0.0000
    30 N2       -1.7333    2.6586   -3.1270   N.am      1 RES1   0.0000
    31 C25      -0.6704    2.5262   -4.1231   C.3       1 RES1   0.0000
    32 C26      -0.8559    1.2063   -4.8827   C.3       1 RES1   0.0000
    33 C27      -1.9257    1.3648   -5.9690   C.3       1 RES1   0.0000
    34 C28      -2.3870    0.0455   -6.5835   C.3       1 RES1   0.0000
    35 C29      -1.3232   -0.6463   -7.4318   C.3       1 RES1   0.0000
    36 C30      -1.9071   -1.8792   -8.1175   C.3       1 RES1   0.0000
    37 C31      -0.8662   -2.6698   -8.9039   C.3       1 RES1   0.0000
    38 C32      -1.4745   -3.9314   -9.4995   C.3       1 RES1   0.0000
    39 C33      -2.7226    3.7002   -3.3384   C.3       1 RES1   0.0000
    40 C34      -2.0603    5.0901   -3.3761   C.3       1 RES1   0.0000
    41 C35      -1.2611    5.4349   -2.1103   C.3       1 RES1   0.0000
    42 C36       0.0884    6.1097   -2.3898   C.3       1 RES1   0.0000
    43 C37       1.1621    5.1178   -2.8390   C.3       1 RES1   0.0000
    44 C38       2.5767    5.7008   -2.8197   C.3       1 RES1   0.0000
    45 C39       3.6226    4.7777   -3.4638   C.3       1 RES1   0.0000
    46 C40       3.9036    3.4509   -2.7334   C.3       1 RES1   0.0000
    47 C41       5.1218    3.4739   -1.8023   C.3       1 RES1   0.0000
    48 C42       4.9796    4.4255   -0.6174   C.3       1 RES1   0.0000
    49 C43       6.1190    4.2907    0.3920   C.3       1 RES1   0.0000
    50 C44       5.9978    5.3163    1.5112   C.3       1 RES1   0.0000
    51 H1        5.7047   -0.5961    4.2885   H         1 RES1   0.0000
    52 H2        6.6561   -1.9107    3.6271   H         1 RES1   0.0000
    53 H3        4.9193   -1.8698    3.3412   H         1 RES1   0.0000
    54 H4        6.9548    0.1505    2.2719   H         1 RES1   0.0000
    55 H5        5.2180    0.2660    2.0307   H         1 RES1   0.0000
    56 H6        5.4942   -2.1976    1.0703   H         1 RES1   0.0000
    57 H7        7.1715   -1.7314    0.8474   H         1 RES1   0.0000
    58 H8        4.8908   -0.0469   -0.2452   H         1 RES1   0.0000
    59 H9        6.5743   -0.0103   -0.7460   H         1 RES1   0.0000
    60 H10       4.9936   -2.5722   -0.9816   H         1 RES1   0.0000
    61 H11       6.4029   -2.0797   -1.9164   H         1 RES1   0.0000
    62 H12       5.1027   -0.9680   -3.4833   H         1 RES1   0.0000
    63 H13       4.0039   -0.3460   -2.2690   H         1 RES1   0.0000
    64 H14       2.8647   -2.5347   -2.1111   H         1 RES1   0.0000
    65 H15       4.1361   -3.2658   -3.0737   H         1 RES1   0.0000
    66 H16       3.4149   -2.1969   -5.0731   H         1 RES1   0.0000
    67 H17       2.2659   -1.1582   -4.2699   H         1 RES1   0.0000
    68 H18       2.0254   -4.1400   -3.9023   H         1 RES1   0.0000
    69 H19       1.5776   -3.4795   -5.4574   H         1 RES1   0.0000
    70 H20      -0.4583   -3.2545   -4.6094   H         1 RES1   0.0000
    71 H21       0.1271   -1.8260   -3.7817   H         1 RES1   0.0000
    72 H22       0.3864   -3.0545   -1.6976   H         1 RES1   0.0000
    73 H23       0.3756   -4.5792   -2.5752   H         1 RES1   0.0000
    74 H24      -1.6851   -4.7958   -1.8436   H         1 RES1   0.0000
    75 H25      -2.0319   -3.9002   -3.3350   H         1 RES1   0.0000
    76 H26      -4.2624   -3.0696   -2.3677   H         1 RES1   0.0000
    77 H27      -4.2365   -2.7987   -0.6149   H         1 RES1   0.0000
    78 H28      -3.6731   -5.4545   -2.0017   H         1 RES1   0.0000
    79 H29      -5.1569   -4.9194   -1.2356   H         1 RES1   0.0000
    80 H30      -3.9244   -4.6661    0.9401   H         1 RES1   0.0000
    81 H31      -2.5222   -5.4454    0.1883   H         1 RES1   0.0000
    82 H32      -3.8449   -7.5119   -0.1595   H         1 RES1   0.0000
    83 H33      -5.2871   -6.6915    0.4106   H         1 RES1   0.0000
    84 H34      -4.5660   -7.9724    2.2446   H         1 RES1   0.0000
    85 H35      -4.0920   -6.3355    2.6448   H         1 RES1   0.0000
    86 H36      -1.7530   -7.0201    1.6131   H         1 RES1   0.0000
    87 H37      -2.3461   -8.6672    1.7796   H         1 RES1   0.0000
    88 H38      -2.6018   -8.4011    4.1952   H         1 RES1   0.0000
    89 H39      -2.2415   -6.6801    4.0950   H         1 RES1   0.0000
    90 H40      -0.2934   -8.9222    3.3674   H         1 RES1   0.0000
    91 H41      -0.2600   -7.9791    4.8577   H         1 RES1   0.0000
    92 H42       0.0620   -7.1927    3.3105   H         1 RES1   0.0000
    93 H43      -2.8033   -1.1796    0.7158   H         1 RES1   0.0000
    94 H44      -3.9657   -0.7806   -0.5785   H         1 RES1   0.0000
    95 H45      -3.2337    2.3761   -0.6354   H         1 RES1   0.0000
    96 H46      -3.6267    1.1330   -1.8209   H         1 RES1   0.0000
    97 H47       0.3053    2.5779   -3.6366   H         1 RES1   0.0000
    98 H48      -0.7532    3.3601   -4.8138   H         1 RES1   0.0000
    99 H49      -1.1296    0.4139   -4.1742   H         1 RES1   0.0000
   100 H50       0.0899    0.9216   -5.3461   H         1 RES1   0.0000
   101 H51      -1.5218    2.0036   -6.7576   H         1 RES1   0.0000
   102 H52      -2.8047    1.8636   -5.5517   H         1 RES1   0.0000
   103 H53      -3.2496    0.2577   -7.2185   H         1 RES1   0.0000
   104 H54      -2.7164   -0.6274   -5.7839   H         1 RES1   0.0000
   105 H55      -0.4792   -0.9409   -6.8020   H         1 RES1   0.0000
   106 H56      -0.9533    0.0509   -8.1867   H         1 RES1   0.0000
   107 H57      -2.7072   -1.5670   -8.7914   H         1 RES1   0.0000
   108 H58      -2.3556   -2.5298   -7.3602   H         1 RES1   0.0000
   109 H59      -0.0383   -2.9377   -8.2410   H         1 RES1   0.0000
   110 H60      -0.4620   -2.0455   -9.7023   H         1 RES1   0.0000
   111 H61      -1.8696   -4.5733   -8.7155   H         1 RES1   0.0000
   112 H62      -0.7292   -4.4909  -10.0546   H         1 RES1   0.0000
   113 H63      -2.2869   -3.6798  -10.1749   H         1 RES1   0.0000
   114 H64      -3.4512    3.6743   -2.5281   H         1 RES1   0.0000
   115 H65      -3.2313    3.5211   -4.2883   H         1 RES1   0.0000
   116 H66      -2.8657    5.8083   -3.5268   H         1 RES1   0.0000
   117 H67      -1.4096    5.1748   -4.2443   H         1 RES1   0.0000
   118 H68      -1.0680    4.5211   -1.5407   H         1 RES1   0.0000
   119 H69      -1.8613    6.0884   -1.4787   H         1 RES1   0.0000
   120 H70       0.4321    6.5995   -1.4787   H         1 RES1   0.0000
   121 H71      -0.0307    6.8874   -3.1427   H         1 RES1   0.0000
   122 H72       0.9532    4.7845   -3.8559   H         1 RES1   0.0000
   123 H73       1.1286    4.2473   -2.1752   H         1 RES1   0.0000
   124 H74       2.8646    5.9413   -1.7955   H         1 RES1   0.0000
   125 H75       2.5754    6.6343   -3.3844   H         1 RES1   0.0000
   126 H76       4.5608    5.3284   -3.5566   H         1 RES1   0.0000
   127 H77       3.2897    4.5527   -4.4810   H         1 RES1   0.0000
   128 H78       4.0928    2.6816   -3.4881   H         1 RES1   0.0000
   129 H79       3.0176    3.1451   -2.1618   H         1 RES1   0.0000
   130 H80       6.0049    3.7505   -2.3793   H         1 RES1   0.0000
   131 H81       5.2913    2.4578   -1.4312   H         1 RES1   0.0000
   132 H82       4.0223    4.2399   -0.1153   H         1 RES1   0.0000
   133 H83       4.9630    5.4505   -0.9855   H         1 RES1   0.0000
   134 H84       7.0691    4.4363   -0.1213   H         1 RES1   0.0000
   135 H85       6.1295    3.2805    0.8124   H         1 RES1   0.0000
   136 H86       6.0105    6.3226    1.1042   H         1 RES1   0.0000
   137 H87       6.8266    5.2249    2.2052   H         1 RES1   0.0000
   138 H88       5.0703    5.1853    2.0646   H         1 RES1   0.0000
   139 C45      -6.1754   -0.9781   -3.9605   C.3       1 RES1   0.0000
   140 C46      -5.8415   -0.3963   -2.5882   C.3       1 RES1   0.0000
   141 C47      -6.7073   -0.9815   -1.4626   C.3       1 RES1   0.0000
   142 C48      -6.3898   -0.4703   -0.0348   C.3       1 RES1   0.0000
   143 C49      -6.2229   -1.5939    1.0076   C.3       1 RES1   0.0000
   144 C50      -5.3287   -1.2698    2.2280   C.3       1 RES1   0.0000
   145 C51      -4.4829   -2.4922    2.6265   C.3       1 RES1   0.0000
   146 C52      -3.2557   -2.2426    3.5117   C.3       1 RES1   0.0000
   147 C53      -2.4182   -3.5276    3.7100   C.3       1 RES1   0.0000
   148 C54      -0.9538   -3.4744    3.2234   C.3       1 RES1   0.0000
   149 C55      -0.7723   -4.1461    1.8609   C.3       1 RES1   0.0000
   150 C56       0.6568   -4.5260    1.4654   C.3       1 RES1   0.0000
   151 N3        1.6836   -3.4904    1.2638   N.am      1 RES1   0.0000
   152 C57       3.0621   -3.9806    1.2972   C.3       1 RES1   0.0000
   153 C58       3.2995   -5.3453    0.6368   C.3       1 RES1   0.0000
   154 C59       3.0678   -5.4002   -0.8751   C.3       1 RES1   0.0000
   155 C60       3.4087   -6.7859   -1.4396   C.3       1 RES1   0.0000
   156 C61       2.9997   -6.9700   -2.9055   C.3       1 RES1   0.0000
   157 C62       1.5159   -7.2930   -3.0842   C.3       1 RES1   0.0000
   158 C63       1.0986   -7.3561   -4.5547   C.3       1 RES1   0.0000
   159 C64      -0.4079   -7.5382   -4.7146   C.3       1 RES1   0.0000
   160 C65       1.4127   -2.2213    1.0524   C.2       1 RES1   0.0000
   161 O4        0.2515   -1.7973    0.8440   O.2       1 RES1   0.0000
   162 C66       2.5382   -1.1560    1.1044   C.3       1 RES1   0.0000
   163 O5        1.8265    0.0865    1.1182   O.3       1 RES1   0.0000
   164 C67       2.5010    1.3634    1.1282   C.3       1 RES1   0.0000
   165 C68       1.3027    2.2211    1.6024   C.2       1 RES1   0.0000
   166 O6        0.1940    1.9383    1.0928   O.2       1 RES1   0.0000
   167 N4        1.4243    2.9696    2.6920   N.am      1 RES1   0.0000
   168 C69       0.3429    2.9471    3.6735   C.3       1 RES1   0.0000
   169 C70       0.4974    1.6534    4.4884   C.3       1 RES1   0.0000
   170 C71       1.6145    1.7584    5.5317   C.3       1 RES1   0.0000
   171 C72       2.0493    0.3942    6.0712   C.3       1 RES1   0.0000
   172 C73       0.9549   -0.3376    6.8465   C.3       1 RES1   0.0000
   173 C74       1.4472   -1.6891    7.3597   C.3       1 RES1   0.0000
   174 C75       0.3377   -2.4833    8.0448   C.3       1 RES1   0.0000
   175 C76       0.8233   -3.8494    8.5100   C.3       1 RES1   0.0000
   176 C77       2.4340    4.0057    2.7890   C.3       1 RES1   0.0000
   177 C78       1.7801    5.3899    2.6174   C.3       1 RES1   0.0000
   178 C79       0.9235    5.5272    1.3494   C.3       1 RES1   0.0000
   179 C80      -0.4282    6.2235    1.5589   C.3       1 RES1   0.0000
   180 C81      -1.5143    5.3138    2.1385   C.3       1 RES1   0.0000
   181 C82      -2.9258    5.8850    1.9741   C.3       1 RES1   0.0000
   182 C83      -4.0083    5.0467    2.6725   C.3       1 RES1   0.0000
   183 C84      -4.3138    3.6750    2.0409   C.3       1 RES1   0.0000
   184 C85      -5.5600    3.6479    1.1470   C.3       1 RES1   0.0000
   185 C86      -5.4663    4.5463   -0.0827   C.3       1 RES1   0.0000
   186 C87      -6.6385    4.3622   -1.0450   C.3       1 RES1   0.0000
   187 C88      -6.5194    5.2890   -2.2472   C.3       1 RES1   0.0000
   188 H89      -5.4380   -0.6604   -4.6960   H         1 RES1   0.0000
   189 H90      -7.1477   -0.6319   -4.2941   H         1 RES1   0.0000
   190 H91      -6.1846   -2.0654   -3.9348   H         1 RES1   0.0000
   191 H92      -5.9667    0.6872   -2.6400   H         1 RES1   0.0000
   192 H93      -4.7833   -0.6021   -2.3933   H         1 RES1   0.0000
   193 H94      -6.6144   -2.0689   -1.4983   H         1 RES1   0.0000
   194 H95      -7.7447   -0.7493   -1.6918   H         1 RES1   0.0000
   195 H96      -7.1949    0.1841    0.2973   H         1 RES1   0.0000
   196 H97      -5.4907    0.1491   -0.0556   H         1 RES1   0.0000
   197 H98      -5.8120   -2.4759    0.5145   H         1 RES1   0.0000
   198 H99      -7.2139   -1.8745    1.3593   H         1 RES1   0.0000
   199 H100     -5.9586   -0.9730    3.0651   H         1 RES1   0.0000
   200 H101     -4.6742   -0.4235    2.0019   H         1 RES1   0.0000
   201 H102     -4.1070   -2.9430    1.7061   H         1 RES1   0.0000
   202 H103     -5.1299   -3.2204    3.1159   H         1 RES1   0.0000
   203 H104     -3.5749   -1.8672    4.4840   H         1 RES1   0.0000
   204 H105     -2.6475   -1.4745    3.0328   H         1 RES1   0.0000
   205 H106     -2.9132   -4.3468    3.1881   H         1 RES1   0.0000
   206 H107     -2.4144   -3.7865    4.7691   H         1 RES1   0.0000
   207 H108     -0.3297   -4.0015    3.9459   H         1 RES1   0.0000
   208 H109     -0.6004   -2.4432    3.1739   H         1 RES1   0.0000
   209 H110     -1.2567   -3.5605    1.0795   H         1 RES1   0.0000
   210 H111     -1.2779   -5.1106    1.9267   H         1 RES1   0.0000
   211 H112      0.6042   -5.1156    0.5429   H         1 RES1   0.0000
   212 H113      1.0510   -5.1642    2.2618   H         1 RES1   0.0000
   213 H114      3.3873   -4.0509    2.3382   H         1 RES1   0.0000
   214 H115      3.6916   -3.2533    0.7870   H         1 RES1   0.0000
   215 H116      2.7003   -6.1159    1.1172   H         1 RES1   0.0000
   216 H117      4.3462   -5.5924    0.8262   H         1 RES1   0.0000
   217 H118      3.6981   -4.6567   -1.3657   H         1 RES1   0.0000
   218 H119      2.0306   -5.1602   -1.1142   H         1 RES1   0.0000
   219 H120      2.9321   -7.5618   -0.8372   H         1 RES1   0.0000
   220 H121      4.4846   -6.9289   -1.3557   H         1 RES1   0.0000
   221 H122      3.5793   -7.7892   -3.3304   H         1 RES1   0.0000
   222 H123      3.2546   -6.0736   -3.4764   H         1 RES1   0.0000
   223 H124      0.9029   -6.5397   -2.5768   H         1 RES1   0.0000
   224 H125      1.2999   -8.2547   -2.6147   H         1 RES1   0.0000
   225 H126      1.6142   -8.1869   -5.0366   H         1 RES1   0.0000
   226 H127      1.4083   -6.4401   -5.0656   H         1 RES1   0.0000
   227 H128     -0.7388   -8.4472   -4.2180   H         1 RES1   0.0000
   228 H129     -0.9441   -6.6933   -4.2814   H         1 RES1   0.0000
   229 H130     -0.6699   -7.6107   -5.7672   H         1 RES1   0.0000
   230 H131      3.1807   -1.2202    0.2186   H         1 RES1   0.0000
   231 H132      3.1463   -1.2752    2.0123   H         1 RES1   0.0000
   232 H133      2.8836    1.6318    0.1336   H         1 RES1   0.0000
   233 H134      3.3146    1.3840    1.8609   H         1 RES1   0.0000
   234 H135     -0.6277    2.9926    3.1761   H         1 RES1   0.0000
   235 H136      0.4445    3.8130    4.3243   H         1 RES1   0.0000
   236 H137      0.7374    0.8302    3.8031   H         1 RES1   0.0000
   237 H138     -0.4381    1.4217    4.9983   H         1 RES1   0.0000
   238 H139      1.2773    2.3829    6.3598   H         1 RES1   0.0000
   239 H140      2.4869    2.2403    5.0864   H         1 RES1   0.0000
   240 H141      2.9039    0.5444    6.7338   H         1 RES1   0.0000
   241 H142      2.3863   -0.2340    5.2379   H         1 RES1   0.0000
   242 H143      0.0821   -0.5024    6.2072   H         1 RES1   0.0000
   243 H144      0.6380    0.2777    7.6900   H         1 RES1   0.0000
   244 H145      2.2697   -1.5327    8.0587   H         1 RES1   0.0000
   245 H146      1.8410   -2.2694    6.5196   H         1 RES1   0.0000
   246 H147     -0.4974   -2.6104    7.3490   H         1 RES1   0.0000
   247 H148     -0.0305   -1.9168    8.9013   H         1 RES1   0.0000
   248 H149      1.1820   -4.4399    7.6689   H         1 RES1   0.0000
   249 H150      0.0152   -4.3927    8.9901   H         1 RES1   0.0000
   250 H151      1.6341   -3.7412    9.2246   H         1 RES1   0.0000
   251 H152      3.1644    3.8363    1.9964   H         1 RES1   0.0000
   252 H153      2.9307    3.9555    3.7586   H         1 RES1   0.0000
   253 H154      2.5942    6.1136    2.6065   H         1 RES1   0.0000
   254 H155      1.1795    5.6226    3.4946   H         1 RES1   0.0000
   255 H156      0.7299    4.5423    0.9175   H         1 RES1   0.0000
   256 H157      1.4911    6.0826    0.6055   H         1 RES1   0.0000
   257 H158     -0.7758    6.5850    0.5919   H         1 RES1   0.0000
   258 H159     -0.2993    7.0960    2.1968   H         1 RES1   0.0000
   259 H160     -1.3396    5.1571    3.2036   H         1 RES1   0.0000
   260 H161     -1.4706    4.3446    1.6313   H         1 RES1   0.0000
   261 H162     -3.1634    5.9922    0.9144   H         1 RES1   0.0000
   262 H163     -2.9482    6.8827    2.4140   H         1 RES1   0.0000
   263 H164     -4.9326    5.6271    2.6986   H         1 RES1   0.0000
   264 H165     -3.7016    4.8996    3.7119   H         1 RES1   0.0000
   265 H166     -4.4856    2.9554    2.8467   H         1 RES1   0.0000
   266 H167     -3.4452    3.3250    1.4681   H         1 RES1   0.0000
   267 H168     -6.4274    3.9443    1.7379   H         1 RES1   0.0000
   268 H169     -5.7301    2.6152    0.8273   H         1 RES1   0.0000
   269 H170     -4.5294    4.3407   -0.6143   H         1 RES1   0.0000
   270 H171     -5.4374    5.5872    0.2370   H         1 RES1   0.0000
   271 H172     -7.5695    4.5742   -0.5202   H         1 RES1   0.0000
   272 H173     -6.6850    3.3227   -1.3826   H         1 RES1   0.0000
   273 H174     -6.4999    6.3255   -1.9252   H         1 RES1   0.0000
   274 H175     -7.3650    5.1618   -2.9146   H         1 RES1   0.0000
   275 H176     -5.6066    5.0873   -2.8048   H         1 RES1   0.0000
   276 O7       -1.2649    0.1001    2.2622   O.3       1 RES1   0.0000
   277 H177     -1.5075    0.9927    2.5511   H         1 RES1   0.0000
   278 H178     -0.9984   -0.3648    3.0759   H         1 RES1   0.0000
   279 O8        1.7510   -0.0634   -1.7094   O.3       1 RES1   0.0000
   280 H179      1.8954   -0.8212   -2.3097   H         1 RES1   0.0000
   281 H180      1.7440    0.7204   -2.2801   H         1 RES1   0.0000
@<TRIPOS>BOND
     1     1    24    1
     2     1    26    1
     3     1    29    1
     4     1   161    1
     5     1   163    1
     6     1   166    1
     7     1   276    1
     8     1   279    1
     9     2     3    1
    10     2    51    1
    11     2    52    1
    12     2    53    1
    13     3     4    1
    14     3    54    1
    15     3    55    1
    16     4     5    1
    17     4    56    1
    18     4    57    1
    19     5     6    1
    20     5    58    1
    21     5    59    1
    22     6     7    1
    23     6    60    1
    24     6    61    1
    25     7     8    1
    26     7    62    1
    27     7    63    1
    28     8     9    1
    29     8    64    1
    30     8    65    1
    31     9    10    1
    32     9    66    1
    33     9    67    1
    34    10    11    1
    35    10    68    1
    36    10    69    1
    37    11    12    1
    38    11    70    1
    39    11    71    1
    40    12    13    1
    41    12    72    1
    42    12    73    1
    43    13    14    1
    44    13    74    1
    45    13    75    1
    46    14    15    1
    47    14    23    1
    48    15    16    1
    49    15    76    1
    50    15    77    1
    51    16    17    1
    52    16    78    1
    53    16    79    1
    54    17    18    1
    55    17    80    1
    56    17    81    1
    57    18    19    1
    58    18    82    1
    59    18    83    1
    60    19    20    1
    61    19    84    1
    62    19    85    1
    63    20    21    1
    64    20    86    1
    65    20    87    1
    66    21    22    1
    67    21    88    1
    68    21    89    1
    69    22    90    1
    70    22    91    1
    71    22    92    1
    72    23    24    2
    73    23    25    1
    74    25    26    1
    75    25    93    1
    76    25    94    1
    77    26    27    1
    78    27    28    1
    79    27    95    1
    80    27    96    1
    81    28    29    2
    82    28    30    1
    83    30    31    1
    84    30    39    1
    85    31    32    1
    86    31    97    1
    87    31    98    1
    88    32    33    1
    89    32    99    1
    90    32   100    1
    91    33    34    1
    92    33   101    1
    93    33   102    1
    94    34    35    1
    95    34   103    1
    96    34   104    1
    97    35    36    1
    98    35   105    1
    99    35   106    1
   100    36    37    1
   101    36   107    1
   102    36   108    1
   103    37    38    1
   104    37   109    1
   105    37   110    1
   106    38   111    1
   107    38   112    1
   108    38   113    1
   109    39    40    1
   110    39   114    1
   111    39   115    1
   112    40    41    1
   113    40   116    1
   114    40   117    1
   115    41    42    1
   116    41   118    1
   117    41   119    1
   118    42    43    1
   119    42   120    1
   120    42   121    1
   121    43    44    1
   122    43   122    1
   123    43   123    1
   124    44    45    1
   125    44   124    1
   126    44   125    1
   127    45    46    1
   128    45   126    1
   129    45   127    1
   130    46    47    1
   131    46   128    1
   132    46   129    1
   133    47    48    1
   134    47   130    1
   135    47   131    1
   136    48    49    1
   137    48   132    1
   138    48   133    1
   139    49    50    1
   140    49   134    1
   141    49   135    1
   142    50   136    1
   143    50   137    1
   144    50   138    1
   145   139   140    1
   146   139   188    1
   147   139   189    1
   148   139   190    1
   149   140   141    1
   150   140   191    1
   151   140   192    1
   152   141   142    1
   153   141   193    1
   154   141   194    1
   155   142   143    1
   156   142   195    1
   157   142   196    1
   158   143   144    1
   159   143   197    1
   160   143   198    1
   161   144   145    1
   162   144   199    1
   163   144   200    1
   164   145   146    1
   165   145   201    1
   166   145   202    1
   167   146   147    1
   168   146   203    1
   169   146   204    1
   170   147   148    1
   171   147   205    1
   172   147   206    1
   173   148   149    1
   174   148   207    1
   175   148   208    1
   176   149   150    1
   177   149   209    1
   178   149   210    1
   179   150   151    1
   180   150   211    1
   181   150   212    1
   182   151   152    1
   183   151   160    1
   184   152   153    1
   185   152   213    1
   186   152   214    1
   187   153   154    1
   188   153   215    1
   189   153   216    1
   190   154   155    1
   191   154   217    1
   192   154   218    1
   193   155   156    1
   194   155   219    1
   195   155   220    1
   196   156   157    1
   197   156   221    1
   198   156   222    1
   199   157   158    1
   200   157   223    1
   201   157   224    1
   202   158   159    1
   203   158   225    1
   204   158   226    1
   205   159   227    1
   206   159   228    1
   207   159   229    1
   208   160   161    2
   209   160   162    1
   210   162   163    1
   211   162   230    1
   212   162   231    1
   213   163   164    1
   214   164   165    1
   215   164   232    1
   216   164   233    1
   217   165   166    2
   218   165   167    1
   219   167   168    1
   220   167   176    1
   221   168   169    1
   222   168   234    1
   223   168   235    1
   224   169   170    1
   225   169   236    1
   226   169   237    1
   227   170   171    1
   228   170   238    1
   229   170   239    1
   230   171   172    1
   231   171   240    1
   232   171   241    1
   233   172   173    1
   234   172   242    1
   235   172   243    1
   236   173   174    1
   237   173   244    1
   238   173   245    1
   239   174   175    1
   240   174   246    1
   241   174   247    1
   242   175   248    1
   243   175   249    1
   244   175   250    1
   245   176   177    1
   246   176   251    1
   247   176   252    1
   248   177   178    1
   249   177   253    1
   250   177   254    1
   251   178   179    1
   252   178   255    1
   253   178   256    1
   254   179   180    1
   255   179   257    1
   256   179   258    1
   257   180   181    1
   258   180   259    1
   259   180   260    1
   260   181   182    1
   261   181   261    1
   262   181   262    1
   263   182   183    1
   264   182   263    1
   265   182   264    1
   266   183   184    1
   267   183   265    1
   268   183   266    1
   269   184   185    1
   270   184   267    1
   271   184   268    1
   272   185   186    1
   273   185   269    1
   274   185   270    1
   275   186   187    1
   276   186   271    1
   277   186   272    1
   278   187   273    1
   279   187   274    1
   280   187   275    1
   281   276   277    1
   282   276   278    1
   283   279   280    1
   284   279   281    1
@<TRIPOS>SUBSTRUCTURE
     1 RES1      281 GROUP             0 ****  ****    0  
