@<TRIPOS>MOLECULE
YEMSEP_geometry_0_nunpairedes_0_charge_3 Charge: 3 Unpaired_Electrons: 5 XTB_Unpaired_Electrons: 0 XTB_Charge: 3
   437   440     1     0     0
SMALL
NoCharges
****
Generated from Architector

@<TRIPOS>ATOM
     1 Dy1       0.1555    0.1347    0.0909   Dy        1 RES1   0.0000
     2 C1       -0.5465   -3.3528    9.3079   C.3       1 RES1   0.0000
     3 C2       -1.5369   -3.7989    8.2429   C.3       1 RES1   0.0000
     4 C3       -0.8478   -4.5828    7.1278   C.3       1 RES1   0.0000
     5 C4       -1.7966   -4.9649    5.9881   C.3       1 RES1   0.0000
     6 C5       -1.0644   -5.0539    4.6495   C.3       1 RES1   0.0000
     7 C6       -1.9173   -5.6536    3.5340   C.3       1 RES1   0.0000
     8 C7       -1.5613   -5.1509    2.1325   C.3       1 RES1   0.0000
     9 C8       -2.0108   -3.7055    1.8527   C.3       1 RES1   0.0000
    10 N1       -2.3374   -3.5334    0.4448   N.am      1 RES1   0.0000
    11 C9       -3.6219   -4.0424    0.0056   C.3       1 RES1   0.0000
    12 C10      -4.7405   -3.0120    0.2120   C.3       1 RES1   0.0000
    13 C11      -4.7468   -1.7038   -0.5969   C.3       1 RES1   0.0000
    14 C12      -3.8381   -0.5787   -0.0784   C.3       1 RES1   0.0000
    15 C13      -4.3369    0.8070   -0.5074   C.3       1 RES1   0.0000
    16 C14      -3.5332    1.9323    0.1499   C.3       1 RES1   0.0000
    17 C15      -3.8455    3.3343   -0.3858   C.3       1 RES1   0.0000
    18 C16      -3.7637    4.4006    0.7035   C.3       1 RES1   0.0000
    19 C17      -1.5668   -2.7344   -0.3005   C.2       1 RES1   0.0000
    20 O1       -0.7864   -1.9178    0.2144   O.2       1 RES1   0.0000
    21 C18      -1.6632   -2.9220   -1.8088   C.3       1 RES1   0.0000
    22 C19      -0.4059   -2.4098   -2.5147   C.2       1 RES1   0.0000
    23 O2        0.0594   -1.3132   -2.1791   O.2       1 RES1   0.0000
    24 N2        0.1177   -3.1528   -3.5049   N.am      1 RES1   0.0000
    25 C20      -0.3937   -4.4921   -3.8240   C.3       1 RES1   0.0000
    26 C21       0.5074   -5.4221   -4.6433   C.3       1 RES1   0.0000
    27 C22      -0.0024   -6.8687   -4.5259   C.3       1 RES1   0.0000
    28 C23       0.4605   -7.5289   -3.2276   C.3       1 RES1   0.0000
    29 C24      -0.0339   -8.9636   -3.0578   C.3       1 RES1   0.0000
    30 C25       0.4281   -9.5470   -1.7213   C.3       1 RES1   0.0000
    31 C26       0.1108  -11.0335   -1.5361   C.3       1 RES1   0.0000
    32 C27      -1.3784  -11.3066   -1.3598   C.3       1 RES1   0.0000
    33 C28       1.2301   -2.6241   -4.2899   C.3       1 RES1   0.0000
    34 C29       0.8707   -2.2444   -5.7415   C.3       1 RES1   0.0000
    35 C30       0.6606   -0.7390   -5.9024   C.3       1 RES1   0.0000
    36 C31       0.6528   -0.2378   -7.3524   C.3       1 RES1   0.0000
    37 C32      -0.6537   -0.4232   -8.1309   C.3       1 RES1   0.0000
    38 C33      -0.7772    0.6508   -9.2167   C.3       1 RES1   0.0000
    39 C34      -2.0835    0.6109  -10.0094   C.3       1 RES1   0.0000
    40 C35      -3.2915    1.0702   -9.2031   C.3       1 RES1   0.0000
    41 H1       -1.0296   -2.7155   10.0430   H         1 RES1   0.0000
    42 H2        0.2704   -2.7947    8.8562   H         1 RES1   0.0000
    43 H3       -0.1253   -4.2066    9.8276   H         1 RES1   0.0000
    44 H4       -2.0237   -2.9186    7.8120   H         1 RES1   0.0000
    45 H5       -2.3182   -4.4100    8.6985   H         1 RES1   0.0000
    46 H6       -0.3900   -5.4813    7.5458   H         1 RES1   0.0000
    47 H7       -0.0388   -3.9649    6.7245   H         1 RES1   0.0000
    48 H8       -2.5904   -4.2191    5.9126   H         1 RES1   0.0000
    49 H9       -2.2670   -5.9213    6.2088   H         1 RES1   0.0000
    50 H10      -0.1755   -5.6704    4.7780   H         1 RES1   0.0000
    51 H11      -0.7327   -4.0516    4.3691   H         1 RES1   0.0000
    52 H12      -2.9661   -5.4447    3.7308   H         1 RES1   0.0000
    53 H13      -1.8078   -6.7334    3.5461   H         1 RES1   0.0000
    54 H14      -2.0521   -5.8039    1.4071   H         1 RES1   0.0000
    55 H15      -0.4828   -5.2343    1.9728   H         1 RES1   0.0000
    56 H16      -1.2103   -2.9922    2.0568   H         1 RES1   0.0000
    57 H17      -2.8847   -3.4526    2.4626   H         1 RES1   0.0000
    58 H18      -3.8639   -4.9095    0.6235   H         1 RES1   0.0000
    59 H19      -3.5819   -4.3686   -1.0319   H         1 RES1   0.0000
    60 H20      -4.7651   -2.7512    1.2716   H         1 RES1   0.0000
    61 H21      -5.6661   -3.5442   -0.0172   H         1 RES1   0.0000
    62 H22      -5.7714   -1.3331   -0.5292   H         1 RES1   0.0000
    63 H23      -4.5589   -1.8921   -1.6549   H         1 RES1   0.0000
    64 H24      -2.8016   -0.6758   -0.4334   H         1 RES1   0.0000
    65 H25      -3.8112   -0.6210    1.0112   H         1 RES1   0.0000
    66 H26      -5.3823    0.9162   -0.2156   H         1 RES1   0.0000
    67 H27      -4.2967    0.8828   -1.5932   H         1 RES1   0.0000
    68 H28      -2.4532    1.7233    0.0541   H         1 RES1   0.0000
    69 H29      -3.7775    1.9315    1.2098   H         1 RES1   0.0000
    70 H30      -4.8450    3.3529   -0.8204   H         1 RES1   0.0000
    71 H31      -3.1359    3.5823   -1.1730   H         1 RES1   0.0000
    72 H32      -4.5529    4.2534    1.4397   H         1 RES1   0.0000
    73 H33      -3.8896    5.3940    0.2772   H         1 RES1   0.0000
    74 H34      -2.8004    4.3600    1.2102   H         1 RES1   0.0000
    75 H35      -2.4961   -2.3255   -2.1961   H         1 RES1   0.0000
    76 H36      -1.8662   -3.9692   -2.0168   H         1 RES1   0.0000
    77 H37      -1.3504   -4.3876   -4.3512   H         1 RES1   0.0000
    78 H38      -0.5685   -5.0120   -2.8769   H         1 RES1   0.0000
    79 H39       1.5314   -5.3960   -4.2680   H         1 RES1   0.0000
    80 H40       0.5152   -5.1148   -5.6897   H         1 RES1   0.0000
    81 H41       0.3899   -7.4447   -5.3649   H         1 RES1   0.0000
    82 H42      -1.0920   -6.8889   -4.6025   H         1 RES1   0.0000
    83 H43       0.1302   -6.9415   -2.3649   H         1 RES1   0.0000
    84 H44       1.5515   -7.5356   -3.2207   H         1 RES1   0.0000
    85 H45       0.3532   -9.5773   -3.8703   H         1 RES1   0.0000
    86 H46      -1.1216   -8.9835   -3.1142   H         1 RES1   0.0000
    87 H47      -0.0366   -8.9890   -0.9042   H         1 RES1   0.0000
    88 H48       1.5093   -9.4106   -1.6332   H         1 RES1   0.0000
    89 H49       0.6405  -11.3854   -0.6467   H         1 RES1   0.0000
    90 H50       0.4909  -11.5971   -2.3901   H         1 RES1   0.0000
    91 H51      -1.7725  -10.7306   -0.5250   H         1 RES1   0.0000
    92 H52      -1.5406  -12.3593   -1.1465   H         1 RES1   0.0000
    93 H53      -1.9287  -11.0461   -2.2590   H         1 RES1   0.0000
    94 H54       2.0334   -3.3635   -4.2991   H         1 RES1   0.0000
    95 H55       1.5930   -1.7431   -3.7542   H         1 RES1   0.0000
    96 H56      -0.0199   -2.7802   -6.0665   H         1 RES1   0.0000
    97 H57       1.6901   -2.5619   -6.3885   H         1 RES1   0.0000
    98 H58       1.4699   -0.2311   -5.3734   H         1 RES1   0.0000
    99 H59      -0.2650   -0.4493   -5.4048   H         1 RES1   0.0000
   100 H60       1.4689   -0.7085   -7.9031   H         1 RES1   0.0000
   101 H61       0.8626    0.8346   -7.3249   H         1 RES1   0.0000
   102 H62      -1.4980   -0.3475   -7.4448   H         1 RES1   0.0000
   103 H63      -0.6912   -1.4120   -8.5900   H         1 RES1   0.0000
   104 H64       0.0599    0.5363   -9.9081   H         1 RES1   0.0000
   105 H65      -0.6840    1.6397   -8.7540   H         1 RES1   0.0000
   106 H66      -2.2497   -0.3980  -10.3900   H         1 RES1   0.0000
   107 H67      -1.9718    1.2728  -10.8692   H         1 RES1   0.0000
   108 H68      -3.4614    0.4344   -8.3370   H         1 RES1   0.0000
   109 H69      -4.1850    1.0448   -9.8185   H         1 RES1   0.0000
   110 H70      -3.1519    2.0929   -8.8601   H         1 RES1   0.0000
   111 C36       0.6446    5.8258   -7.3030   C.3       1 RES1   0.0000
   112 C37       1.9953    5.1549   -7.5363   C.3       1 RES1   0.0000
   113 C38       1.9804    3.7277   -6.9908   C.3       1 RES1   0.0000
   114 C39       3.3445    3.0441   -6.8922   C.3       1 RES1   0.0000
   115 C40       3.2520    1.7516   -6.0705   C.3       1 RES1   0.0000
   116 C41       4.5506    1.3425   -5.3763   C.3       1 RES1   0.0000
   117 C42       4.3549    0.3693   -4.2035   C.3       1 RES1   0.0000
   118 C43       3.7508    1.0415   -2.9551   C.3       1 RES1   0.0000
   119 N3        4.2525    0.4599   -1.7141   N.am      1 RES1   0.0000
   120 C44       5.5765    0.8732   -1.2810   C.3       1 RES1   0.0000
   121 C45       5.5556    2.1858   -0.4845   C.3       1 RES1   0.0000
   122 C46       4.9199    2.1642    0.9110   C.3       1 RES1   0.0000
   123 C47       3.3895    2.2666    0.9697   C.3       1 RES1   0.0000
   124 C48       2.9287    2.8502    2.3044   C.3       1 RES1   0.0000
   125 C49       1.4323    3.1528    2.3029   C.3       1 RES1   0.0000
   126 C50       0.9202    3.7282    3.6290   C.3       1 RES1   0.0000
   127 C51      -0.1310    4.8089    3.4077   C.3       1 RES1   0.0000
   128 C52       3.3931   -0.2008   -0.9344   C.2       1 RES1   0.0000
   129 O3        2.1656   -0.1183   -1.1084   O.2       1 RES1   0.0000
   130 C53       3.9732   -1.1181    0.1373   C.3       1 RES1   0.0000
   131 C54       2.9714   -2.2200    0.4982   C.2       1 RES1   0.0000
   132 O4        1.8073   -1.9016    0.7770   O.2       1 RES1   0.0000
   133 N4        3.4203   -3.4805    0.5610   N.am      1 RES1   0.0000
   134 C55       4.7262   -3.8734    0.0206   C.3       1 RES1   0.0000
   135 C56       4.8364   -5.2938   -0.5352   C.3       1 RES1   0.0000
   136 C57       6.1120   -5.4189   -1.3849   C.3       1 RES1   0.0000
   137 C58       5.9532   -4.7768   -2.7636   C.3       1 RES1   0.0000
   138 C59       7.2212   -4.8464   -3.6115   C.3       1 RES1   0.0000
   139 C60       6.9885   -4.2682   -5.0094   C.3       1 RES1   0.0000
   140 C61       8.1442   -4.4970   -5.9876   C.3       1 RES1   0.0000
   141 C62       9.3809   -3.6696   -5.6606   C.3       1 RES1   0.0000
   142 C63       2.5710   -4.5242    1.1321   C.3       1 RES1   0.0000
   143 C64       3.1397   -5.1785    2.4089   C.3       1 RES1   0.0000
   144 C65       2.4655   -4.6880    3.6931   C.3       1 RES1   0.0000
   145 C66       2.6892   -5.6101    4.9102   C.3       1 RES1   0.0000
   146 C67       3.7575   -5.1491    5.9206   C.3       1 RES1   0.0000
   147 C68       3.1777   -5.0134    7.3328   C.3       1 RES1   0.0000
   148 C69       4.1916   -4.5971    8.4024   C.3       1 RES1   0.0000
   149 C70       4.5544   -3.1178    8.3471   C.3       1 RES1   0.0000
   150 H71       0.6418    6.8423   -7.6889   H         1 RES1   0.0000
   151 H72       0.4221    5.8717   -6.2352   H         1 RES1   0.0000
   152 H73      -0.1529    5.2728   -7.7951   H         1 RES1   0.0000
   153 H74       2.7699    5.7389   -7.0361   H         1 RES1   0.0000
   154 H75       2.2244    5.1560   -8.6020   H         1 RES1   0.0000
   155 H76       1.3075    3.1265   -7.6075   H         1 RES1   0.0000
   156 H77       1.5605    3.7730   -5.9800   H         1 RES1   0.0000
   157 H78       4.0485    3.7315   -6.4235   H         1 RES1   0.0000
   158 H79       3.7295    2.8217   -7.8849   H         1 RES1   0.0000
   159 H80       2.9458    0.9347   -6.7211   H         1 RES1   0.0000
   160 H81       2.4725    1.8830   -5.3119   H         1 RES1   0.0000
   161 H82       5.2131    0.8740   -6.1011   H         1 RES1   0.0000
   162 H83       5.0557    2.2334   -5.0150   H         1 RES1   0.0000
   163 H84       5.3263   -0.0550   -3.9433   H         1 RES1   0.0000
   164 H85       3.7165   -0.4605   -4.5212   H         1 RES1   0.0000
   165 H86       2.6697    0.8988   -2.9298   H         1 RES1   0.0000
   166 H87       3.9723    2.1112   -2.9729   H         1 RES1   0.0000
   167 H88       6.1860    1.0507   -2.1711   H         1 RES1   0.0000
   168 H89       6.0550    0.0880   -0.6967   H         1 RES1   0.0000
   169 H90       5.0706    2.9583   -1.0828   H         1 RES1   0.0000
   170 H91       6.5978    2.4875   -0.3647   H         1 RES1   0.0000
   171 H92       5.2998    3.0479    1.4248   H         1 RES1   0.0000
   172 H93       5.2800    1.3039    1.4771   H         1 RES1   0.0000
   173 H94       2.8766    1.3000    0.8447   H         1 RES1   0.0000
   174 H95       3.0419    2.9166    0.1668   H         1 RES1   0.0000
   175 H96       3.4619    3.7792    2.4879   H         1 RES1   0.0000
   176 H97       3.1910    2.1624    3.1063   H         1 RES1   0.0000
   177 H98       0.8616    2.2444    2.0173   H         1 RES1   0.0000
   178 H99       1.2473    3.8981    1.5294   H         1 RES1   0.0000
   179 H100      1.7530    4.1497    4.1913   H         1 RES1   0.0000
   180 H101      0.4888    2.9316    4.2310   H         1 RES1   0.0000
   181 H102      0.2879    5.6387    2.8406   H         1 RES1   0.0000
   182 H103     -0.4826    5.2055    4.3555   H         1 RES1   0.0000
   183 H104     -0.9784    4.4045    2.8591   H         1 RES1   0.0000
   184 H105      4.1505   -0.5745    1.0722   H         1 RES1   0.0000
   185 H106      4.9317   -1.5097   -0.1845   H         1 RES1   0.0000
   186 H107      5.4956   -3.7293    0.7883   H         1 RES1   0.0000
   187 H108      4.9491   -3.2179   -0.8239   H         1 RES1   0.0000
   188 H109      3.9783   -5.5132   -1.1716   H         1 RES1   0.0000
   189 H110      4.8642   -6.0178    0.2777   H         1 RES1   0.0000
   190 H111      6.3298   -6.4785   -1.5197   H         1 RES1   0.0000
   191 H112      6.9614   -4.9783   -0.8559   H         1 RES1   0.0000
   192 H113      5.6516   -3.7297   -2.6707   H         1 RES1   0.0000
   193 H114      5.1499   -5.2979   -3.2877   H         1 RES1   0.0000
   194 H115      7.5321   -5.8864   -3.7008   H         1 RES1   0.0000
   195 H116      8.0212   -4.2991   -3.1120   H         1 RES1   0.0000
   196 H117      6.8071   -3.1926   -4.9321   H         1 RES1   0.0000
   197 H118      6.0887   -4.7215   -5.4335   H         1 RES1   0.0000
   198 H119      7.8014   -4.2280   -6.9902   H         1 RES1   0.0000
   199 H120      8.4058   -5.5564   -6.0035   H         1 RES1   0.0000
   200 H121      9.1346   -2.6103   -5.6296   H         1 RES1   0.0000
   201 H122     10.1405   -3.8129   -6.4242   H         1 RES1   0.0000
   202 H123      9.8025   -3.9570   -4.7018   H         1 RES1   0.0000
   203 H124      2.4200   -5.3011    0.3793   H         1 RES1   0.0000
   204 H125      1.5986   -4.0659    1.3312   H         1 RES1   0.0000
   205 H126      4.2146   -5.0108    2.4710   H         1 RES1   0.0000
   206 H127      2.9917   -6.2553    2.3321   H         1 RES1   0.0000
   207 H128      1.3927   -4.6099    3.5025   H         1 RES1   0.0000
   208 H129      2.8198   -3.6819    3.9145   H         1 RES1   0.0000
   209 H130      2.9287   -6.6139    4.5584   H         1 RES1   0.0000
   210 H131      1.7487   -5.6947    5.4566   H         1 RES1   0.0000
   211 H132      4.1778   -4.1960    5.6005   H         1 RES1   0.0000
   212 H133      4.5745   -5.8719    5.9565   H         1 RES1   0.0000
   213 H134      2.7544   -5.9781    7.6177   H         1 RES1   0.0000
   214 H135      2.3567   -4.2879    7.3280   H         1 RES1   0.0000
   215 H136      5.0948   -5.2051    8.3091   H         1 RES1   0.0000
   216 H137      3.7542   -4.8065    9.3801   H         1 RES1   0.0000
   217 H138      5.0582   -2.8626    7.4173   H         1 RES1   0.0000
   218 H139      5.2143   -2.8579    9.1696   H         1 RES1   0.0000
   219 H140      3.6549   -2.5101    8.4345   H         1 RES1   0.0000
   220 C71       6.9391    4.0777    5.1549   C.3       1 RES1   0.0000
   221 C72       6.8751    4.8042    3.8152   C.3       1 RES1   0.0000
   222 C73       5.5088    5.4602    3.5969   C.3       1 RES1   0.0000
   223 C74       5.3252    5.9442    2.1581   C.3       1 RES1   0.0000
   224 C75       3.8906    6.3390    1.7750   C.3       1 RES1   0.0000
   225 C76       3.6696    6.0253    0.2931   C.3       1 RES1   0.0000
   226 C77       2.3298    6.5139   -0.2791   C.3       1 RES1   0.0000
   227 C78       1.3468    5.4654   -0.8301   C.3       1 RES1   0.0000
   228 N5        1.6790    4.4837   -1.8812   N.am      1 RES1   0.0000
   229 C79       2.2283    4.9676   -3.1539   C.3       1 RES1   0.0000
   230 C80       3.5096    5.7990   -2.9754   C.3       1 RES1   0.0000
   231 C81       4.6024    5.5830   -4.0351   C.3       1 RES1   0.0000
   232 C82       5.6731    4.6192   -3.5213   C.3       1 RES1   0.0000
   233 C83       6.8409    4.3775   -4.4809   C.3       1 RES1   0.0000
   234 C84       7.6766    3.1753   -4.0252   C.3       1 RES1   0.0000
   235 C85       8.8383    2.8431   -4.9593   C.3       1 RES1   0.0000
   236 C86       9.4500    1.4881   -4.6271   C.3       1 RES1   0.0000
   237 C87       1.0480    3.2822   -1.8070   C.2       1 RES1   0.0000
   238 O5        0.8544    2.6884   -0.7348   O.2       1 RES1   0.0000
   239 C88       0.5211    2.7233   -3.1341   C.3       1 RES1   0.0000
   240 C89      -0.6929    1.7965   -2.9643   C.2       1 RES1   0.0000
   241 O6       -0.9141    1.2068   -1.8855   O.2       1 RES1   0.0000
   242 N6       -1.5092    1.6507   -4.0156   N.am      1 RES1   0.0000
   243 C90      -1.3551    2.2715   -5.3280   C.3       1 RES1   0.0000
   244 C91      -2.4922    3.1933   -5.7971   C.3       1 RES1   0.0000
   245 C92      -2.5638    4.5621   -5.1225   C.3       1 RES1   0.0000
   246 C93      -3.1943    4.4932   -3.7359   C.3       1 RES1   0.0000
   247 C94      -3.2905    5.8441   -3.0258   C.3       1 RES1   0.0000
   248 C95      -1.9313    6.3543   -2.5524   C.3       1 RES1   0.0000
   249 C96      -2.0387    7.5877   -1.6542   C.3       1 RES1   0.0000
   250 C97      -2.6102    8.8027   -2.3766   C.3       1 RES1   0.0000
   251 C98      -2.7262    0.8565   -3.7827   C.3       1 RES1   0.0000
   252 C99      -3.3253    0.0807   -4.9609   C.3       1 RES1   0.0000
   253 C100     -2.9902   -1.4076   -5.0373   C.3       1 RES1   0.0000
   254 C101     -3.7075   -2.0163   -6.2381   C.3       1 RES1   0.0000
   255 C102     -3.2655   -3.4340   -6.5742   C.3       1 RES1   0.0000
   256 C103     -3.9753   -3.9363   -7.8328   C.3       1 RES1   0.0000
   257 C104     -3.5059   -3.2809   -9.1347   C.3       1 RES1   0.0000
   258 C105     -2.1840   -3.8620   -9.6251   C.3       1 RES1   0.0000
   259 H141      7.9183    3.6257    5.2987   H         1 RES1   0.0000
   260 H142      6.1868    3.2906    5.1968   H         1 RES1   0.0000
   261 H143      6.7595    4.7685    5.9750   H         1 RES1   0.0000
   262 H144      7.0599    4.0872    3.0084   H         1 RES1   0.0000
   263 H145      7.6627    5.5559    3.7662   H         1 RES1   0.0000
   264 H146      5.3825    6.2856    4.2974   H         1 RES1   0.0000
   265 H147      4.7444    4.7135    3.8299   H         1 RES1   0.0000
   266 H148      5.6545    5.1394    1.4936   H         1 RES1   0.0000
   267 H149      5.9886    6.7893    1.9724   H         1 RES1   0.0000
   268 H150      3.7296    7.3984    1.9578   H         1 RES1   0.0000
   269 H151      3.1600    5.8072    2.3863   H         1 RES1   0.0000
   270 H152      3.7593    4.9491    0.1557   H         1 RES1   0.0000
   271 H153      4.4939    6.4969   -0.2469   H         1 RES1   0.0000
   272 H154      2.5000    7.2871   -1.0247   H         1 RES1   0.0000
   273 H155      1.7649    6.9865    0.5292   H         1 RES1   0.0000
   274 H156      0.4990    6.0565   -1.2059   H         1 RES1   0.0000
   275 H157      0.9822    4.8635    0.0012   H         1 RES1   0.0000
   276 H158      1.4831    5.5686   -3.6874   H         1 RES1   0.0000
   277 H159      2.4734    4.0905   -3.7557   H         1 RES1   0.0000
   278 H160      3.9459    5.5403   -2.0182   H         1 RES1   0.0000
   279 H161      3.2492    6.8563   -2.9489   H         1 RES1   0.0000
   280 H162      5.0699    6.5433   -4.2515   H         1 RES1   0.0000
   281 H163      4.1822    5.2073   -4.9648   H         1 RES1   0.0000
   282 H164      5.1997    3.6600   -3.2990   H         1 RES1   0.0000
   283 H165      6.0787    5.0076   -2.5861   H         1 RES1   0.0000
   284 H166      7.4685    5.2699   -4.5232   H         1 RES1   0.0000
   285 H167      6.4590    4.1986   -5.4909   H         1 RES1   0.0000
   286 H168      7.0235    2.2972   -3.9833   H         1 RES1   0.0000
   287 H169      8.0666    3.3476   -3.0188   H         1 RES1   0.0000
   288 H170      9.6000    3.6200   -4.8930   H         1 RES1   0.0000
   289 H171      8.4801    2.8229   -5.9888   H         1 RES1   0.0000
   290 H172      9.8042    1.4644   -3.6003   H         1 RES1   0.0000
   291 H173     10.2904    1.2761   -5.2808   H         1 RES1   0.0000
   292 H174      8.7184    0.6942   -4.7579   H         1 RES1   0.0000
   293 H175      1.2955    2.1665   -3.6707   H         1 RES1   0.0000
   294 H176      0.2232    3.5799   -3.7442   H         1 RES1   0.0000
   295 H177     -1.2556    1.4704   -6.0652   H         1 RES1   0.0000
   296 H178     -0.4317    2.8401   -5.3696   H         1 RES1   0.0000
   297 H179     -3.4603    2.7071   -5.6917   H         1 RES1   0.0000
   298 H180     -2.3197    3.3507   -6.8626   H         1 RES1   0.0000
   299 H181     -3.1718    5.2230   -5.7419   H         1 RES1   0.0000
   300 H182     -1.5687    5.0035   -5.0616   H         1 RES1   0.0000
   301 H183     -2.6120    3.8099   -3.1122   H         1 RES1   0.0000
   302 H184     -4.2044    4.0894   -3.8339   H         1 RES1   0.0000
   303 H185     -3.9444    5.7388   -2.1560   H         1 RES1   0.0000
   304 H186     -3.7440    6.5732   -3.6970   H         1 RES1   0.0000
   305 H187     -1.3141    6.6000   -3.4196   H         1 RES1   0.0000
   306 H188     -1.4346    5.5525   -1.9924   H         1 RES1   0.0000
   307 H189     -1.0428    7.8392   -1.2795   H         1 RES1   0.0000
   308 H190     -2.6628    7.3504   -0.7890   H         1 RES1   0.0000
   309 H191     -2.0538    9.0080   -3.2896   H         1 RES1   0.0000
   310 H192     -2.5471    9.6799   -1.7370   H         1 RES1   0.0000
   311 H193     -3.6531    8.6466   -2.6388   H         1 RES1   0.0000
   312 H194     -3.4825    1.5578   -3.4114   H         1 RES1   0.0000
   313 H195     -2.4741    0.1666   -2.9731   H         1 RES1   0.0000
   314 H196     -3.0586    0.5460   -5.9063   H         1 RES1   0.0000
   315 H197     -4.4105    0.1547   -4.8727   H         1 RES1   0.0000
   316 H198     -3.3158   -1.9135   -4.1253   H         1 RES1   0.0000
   317 H199     -1.9159   -1.5667   -5.1383   H         1 RES1   0.0000
   318 H200     -3.5240   -1.3894   -7.1084   H         1 RES1   0.0000
   319 H201     -4.7842   -2.0148   -6.0578   H         1 RES1   0.0000
   320 H202     -3.5017   -4.1017   -5.7424   H         1 RES1   0.0000
   321 H203     -2.1837   -3.4579   -6.7232   H         1 RES1   0.0000
   322 H204     -5.0443   -3.7622   -7.7023   H         1 RES1   0.0000
   323 H205     -3.8271   -5.0133   -7.9214   H         1 RES1   0.0000
   324 H206     -3.4056   -2.2015   -9.0125   H         1 RES1   0.0000
   325 H207     -4.2692   -3.4452   -9.8965   H         1 RES1   0.0000
   326 H208     -1.4088   -3.7595   -8.8655   H         1 RES1   0.0000
   327 H209     -1.8500   -3.3554  -10.5292   H         1 RES1   0.0000
   328 H210     -2.3023   -4.9169   -9.8613   H         1 RES1   0.0000
   329 C106     -8.7959    0.3102   -3.0395   C.3       1 RES1   0.0000
   330 C107     -8.9314   -0.1424   -1.5886   C.3       1 RES1   0.0000
   331 C108     -8.3409    0.8701   -0.6040   C.3       1 RES1   0.0000
   332 C109     -8.2350    0.2925    0.8087   C.3       1 RES1   0.0000
   333 C110     -7.3936    1.1393    1.7865   C.3       1 RES1   0.0000
   334 C111     -6.3869    0.2437    2.5146   C.3       1 RES1   0.0000
   335 C112     -5.6447    0.9154    3.6818   C.3       1 RES1   0.0000
   336 C113     -4.1046    0.8503    3.7147   C.3       1 RES1   0.0000
   337 N7       -3.3358   -0.4107    3.7115   N.am      1 RES1   0.0000
   338 C114     -3.6874   -1.3631    4.7656   C.3       1 RES1   0.0000
   339 C115     -5.0752   -1.9813    4.5146   C.3       1 RES1   0.0000
   340 C116     -5.1098   -3.5098    4.4886   C.3       1 RES1   0.0000
   341 C117     -6.4952   -4.0194    4.0855   C.3       1 RES1   0.0000
   342 C118     -6.5565   -5.5429    3.9513   C.3       1 RES1   0.0000
   343 C119     -5.8148   -6.0724    2.7209   C.3       1 RES1   0.0000
   344 C120     -5.9176   -7.5882    2.5521   C.3       1 RES1   0.0000
   345 C121     -5.0261   -8.1071    1.4266   C.3       1 RES1   0.0000
   346 C122     -2.0932   -0.3665    3.1590   C.2       1 RES1   0.0000
   347 O7       -1.8391    0.2421    2.1106   O.2       1 RES1   0.0000
   348 C123     -1.0015   -1.0637    3.9755   C.3       1 RES1   0.0000
   349 C124      0.4229   -0.6196    3.6310   C.2       1 RES1   0.0000
   350 O8        0.7006   -0.1361    2.5159   O.2       1 RES1   0.0000
   351 N8        1.3528   -0.7742    4.5829   N.am      1 RES1   0.0000
   352 C125      1.1490   -1.3905    5.8926   C.3       1 RES1   0.0000
   353 C126      1.5728   -0.5509    7.1064   C.3       1 RES1   0.0000
   354 C127      0.5661    0.5155    7.5370   C.3       1 RES1   0.0000
   355 C128      0.5634    1.7155    6.5979   C.3       1 RES1   0.0000
   356 C129     -0.4956    2.7634    6.9408   C.3       1 RES1   0.0000
   357 C130     -1.9093    2.3032    6.5916   C.3       1 RES1   0.0000
   358 C131     -2.9407    3.4234    6.7366   C.3       1 RES1   0.0000
   359 C132     -3.0968    3.9150    8.1722   C.3       1 RES1   0.0000
   360 C133      2.6942   -0.2736    4.2597   C.3       1 RES1   0.0000
   361 C134      3.8850   -1.0507    4.8302   C.3       1 RES1   0.0000
   362 C135      4.8734   -1.5129    3.7611   C.3       1 RES1   0.0000
   363 C136      6.1133   -2.1009    4.4317   C.3       1 RES1   0.0000
   364 C137      6.8635   -3.1063    3.5652   C.3       1 RES1   0.0000
   365 C138      8.0757   -3.6733    4.3049   C.3       1 RES1   0.0000
   366 C139      7.7402   -4.6606    5.4289   C.3       1 RES1   0.0000
   367 C140      7.3888   -6.0461    4.8918   C.3       1 RES1   0.0000
   368 H211     -9.2337   -0.4301   -3.7061   H         1 RES1   0.0000
   369 H212     -7.7466    0.4332   -3.3058   H         1 RES1   0.0000
   370 H213     -9.3067    1.2558   -3.2049   H         1 RES1   0.0000
   371 H214     -8.4138   -1.0997   -1.4653   H         1 RES1   0.0000
   372 H215     -9.9842   -0.3084   -1.3613   H         1 RES1   0.0000
   373 H216     -8.9481    1.7766   -0.5981   H         1 RES1   0.0000
   374 H217     -7.3429    1.1430   -0.9563   H         1 RES1   0.0000
   375 H218     -7.7877   -0.7012    0.7266   H         1 RES1   0.0000
   376 H219     -9.2356    0.1505    1.2156   H         1 RES1   0.0000
   377 H220     -8.0467    1.6150    2.5171   H         1 RES1   0.0000
   378 H221     -6.8804    1.9425    1.2547   H         1 RES1   0.0000
   379 H222     -5.6671   -0.1225    1.7892   H         1 RES1   0.0000
   380 H223     -6.9562   -0.6080    2.8831   H         1 RES1   0.0000
   381 H224     -6.0473    0.5625    4.6306   H         1 RES1   0.0000
   382 H225     -5.8503    1.9889    3.6476   H         1 RES1   0.0000
   383 H226     -3.8220    1.3637    4.6445   H         1 RES1   0.0000
   384 H227     -3.7013    1.4333    2.8909   H         1 RES1   0.0000
   385 H228     -3.6541   -0.8527    5.7344   H         1 RES1   0.0000
   386 H229     -2.9639   -2.1752    4.7824   H         1 RES1   0.0000
   387 H230     -5.4188   -1.6367    3.5465   H         1 RES1   0.0000
   388 H231     -5.7900   -1.6454    5.2669   H         1 RES1   0.0000
   389 H232     -4.8523   -3.9158    5.4687   H         1 RES1   0.0000
   390 H233     -4.3795   -3.8764    3.7665   H         1 RES1   0.0000
   391 H234     -7.2151   -3.6999    4.8403   H         1 RES1   0.0000
   392 H235     -6.7969   -3.5594    3.1409   H         1 RES1   0.0000
   393 H236     -7.6042   -5.8326    3.8862   H         1 RES1   0.0000
   394 H237     -6.1521   -5.9904    4.8641   H         1 RES1   0.0000
   395 H238     -4.7588   -5.8126    2.8038   H         1 RES1   0.0000
   396 H239     -6.2125   -5.5845    1.8257   H         1 RES1   0.0000
   397 H240     -6.9533   -7.8655    2.3472   H         1 RES1   0.0000
   398 H241     -5.6217   -8.0736    3.4846   H         1 RES1   0.0000
   399 H242     -5.2931   -7.6677    0.4669   H         1 RES1   0.0000
   400 H243     -5.1334   -9.1845    1.3390   H         1 RES1   0.0000
   401 H244     -3.9785   -7.8885    1.6339   H         1 RES1   0.0000
   402 H245     -1.0548   -2.1482    3.8632   H         1 RES1   0.0000
   403 H246     -1.2125   -0.8101    5.0163   H         1 RES1   0.0000
   404 H247      1.7142   -2.3286    5.9138   H         1 RES1   0.0000
   405 H248      0.1054   -1.6545    6.0224   H         1 RES1   0.0000
   406 H249      2.5378   -0.0822    6.9296   H         1 RES1   0.0000
   407 H250      1.6942   -1.2459    7.9406   H         1 RES1   0.0000
   408 H251      0.8318    0.8618    8.5367   H         1 RES1   0.0000
   409 H252     -0.4298    0.0781    7.5982   H         1 RES1   0.0000
   410 H253      0.3963    1.3699    5.5731   H         1 RES1   0.0000
   411 H254      1.5471    2.1907    6.6419   H         1 RES1   0.0000
   412 H255     -0.2833    3.6785    6.3819   H         1 RES1   0.0000
   413 H256     -0.4384    2.9994    8.0025   H         1 RES1   0.0000
   414 H257     -2.1933    1.4712    7.2401   H         1 RES1   0.0000
   415 H258     -1.9147    1.9492    5.5526   H         1 RES1   0.0000
   416 H259     -3.9091    3.0594    6.3833   H         1 RES1   0.0000
   417 H260     -2.6488    4.2589    6.0948   H         1 RES1   0.0000
   418 H261     -3.2797    3.0844    8.8522   H         1 RES1   0.0000
   419 H262     -3.9396    4.5988    8.2394   H         1 RES1   0.0000
   420 H263     -2.2053    4.4401    8.5041   H         1 RES1   0.0000
   421 H264      2.7381    0.7700    4.5873   H         1 RES1   0.0000
   422 H265      2.7483   -0.2917    3.1700   H         1 RES1   0.0000
   423 H266      3.5524   -1.9320    5.3753   H         1 RES1   0.0000
   424 H267      4.4252   -0.4202    5.5428   H         1 RES1   0.0000
   425 H268      5.1652   -0.6779    3.1229   H         1 RES1   0.0000
   426 H269      4.4037   -2.2690    3.1263   H         1 RES1   0.0000
   427 H270      5.8074   -2.6089    5.3458   H         1 RES1   0.0000
   428 H271      6.7925   -1.2976    4.7232   H         1 RES1   0.0000
   429 H272      7.2028   -2.6247    2.6457   H         1 RES1   0.0000
   430 H273      6.1836   -3.9143    3.2909   H         1 RES1   0.0000
   431 H274      8.6405   -2.8328    4.7140   H         1 RES1   0.0000
   432 H275      8.7221   -4.1860    3.5921   H         1 RES1   0.0000
   433 H276      6.9173   -4.2940    6.0465   H         1 RES1   0.0000
   434 H277      8.6161   -4.7447    6.0773   H         1 RES1   0.0000
   435 H278      6.5118   -6.0033    4.2456   H         1 RES1   0.0000
   436 H279      7.1787   -6.7335    5.7097   H         1 RES1   0.0000
   437 H280      8.2237   -6.4510    4.3259   H         1 RES1   0.0000
@<TRIPOS>BOND
     1     1    20    1
     2     1    23    1
     3     1   129    1
     4     1   132    1
     5     1   238    1
     6     1   241    1
     7     1   347    1
     8     1   350    1
     9     2     3    1
    10     2    41    1
    11     2    42    1
    12     2    43    1
    13     3     4    1
    14     3    44    1
    15     3    45    1
    16     4     5    1
    17     4    46    1
    18     4    47    1
    19     5     6    1
    20     5    48    1
    21     5    49    1
    22     6     7    1
    23     6    50    1
    24     6    51    1
    25     7     8    1
    26     7    52    1
    27     7    53    1
    28     8     9    1
    29     8    54    1
    30     8    55    1
    31     9    10    1
    32     9    56    1
    33     9    57    1
    34    10    11    1
    35    10    19    1
    36    11    12    1
    37    11    58    1
    38    11    59    1
    39    12    13    1
    40    12    60    1
    41    12    61    1
    42    13    14    1
    43    13    62    1
    44    13    63    1
    45    14    15    1
    46    14    64    1
    47    14    65    1
    48    15    16    1
    49    15    66    1
    50    15    67    1
    51    16    17    1
    52    16    68    1
    53    16    69    1
    54    17    18    1
    55    17    70    1
    56    17    71    1
    57    18    72    1
    58    18    73    1
    59    18    74    1
    60    19    20    2
    61    19    21    1
    62    21    22    1
    63    21    75    1
    64    21    76    1
    65    22    23    2
    66    22    24    1
    67    24    25    1
    68    24    33    1
    69    25    26    1
    70    25    77    1
    71    25    78    1
    72    26    27    1
    73    26    79    1
    74    26    80    1
    75    27    28    1
    76    27    81    1
    77    27    82    1
    78    28    29    1
    79    28    83    1
    80    28    84    1
    81    29    30    1
    82    29    85    1
    83    29    86    1
    84    30    31    1
    85    30    87    1
    86    30    88    1
    87    31    32    1
    88    31    89    1
    89    31    90    1
    90    32    91    1
    91    32    92    1
    92    32    93    1
    93    33    34    1
    94    33    94    1
    95    33    95    1
    96    34    35    1
    97    34    96    1
    98    34    97    1
    99    35    36    1
   100    35    98    1
   101    35    99    1
   102    36    37    1
   103    36   100    1
   104    36   101    1
   105    37    38    1
   106    37   102    1
   107    37   103    1
   108    38    39    1
   109    38   104    1
   110    38   105    1
   111    39    40    1
   112    39   106    1
   113    39   107    1
   114    40   108    1
   115    40   109    1
   116    40   110    1
   117   111   112    1
   118   111   150    1
   119   111   151    1
   120   111   152    1
   121   112   113    1
   122   112   153    1
   123   112   154    1
   124   113   114    1
   125   113   155    1
   126   113   156    1
   127   114   115    1
   128   114   157    1
   129   114   158    1
   130   115   116    1
   131   115   159    1
   132   115   160    1
   133   116   117    1
   134   116   161    1
   135   116   162    1
   136   117   118    1
   137   117   163    1
   138   117   164    1
   139   118   119    1
   140   118   165    1
   141   118   166    1
   142   119   120    1
   143   119   128    1
   144   120   121    1
   145   120   167    1
   146   120   168    1
   147   121   122    1
   148   121   169    1
   149   121   170    1
   150   122   123    1
   151   122   171    1
   152   122   172    1
   153   123   124    1
   154   123   173    1
   155   123   174    1
   156   124   125    1
   157   124   175    1
   158   124   176    1
   159   125   126    1
   160   125   177    1
   161   125   178    1
   162   126   127    1
   163   126   179    1
   164   126   180    1
   165   127   181    1
   166   127   182    1
   167   127   183    1
   168   128   129    2
   169   128   130    1
   170   130   131    1
   171   130   184    1
   172   130   185    1
   173   131   132    2
   174   131   133    1
   175   133   134    1
   176   133   142    1
   177   134   135    1
   178   134   186    1
   179   134   187    1
   180   135   136    1
   181   135   188    1
   182   135   189    1
   183   136   137    1
   184   136   190    1
   185   136   191    1
   186   137   138    1
   187   137   192    1
   188   137   193    1
   189   138   139    1
   190   138   194    1
   191   138   195    1
   192   139   140    1
   193   139   196    1
   194   139   197    1
   195   140   141    1
   196   140   198    1
   197   140   199    1
   198   141   200    1
   199   141   201    1
   200   141   202    1
   201   142   143    1
   202   142   203    1
   203   142   204    1
   204   143   144    1
   205   143   205    1
   206   143   206    1
   207   144   145    1
   208   144   207    1
   209   144   208    1
   210   145   146    1
   211   145   209    1
   212   145   210    1
   213   146   147    1
   214   146   211    1
   215   146   212    1
   216   147   148    1
   217   147   213    1
   218   147   214    1
   219   148   149    1
   220   148   215    1
   221   148   216    1
   222   149   217    1
   223   149   218    1
   224   149   219    1
   225   220   221    1
   226   220   259    1
   227   220   260    1
   228   220   261    1
   229   221   222    1
   230   221   262    1
   231   221   263    1
   232   222   223    1
   233   222   264    1
   234   222   265    1
   235   223   224    1
   236   223   266    1
   237   223   267    1
   238   224   225    1
   239   224   268    1
   240   224   269    1
   241   225   226    1
   242   225   270    1
   243   225   271    1
   244   226   227    1
   245   226   272    1
   246   226   273    1
   247   227   228    1
   248   227   274    1
   249   227   275    1
   250   228   229    1
   251   228   237    1
   252   229   230    1
   253   229   276    1
   254   229   277    1
   255   230   231    1
   256   230   278    1
   257   230   279    1
   258   231   232    1
   259   231   280    1
   260   231   281    1
   261   232   233    1
   262   232   282    1
   263   232   283    1
   264   233   234    1
   265   233   284    1
   266   233   285    1
   267   234   235    1
   268   234   286    1
   269   234   287    1
   270   235   236    1
   271   235   288    1
   272   235   289    1
   273   236   290    1
   274   236   291    1
   275   236   292    1
   276   237   238    2
   277   237   239    1
   278   239   240    1
   279   239   293    1
   280   239   294    1
   281   240   241    2
   282   240   242    1
   283   242   243    1
   284   242   251    1
   285   243   244    1
   286   243   295    1
   287   243   296    1
   288   244   245    1
   289   244   297    1
   290   244   298    1
   291   245   246    1
   292   245   299    1
   293   245   300    1
   294   246   247    1
   295   246   301    1
   296   246   302    1
   297   247   248    1
   298   247   303    1
   299   247   304    1
   300   248   249    1
   301   248   305    1
   302   248   306    1
   303   249   250    1
   304   249   307    1
   305   249   308    1
   306   250   309    1
   307   250   310    1
   308   250   311    1
   309   251   252    1
   310   251   312    1
   311   251   313    1
   312   252   253    1
   313   252   314    1
   314   252   315    1
   315   253   254    1
   316   253   316    1
   317   253   317    1
   318   254   255    1
   319   254   318    1
   320   254   319    1
   321   255   256    1
   322   255   320    1
   323   255   321    1
   324   256   257    1
   325   256   322    1
   326   256   323    1
   327   257   258    1
   328   257   324    1
   329   257   325    1
   330   258   326    1
   331   258   327    1
   332   258   328    1
   333   329   330    1
   334   329   368    1
   335   329   369    1
   336   329   370    1
   337   330   331    1
   338   330   371    1
   339   330   372    1
   340   331   332    1
   341   331   373    1
   342   331   374    1
   343   332   333    1
   344   332   375    1
   345   332   376    1
   346   333   334    1
   347   333   377    1
   348   333   378    1
   349   334   335    1
   350   334   379    1
   351   334   380    1
   352   335   336    1
   353   335   381    1
   354   335   382    1
   355   336   337    1
   356   336   383    1
   357   336   384    1
   358   337   338    1
   359   337   346    1
   360   338   339    1
   361   338   385    1
   362   338   386    1
   363   339   340    1
   364   339   387    1
   365   339   388    1
   366   340   341    1
   367   340   389    1
   368   340   390    1
   369   341   342    1
   370   341   391    1
   371   341   392    1
   372   342   343    1
   373   342   393    1
   374   342   394    1
   375   343   344    1
   376   343   395    1
   377   343   396    1
   378   344   345    1
   379   344   397    1
   380   344   398    1
   381   345   399    1
   382   345   400    1
   383   345   401    1
   384   346   347    2
   385   346   348    1
   386   348   349    1
   387   348   402    1
   388   348   403    1
   389   349   350    2
   390   349   351    1
   391   351   352    1
   392   351   360    1
   393   352   353    1
   394   352   404    1
   395   352   405    1
   396   353   354    1
   397   353   406    1
   398   353   407    1
   399   354   355    1
   400   354   408    1
   401   354   409    1
   402   355   356    1
   403   355   410    1
   404   355   411    1
   405   356   357    1
   406   356   412    1
   407   356   413    1
   408   357   358    1
   409   357   414    1
   410   357   415    1
   411   358   359    1
   412   358   416    1
   413   358   417    1
   414   359   418    1
   415   359   419    1
   416   359   420    1
   417   360   361    1
   418   360   421    1
   419   360   422    1
   420   361   362    1
   421   361   423    1
   422   361   424    1
   423   362   363    1
   424   362   425    1
   425   362   426    1
   426   363   364    1
   427   363   427    1
   428   363   428    1
   429   364   365    1
   430   364   429    1
   431   364   430    1
   432   365   366    1
   433   365   431    1
   434   365   432    1
   435   366   367    1
   436   366   433    1
   437   366   434    1
   438   367   435    1
   439   367   436    1
   440   367   437    1
@<TRIPOS>SUBSTRUCTURE
     1 RES1      437 GROUP             0 ****  ****    0  
