@<TRIPOS>MOLECULE
YEMSEP_geometry_0_nunpairedes_0_charge_2 Charge: 2 Unpaired_Electrons: 5 XTB_Unpaired_Electrons: 0 XTB_Charge: 2
   147   151     1     0     0
SMALL
NoCharges
****
Generated from Architector

@<TRIPOS>ATOM
     1 Dy1      -0.1405   -0.0991    0.1602   Dy        1 RES1   0.0000
     2 C1       -4.4338   -1.4665    2.6761   C.3       1 RES1   0.0000
     3 C2       -3.3736   -2.2978    1.9574   C.3       1 RES1   0.0000
     4 C3       -3.9585   -3.4195    1.0949   C.3       1 RES1   0.0000
     5 C4       -2.8522   -4.2064    0.3959   C.3       1 RES1   0.0000
     6 C5       -3.3518   -5.3016   -0.5496   C.3       1 RES1   0.0000
     7 C6       -2.2286   -6.0424   -1.2967   C.3       1 RES1   0.0000
     8 C7       -1.6419   -5.2465   -2.4758   C.3       1 RES1   0.0000
     9 C8       -0.1388   -4.9642   -2.4136   C.3       1 RES1   0.0000
    10 N1        0.1945   -4.0424   -1.3477   N.am      1 RES1   0.0000
    11 C9        0.4792   -4.5718   -0.0253   C.3       1 RES1   0.0000
    12 C10       0.1389   -2.7266   -1.4139   C.2       1 RES1   0.0000
    13 O1        0.4517   -2.0497   -0.4099   O.2       1 RES1   0.0000
    14 C11      -0.2598   -1.9744   -2.6786   C.3       1 RES1   0.0000
    15 O2       -0.0280   -0.5876   -2.4337   O.3       1 RES1   0.0000
    16 C12      -0.9023    0.2617   -3.1643   C.3       1 RES1   0.0000
    17 C13      -2.1488    0.5108   -2.2958   C.2       1 RES1   0.0000
    18 O3       -2.1050    0.0419   -1.1337   O.2       1 RES1   0.0000
    19 N2       -3.1681    1.1948   -2.7809   N.am      1 RES1   0.0000
    20 C14      -3.2421    1.7191   -4.1274   C.3       1 RES1   0.0000
    21 C15      -4.2985    1.5640   -1.9347   C.3       1 RES1   0.0000
    22 C16      -5.6749    1.1165   -2.4307   C.3       1 RES1   0.0000
    23 C17      -6.0038   -0.3576   -2.1740   C.3       1 RES1   0.0000
    24 C18      -5.6825   -1.3133   -3.3292   C.3       1 RES1   0.0000
    25 C19      -4.2542   -1.8544   -3.3230   C.3       1 RES1   0.0000
    26 C20      -4.0730   -3.0380   -4.2727   C.3       1 RES1   0.0000
    27 C21      -4.1792   -2.7019   -5.7595   C.3       1 RES1   0.0000
    28 C22      -3.0088   -1.8581   -6.2557   C.3       1 RES1   0.0000
    29 H1       -3.9572   -0.7254    3.3155   H         1 RES1   0.0000
    30 H2       -5.0579   -2.0961    3.3076   H         1 RES1   0.0000
    31 H3       -5.0722   -0.9436    1.9669   H         1 RES1   0.0000
    32 H4       -2.7292   -2.7502    2.7174   H         1 RES1   0.0000
    33 H5       -2.7511   -1.6245    1.3321   H         1 RES1   0.0000
    34 H6       -4.6383   -3.0062    0.3497   H         1 RES1   0.0000
    35 H7       -4.5232   -4.0985    1.7339   H         1 RES1   0.0000
    36 H8       -2.2484   -4.6862    1.1723   H         1 RES1   0.0000
    37 H9       -2.2300   -3.4889   -0.1574   H         1 RES1   0.0000
    38 H10      -4.0471   -4.8724   -1.2736   H         1 RES1   0.0000
    39 H11      -3.9040   -6.0393    0.0337   H         1 RES1   0.0000
    40 H12      -2.6366   -6.9783   -1.6808   H         1 RES1   0.0000
    41 H13      -1.4472   -6.3252   -0.5921   H         1 RES1   0.0000
    42 H14      -2.1627   -4.2914   -2.5363   H         1 RES1   0.0000
    43 H15      -1.8271   -5.7719   -3.4137   H         1 RES1   0.0000
    44 H16       0.1749   -4.5434   -3.3703   H         1 RES1   0.0000
    45 H17       0.4311   -5.8830   -2.2582   H         1 RES1   0.0000
    46 H18       0.7338   -5.6224   -0.0978   H         1 RES1   0.0000
    47 H19      -0.3898   -4.4347    0.6164   H         1 RES1   0.0000
    48 H20       1.3043   -4.0131    0.4132   H         1 RES1   0.0000
    49 H21      -1.3179   -2.1640   -2.9074   H         1 RES1   0.0000
    50 H22       0.3574   -2.3072   -3.5248   H         1 RES1   0.0000
    51 H23      -1.1404   -0.1745   -4.1397   H         1 RES1   0.0000
    52 H24      -0.3718    1.2104   -3.2996   H         1 RES1   0.0000
    53 H25      -2.2863    1.6804   -4.6392   H         1 RES1   0.0000
    54 H26      -3.5764    2.7567   -4.0810   H         1 RES1   0.0000
    55 H27      -3.9793    1.1605   -4.7081   H         1 RES1   0.0000
    56 H28      -4.3005    2.6543   -1.8678   H         1 RES1   0.0000
    57 H29      -4.1200    1.1509   -0.9427   H         1 RES1   0.0000
    58 H30      -5.8124    1.3418   -3.4869   H         1 RES1   0.0000
    59 H31      -6.3990    1.7308   -1.8940   H         1 RES1   0.0000
    60 H32      -7.0725   -0.4339   -1.9660   H         1 RES1   0.0000
    61 H33      -5.4776   -0.6829   -1.2749   H         1 RES1   0.0000
    62 H34      -5.8798   -0.8115   -4.2773   H         1 RES1   0.0000
    63 H35      -6.3632   -2.1647   -3.2712   H         1 RES1   0.0000
    64 H36      -4.0047   -2.1773   -2.3066   H         1 RES1   0.0000
    65 H37      -3.5552   -1.0669   -3.6002   H         1 RES1   0.0000
    66 H38      -4.8178   -3.7952   -4.0287   H         1 RES1   0.0000
    67 H39      -3.0869   -3.4754   -4.1046   H         1 RES1   0.0000
    68 H40      -5.1205   -2.1934   -5.9647   H         1 RES1   0.0000
    69 H41      -4.1938   -3.6406   -6.3154   H         1 RES1   0.0000
    70 H42      -3.0182   -0.8677   -5.8028   H         1 RES1   0.0000
    71 H43      -3.0596   -1.7327   -7.3344   H         1 RES1   0.0000
    72 H44      -2.0628   -2.3464   -6.0184   H         1 RES1   0.0000
    73 C23       4.1426   -3.5122   -4.1495   C.3       1 RES1   0.0000
    74 C24       3.6179   -3.5555   -2.7195   C.3       1 RES1   0.0000
    75 C25       4.4874   -4.3906   -1.7701   C.3       1 RES1   0.0000
    76 C26       3.6813   -4.6571   -0.5015   C.3       1 RES1   0.0000
    77 C27       4.3833   -5.3056    0.6909   C.3       1 RES1   0.0000
    78 C28       3.4891   -5.2464    1.9451   C.3       1 RES1   0.0000
    79 C29       3.5556   -3.8458    2.5579   C.3       1 RES1   0.0000
    80 C30       2.5396   -3.4503    3.6395   C.3       1 RES1   0.0000
    81 N3        1.2682   -2.9605    3.1156   N.am      1 RES1   0.0000
    82 C31       0.1221   -3.8263    3.3394   C.3       1 RES1   0.0000
    83 C32       1.0473   -1.7820    2.5334   C.2       1 RES1   0.0000
    84 O4       -0.0587   -1.4688    2.0587   O.2       1 RES1   0.0000
    85 C33       2.1639   -0.7430    2.4597   C.3       1 RES1   0.0000
    86 O5        1.5768    0.4788    2.0109   O.3       1 RES1   0.0000
    87 C34       2.5657    1.4234    1.6222   C.3       1 RES1   0.0000
    88 C35       2.9185    1.1533    0.1456   C.2       1 RES1   0.0000
    89 O6        2.1858    0.3321   -0.4522   O.2       1 RES1   0.0000
    90 N4        3.9557    1.7575   -0.4105   N.am      1 RES1   0.0000
    91 C36       4.7831    2.7422    0.2555   C.3       1 RES1   0.0000
    92 C37       4.3000    1.4981   -1.8067   C.3       1 RES1   0.0000
    93 C38       5.7675    1.1546   -2.0864   C.3       1 RES1   0.0000
    94 C39       6.1766   -0.3046   -1.8584   C.3       1 RES1   0.0000
    95 C40       6.6629   -0.6454   -0.4453   C.3       1 RES1   0.0000
    96 C41       5.5342   -0.9241    0.5432   C.3       1 RES1   0.0000
    97 C42       6.0115   -1.5720    1.8408   C.3       1 RES1   0.0000
    98 C43       6.8412   -0.6869    2.7675   C.3       1 RES1   0.0000
    99 C44       6.0018    0.4032    3.4270   C.3       1 RES1   0.0000
   100 H45       3.5118   -2.8745   -4.7687   H         1 RES1   0.0000
   101 H46       4.1430   -4.5100   -4.5836   H         1 RES1   0.0000
   102 H47       5.1569   -3.1222   -4.1750   H         1 RES1   0.0000
   103 H48       2.6105   -3.9848   -2.7313   H         1 RES1   0.0000
   104 H49       3.5264   -2.5347   -2.3286   H         1 RES1   0.0000
   105 H50       5.4089   -3.8579   -1.5350   H         1 RES1   0.0000
   106 H51       4.7535   -5.3322   -2.2507   H         1 RES1   0.0000
   107 H52       2.8538   -5.3077   -0.7844   H         1 RES1   0.0000
   108 H53       3.2782   -3.6888   -0.1841   H         1 RES1   0.0000
   109 H54       5.3257   -4.7955    0.8971   H         1 RES1   0.0000
   110 H55       4.6136   -6.3482    0.4667   H         1 RES1   0.0000
   111 H56       3.8443   -5.9869    2.6609   H         1 RES1   0.0000
   112 H57       2.4644   -5.5097    1.6834   H         1 RES1   0.0000
   113 H58       3.4662   -3.1215    1.7487   H         1 RES1   0.0000
   114 H59       4.5485   -3.7537    2.9963   H         1 RES1   0.0000
   115 H60       3.0086   -2.6852    4.2644   H         1 RES1   0.0000
   116 H61       2.3147   -4.3074    4.2753   H         1 RES1   0.0000
   117 H62       0.3438   -4.8527    3.0491   H         1 RES1   0.0000
   118 H63      -0.7213   -3.4413    2.7686   H         1 RES1   0.0000
   119 H64      -0.1395   -3.8136    4.3991   H         1 RES1   0.0000
   120 H65       2.9400   -1.0622    1.7549   H         1 RES1   0.0000
   121 H66       2.6024   -0.6027    3.4564   H         1 RES1   0.0000
   122 H67       3.4350    1.3508    2.2849   H         1 RES1   0.0000
   123 H68       2.1191    2.4195    1.7153   H         1 RES1   0.0000
   124 H69       4.3135    3.1361    1.1517   H         1 RES1   0.0000
   125 H70       4.9690    3.5719   -0.4288   H         1 RES1   0.0000
   126 H71       5.7462    2.3039    0.5245   H         1 RES1   0.0000
   127 H72       4.0555    2.3962   -2.3782   H         1 RES1   0.0000
   128 H73       3.6555    0.6874   -2.1450   H         1 RES1   0.0000
   129 H74       6.4410    1.8035   -1.5303   H         1 RES1   0.0000
   130 H75       5.9277    1.3810   -3.1415   H         1 RES1   0.0000
   131 H76       6.9905   -0.5331   -2.5504   H         1 RES1   0.0000
   132 H77       5.3402   -0.9544   -2.1214   H         1 RES1   0.0000
   133 H78       7.2880    0.1669   -0.0729   H         1 RES1   0.0000
   134 H79       7.2941   -1.5351   -0.5036   H         1 RES1   0.0000
   135 H80       4.8182   -1.5992    0.0638   H         1 RES1   0.0000
   136 H81       5.0120   -0.0009    0.7796   H         1 RES1   0.0000
   137 H82       6.5864   -2.4625    1.5885   H         1 RES1   0.0000
   138 H83       5.1358   -1.8813    2.4080   H         1 RES1   0.0000
   139 H84       7.6784   -0.2456    2.2286   H         1 RES1   0.0000
   140 H85       7.2601   -1.3227    3.5495   H         1 RES1   0.0000
   141 H86       5.6715    1.1374    2.6938   H         1 RES1   0.0000
   142 H87       6.5777    0.9225    4.1884   H         1 RES1   0.0000
   143 H88       5.1265   -0.0326    3.9119   H         1 RES1   0.0000
   144 N5       -0.9949    2.1128    0.5964   N.3       1 RES1   0.0000
   145 O7       -1.4539    3.1911    0.7663   O.2       1 RES1   0.0000
   146 O8       -1.2642    1.1575    1.3330   O.co2     1 RES1   0.0000
   147 O9       -0.1903    1.9012   -0.3420   O.co2     1 RES1   0.0000
@<TRIPOS>BOND
     1     1    13    1
     2     1    15    1
     3     1    18    1
     4     1    84    1
     5     1    86    1
     6     1    89    1
     7     1   146    1
     8     1   147    1
     9     2     3    1
    10     2    29    1
    11     2    30    1
    12     2    31    1
    13     3     4    1
    14     3    32    1
    15     3    33    1
    16     4     5    1
    17     4    34    1
    18     4    35    1
    19     5     6    1
    20     5    36    1
    21     5    37    1
    22     6     7    1
    23     6    38    1
    24     6    39    1
    25     7     8    1
    26     7    40    1
    27     7    41    1
    28     8     9    1
    29     8    42    1
    30     8    43    1
    31     9    10    1
    32     9    44    1
    33     9    45    1
    34    10    11    1
    35    10    12    1
    36    11    46    1
    37    11    47    1
    38    11    48    1
    39    12    13    2
    40    12    14    1
    41    14    15    1
    42    14    49    1
    43    14    50    1
    44    15    16    1
    45    16    17    1
    46    16    51    1
    47    16    52    1
    48    17    18    2
    49    17    19    1
    50    19    20    1
    51    19    21    1
    52    20    53    1
    53    20    54    1
    54    20    55    1
    55    21    22    1
    56    21    56    1
    57    21    57    1
    58    22    23    1
    59    22    58    1
    60    22    59    1
    61    23    24    1
    62    23    60    1
    63    23    61    1
    64    24    25    1
    65    24    62    1
    66    24    63    1
    67    25    26    1
    68    25    64    1
    69    25    65    1
    70    26    27    1
    71    26    66    1
    72    26    67    1
    73    27    28    1
    74    27    68    1
    75    27    69    1
    76    28    70    1
    77    28    71    1
    78    28    72    1
    79    73    74    1
    80    73   100    1
    81    73   101    1
    82    73   102    1
    83    74    75    1
    84    74   103    1
    85    74   104    1
    86    75    76    1
    87    75   105    1
    88    75   106    1
    89    76    77    1
    90    76   107    1
    91    76   108    1
    92    77    78    1
    93    77   109    1
    94    77   110    1
    95    78    79    1
    96    78   111    1
    97    78   112    1
    98    79    80    1
    99    79   113    1
   100    79   114    1
   101    80    81    1
   102    80   115    1
   103    80   116    1
   104    81    82    1
   105    81    83    1
   106    82   117    1
   107    82   118    1
   108    82   119    1
   109    83    84    2
   110    83    85    1
   111    85    86    1
   112    85   120    1
   113    85   121    1
   114    86    87    1
   115    87    88    1
   116    87   122    1
   117    87   123    1
   118    88    89    2
   119    88    90    1
   120    90    91    1
   121    90    92    1
   122    91   124    1
   123    91   125    1
   124    91   126    1
   125    92    93    1
   126    92   127    1
   127    92   128    1
   128    93    94    1
   129    93   129    1
   130    93   130    1
   131    94    95    1
   132    94   131    1
   133    94   132    1
   134    95    96    1
   135    95   133    1
   136    95   134    1
   137    96    97    1
   138    96   135    1
   139    96   136    1
   140    97    98    1
   141    97   137    1
   142    97   138    1
   143    98    99    1
   144    98   139    1
   145    98   140    1
   146    99   141    1
   147    99   142    1
   148    99   143    1
   149   144   145    2
   150   144   146    1
   151   144   147    1
@<TRIPOS>SUBSTRUCTURE
     1 RES1      147 GROUP             0 ****  ****    0  
