@<TRIPOS>MOLECULE
ICIGOT_geomtry_0_nunpairedes_0_charge_3 Charge: 3 Unpaired_Electrons: 5 XTB_Unpaired_Electrons: 0 XTB_Charge: 3
   193   206     1     0     0
SMALL
NoCharges
****
Generated from Architector

@<TRIPOS>ATOM
     1 Dy1      -0.0081   -0.0665    0.2136   Dy        1 RES1   0.0000
     2 C1       -3.8241    6.8684   -3.4787   C.3       1 RES1   0.0000
     3 C2       -3.7240    7.8109   -2.2854   C.3       1 RES1   0.0000
     4 C3       -4.8193    7.5247   -1.2579   C.3       1 RES1   0.0000
     5 C4       -4.5865    8.2889    0.0448   C.3       1 RES1   0.0000
     6 C5       -5.4928    7.8382    1.2001   C.3       1 RES1   0.0000
     7 C6       -4.7558    7.0972    2.3332   C.3       1 RES1   0.0000
     8 C7       -4.5859    5.6233    2.1082   C.ar      1 RES1   0.0000
     9 C8       -5.2155    4.6872    2.9279   C.ar      1 RES1   0.0000
    10 C9       -4.9750    3.3224    2.8056   C.ar      1 RES1   0.0000
    11 C10      -4.1112    2.8775    1.8149   C.ar      1 RES1   0.0000
    12 N1       -3.8226    1.4973    1.4995   N.am      1 RES1   0.0000
    13 C11      -4.7268    0.9786    0.4526   C.3       1 RES1   0.0000
    14 C12      -5.2271   -0.4113    0.8219   C.3       1 RES1   0.0000
    15 C13      -2.5478    1.0503    1.4232   C.2       1 RES1   0.0000
    16 O1       -2.1216    0.5313    0.3664   O.2       1 RES1   0.0000
    17 C14      -1.5783    1.1022    2.5862   C.ar      1 RES1   0.0000
    18 C15      -1.8095    1.5923    3.8625   C.ar      1 RES1   0.0000
    19 C16      -0.7277    1.6896    4.7300   C.ar      1 RES1   0.0000
    20 C17       0.5281    1.2449    4.3637   C.ar      1 RES1   0.0000
    21 C18       0.6824    0.7049    3.0914   C.ar      1 RES1   0.0000
    22 C19       2.0151    0.3376    2.5229   C.ar      1 RES1   0.0000
    23 C20       3.1944    0.9059    3.0092   C.ar      1 RES1   0.0000
    24 C21       4.3759    0.6676    2.3335   C.ar      1 RES1   0.0000
    25 C22       4.3758   -0.0848    1.1635   C.ar      1 RES1   0.0000
    26 C23       3.1687   -0.6093    0.7198   C.ar      1 RES1   0.0000
    27 C24       2.8456   -1.2428   -0.6183   C.2       1 RES1   0.0000
    28 O2        1.6890   -0.9734   -1.0207   O.2       1 RES1   0.0000
    29 N2        3.6263   -2.0400   -1.3521   N.am      1 RES1   0.0000
    30 C25       5.0801   -2.0604   -1.3285   C.3       1 RES1   0.0000
    31 C26       5.6230   -0.9030   -2.1629   C.3       1 RES1   0.0000
    32 C27       2.9893   -2.9457   -2.2670   C.ar      1 RES1   0.0000
    33 C28       3.4752   -3.2647   -3.5336   C.ar      1 RES1   0.0000
    34 C29       2.9285   -4.3152   -4.2592   C.ar      1 RES1   0.0000
    35 C30       1.9008   -5.0970   -3.7382   C.ar      1 RES1   0.0000
    36 C31       1.3667   -6.3173   -4.4245   C.3       1 RES1   0.0000
    37 C32       0.0292   -6.1130   -5.1783   C.3       1 RES1   0.0000
    38 C33      -1.1965   -6.5060   -4.3434   C.3       1 RES1   0.0000
    39 C34      -2.5586   -6.3323   -5.0347   C.3       1 RES1   0.0000
    40 C35      -3.0620   -4.8972   -5.2068   C.3       1 RES1   0.0000
    41 C36      -4.4729   -4.8316   -5.7918   C.3       1 RES1   0.0000
    42 C37       1.3914   -4.7252   -2.5034   C.ar      1 RES1   0.0000
    43 C38       1.8997   -3.6611   -1.7915   C.ar      1 RES1   0.0000
    44 N3        2.0315   -0.4248    1.4236   N.ar      1 RES1   0.0000
    45 N4       -0.3610    0.6434    2.2605   N.ar      1 RES1   0.0000
    46 C39      -3.5717    3.7967    0.9164   C.ar      1 RES1   0.0000
    47 C40      -3.7723    5.1499    1.0804   C.ar      1 RES1   0.0000
    48 H1       -3.0951    7.1252   -4.2431   H         1 RES1   0.0000
    49 H2       -4.8135    6.9227   -3.9238   H         1 RES1   0.0000
    50 H3       -3.6500    5.8361   -3.1737   H         1 RES1   0.0000
    51 H4       -3.8042    8.8425   -2.6313   H         1 RES1   0.0000
    52 H5       -2.7378    7.6966   -1.8204   H         1 RES1   0.0000
    53 H6       -4.8592    6.4477   -1.0692   H         1 RES1   0.0000
    54 H7       -5.7863    7.8196   -1.6678   H         1 RES1   0.0000
    55 H8       -4.7507    9.3489   -0.1502   H         1 RES1   0.0000
    56 H9       -3.5402    8.1903    0.3449   H         1 RES1   0.0000
    57 H10      -6.2883    7.1975    0.8220   H         1 RES1   0.0000
    58 H11      -5.9699    8.7118    1.6416   H         1 RES1   0.0000
    59 H12      -5.2940    7.2467    3.2705   H         1 RES1   0.0000
    60 H13      -3.7636    7.5417    2.4549   H         1 RES1   0.0000
    61 H14      -5.9039    5.0442    3.6830   H         1 RES1   0.0000
    62 H15      -5.4679    2.6364    3.4787   H         1 RES1   0.0000
    63 H16      -4.1969    0.9393   -0.5054   H         1 RES1   0.0000
    64 H17      -5.5685    1.6635    0.3572   H         1 RES1   0.0000
    65 H18      -4.3889   -1.1034    0.8877   H         1 RES1   0.0000
    66 H19      -5.9157   -0.7554    0.0519   H         1 RES1   0.0000
    67 H20      -5.7566   -0.3969    1.7736   H         1 RES1   0.0000
    68 H21      -2.7975    1.8987    4.1575   H         1 RES1   0.0000
    69 H22      -0.8527    2.1539    5.6859   H         1 RES1   0.0000
    70 H23       1.3633    1.3115    5.0433   H         1 RES1   0.0000
    71 H24       3.1881    1.5544    3.8651   H         1 RES1   0.0000
    72 H25       5.2998    1.0876    2.6930   H         1 RES1   0.0000
    73 H26       5.2810   -0.2079    0.5938   H         1 RES1   0.0000
    74 H27       5.3905   -3.0212   -1.7414   H         1 RES1   0.0000
    75 H28       5.4275   -2.0203   -0.2955   H         1 RES1   0.0000
    76 H29       5.3048   -0.9825   -3.1983   H         1 RES1   0.0000
    77 H30       6.7065   -0.9153   -2.1427   H         1 RES1   0.0000
    78 H31       5.2564    0.0461   -1.7799   H         1 RES1   0.0000
    79 H32       4.3068   -2.7220   -3.9502   H         1 RES1   0.0000
    80 H33       3.3326   -4.5657   -5.2295   H         1 RES1   0.0000
    81 H34       1.2115   -7.0906   -3.6708   H         1 RES1   0.0000
    82 H35       2.1267   -6.6670   -5.1204   H         1 RES1   0.0000
    83 H36       0.0502   -6.7467   -6.0651   H         1 RES1   0.0000
    84 H37      -0.0344   -5.0827   -5.5304   H         1 RES1   0.0000
    85 H38      -1.1959   -5.9786   -3.3866   H         1 RES1   0.0000
    86 H39      -1.0980   -7.5693   -4.1197   H         1 RES1   0.0000
    87 H40      -3.2975   -6.8682   -4.4364   H         1 RES1   0.0000
    88 H41      -2.5212   -6.8087   -6.0140   H         1 RES1   0.0000
    89 H42      -2.3883   -4.3493   -5.8732   H         1 RES1   0.0000
    90 H43      -3.0872   -4.3987   -4.2311   H         1 RES1   0.0000
    91 H44      -4.5214   -5.3422   -6.7500   H         1 RES1   0.0000
    92 H45      -4.7637   -3.7920   -5.9391   H         1 RES1   0.0000
    93 H46      -5.1930   -5.2895   -5.1166   H         1 RES1   0.0000
    94 H47       0.6180   -5.3255   -2.0644   H         1 RES1   0.0000
    95 H48       1.4848   -3.4235   -0.8239   H         1 RES1   0.0000
    96 H49      -2.9795    3.4257    0.0888   H         1 RES1   0.0000
    97 H50      -3.2916    5.8402    0.4053   H         1 RES1   0.0000
    98 C41       6.7629   -5.5110    2.7410   C.3       1 RES1   0.0000
    99 C42       6.5539   -6.1850    1.3891   C.3       1 RES1   0.0000
   100 C43       5.4477   -7.2377    1.4770   C.3       1 RES1   0.0000
   101 C44       4.9387   -7.6766    0.1017   C.3       1 RES1   0.0000
   102 C45       3.7105   -8.5999    0.1944   C.3       1 RES1   0.0000
   103 C46       2.6101   -8.2724   -0.8317   C.3       1 RES1   0.0000
   104 C47       1.6575   -7.2001   -0.3700   C.ar      1 RES1   0.0000
   105 C48       0.2833   -7.3013   -0.5934   C.ar      1 RES1   0.0000
   106 C49      -0.5941   -6.2841   -0.2329   C.ar      1 RES1   0.0000
   107 C50      -0.1060   -5.1386    0.3766   C.ar      1 RES1   0.0000
   108 N5       -0.9300   -4.0487    0.8219   N.am      1 RES1   0.0000
   109 C51      -1.3116   -4.1654    2.2343   C.3       1 RES1   0.0000
   110 C52      -2.8059   -4.4398    2.3559   C.3       1 RES1   0.0000
   111 C53      -0.9850   -2.8156    0.3052   C.2       1 RES1   0.0000
   112 O3       -1.1019   -1.8209    1.0586   O.2       1 RES1   0.0000
   113 C54      -0.9702   -2.5343   -1.1776   C.ar      1 RES1   0.0000
   114 C55      -1.1661   -3.4661   -2.1829   C.ar      1 RES1   0.0000
   115 C56      -0.9950   -3.0571   -3.4993   C.ar      1 RES1   0.0000
   116 C57      -0.6896   -1.7391   -3.7885   C.ar      1 RES1   0.0000
   117 C58      -0.5985   -0.8302   -2.7378   C.ar      1 RES1   0.0000
   118 C59      -0.1922    0.5990   -2.8975   C.ar      1 RES1   0.0000
   119 C60      -0.0020    1.2442   -4.1242   C.ar      1 RES1   0.0000
   120 C61       0.4981    2.5353   -4.1167   C.ar      1 RES1   0.0000
   121 C62       0.8289    3.1674   -2.9219   C.ar      1 RES1   0.0000
   122 C63       0.5740    2.4943   -1.7310   C.ar      1 RES1   0.0000
   123 C64       0.8078    2.9117   -0.2832   C.2       1 RES1   0.0000
   124 O4        0.9714    1.9612    0.5177   O.2       1 RES1   0.0000
   125 N6        0.7652    4.1618    0.1812   N.am      1 RES1   0.0000
   126 C65       1.0561    5.3506   -0.6089   C.3       1 RES1   0.0000
   127 C66       2.5630    5.4236   -0.8375   C.3       1 RES1   0.0000
   128 C67       0.4339    4.4023    1.5623   C.ar      1 RES1   0.0000
   129 C68       1.1285    5.2712    2.3995   C.ar      1 RES1   0.0000
   130 C69       0.5826    5.6439    3.6199   C.ar      1 RES1   0.0000
   131 C70      -0.6748    5.2027    4.0309   C.ar      1 RES1   0.0000
   132 C71      -1.3306    5.6820    5.2908   C.3       1 RES1   0.0000
   133 C72      -1.2502    4.6804    6.4706   C.3       1 RES1   0.0000
   134 C73      -2.5331    3.8516    6.6258   C.3       1 RES1   0.0000
   135 C74      -2.5728    2.8236    7.7727   C.3       1 RES1   0.0000
   136 C75      -1.6984    1.5689    7.6739   C.3       1 RES1   0.0000
   137 C76      -1.8927    0.6356    8.8659   C.3       1 RES1   0.0000
   138 C77      -1.3377    4.3112    3.1982   C.ar      1 RES1   0.0000
   139 C78      -0.7780    3.8948    2.0076   C.ar      1 RES1   0.0000
   140 N7        0.0651    1.2514   -1.7565   N.ar      1 RES1   0.0000
   141 N8       -0.7680   -1.2482   -1.4815   N.ar      1 RES1   0.0000
   142 C79       1.2470   -5.0709    0.7073   C.ar      1 RES1   0.0000
   143 C80       2.1142   -6.0694    0.3077   C.ar      1 RES1   0.0000
   144 H51       7.5897   -4.8062    2.7096   H         1 RES1   0.0000
   145 H52       6.9790   -6.2519    3.5056   H         1 RES1   0.0000
   146 H53       5.8663   -4.9709    3.0453   H         1 RES1   0.0000
   147 H54       7.4861   -6.6495    1.0647   H         1 RES1   0.0000
   148 H55       6.2870   -5.4253    0.6441   H         1 RES1   0.0000
   149 H56       4.6209   -6.8202    2.0624   H         1 RES1   0.0000
   150 H57       5.8204   -8.1104    2.0153   H         1 RES1   0.0000
   151 H58       5.7497   -8.1790   -0.4305   H         1 RES1   0.0000
   152 H59       4.6932   -6.7910   -0.4957   H         1 RES1   0.0000
   153 H60       3.2785   -8.5408    1.1965   H         1 RES1   0.0000
   154 H61       4.0256   -9.6346    0.0514   H         1 RES1   0.0000
   155 H62       2.0502   -9.1772   -1.0754   H         1 RES1   0.0000
   156 H63       3.0723   -7.9384   -1.7681   H         1 RES1   0.0000
   157 H64      -0.1100   -8.1986   -1.0502   H         1 RES1   0.0000
   158 H65      -1.6531   -6.3962   -0.4154   H         1 RES1   0.0000
   159 H66      -1.0594   -3.2252    2.7308   H         1 RES1   0.0000
   160 H67      -0.7352   -4.9724    2.6860   H         1 RES1   0.0000
   161 H68      -3.3842   -3.6513    1.8793   H         1 RES1   0.0000
   162 H69      -3.0765   -4.4732    3.4076   H         1 RES1   0.0000
   163 H70      -3.0708   -5.3908    1.9005   H         1 RES1   0.0000
   164 H71      -1.4434   -4.4701   -1.9183   H         1 RES1   0.0000
   165 H72      -1.0808   -3.7656   -4.3020   H         1 RES1   0.0000
   166 H73      -0.5155   -1.4310   -4.8026   H         1 RES1   0.0000
   167 H74      -0.2253    0.7857   -5.0722   H         1 RES1   0.0000
   168 H75       0.6323    3.0658   -5.0457   H         1 RES1   0.0000
   169 H76       1.2820    4.1416   -2.9512   H         1 RES1   0.0000
   170 H77       0.7055    6.2164   -0.0464   H         1 RES1   0.0000
   171 H78       0.4855    5.3229   -1.5383   H         1 RES1   0.0000
   172 H79       3.0858    5.4236    0.1160   H         1 RES1   0.0000
   173 H80       2.8325    6.3331   -1.3636   H         1 RES1   0.0000
   174 H81       2.9066    4.5588   -1.4020   H         1 RES1   0.0000
   175 H82       2.0795    5.6855    2.1027   H         1 RES1   0.0000
   176 H83       1.1246    6.3376    4.2452   H         1 RES1   0.0000
   177 H84      -2.3810    5.8843    5.0709   H         1 RES1   0.0000
   178 H85      -0.8615    6.6191    5.5852   H         1 RES1   0.0000
   179 H86      -1.0995    5.2540    7.3853   H         1 RES1   0.0000
   180 H87      -0.3677    4.0515    6.3429   H         1 RES1   0.0000
   181 H88      -2.7864    3.3683    5.6797   H         1 RES1   0.0000
   182 H89      -3.3341    4.5644    6.8361   H         1 RES1   0.0000
   183 H90      -3.6094    2.4874    7.8494   H         1 RES1   0.0000
   184 H91      -2.3207    3.3386    8.6991   H         1 RES1   0.0000
   185 H92      -0.6411    1.8520    7.6329   H         1 RES1   0.0000
   186 H93      -1.9651    0.9935    6.7813   H         1 RES1   0.0000
   187 H94      -1.7031    1.1516    9.8021   H         1 RES1   0.0000
   188 H95      -1.2047   -0.2047    8.7902   H         1 RES1   0.0000
   189 H96      -2.9066    0.2431    8.8797   H         1 RES1   0.0000
   190 H97      -2.3373    4.0024    3.4579   H         1 RES1   0.0000
   191 H98      -1.3091    3.2176    1.3594   H         1 RES1   0.0000
   192 H99       1.6150   -4.2168    1.2654   H         1 RES1   0.0000
   193 H100      3.1603   -5.9562    0.5385   H         1 RES1   0.0000
@<TRIPOS>BOND
     1     1    16    1
     2     1    28    1
     3     1    44    1
     4     1    45    1
     5     1   112    1
     6     1   124    1
     7     1   140    1
     8     1   141    1
     9     2     3    1
    10     2    48    1
    11     2    49    1
    12     2    50    1
    13     3     4    1
    14     3    51    1
    15     3    52    1
    16     4     5    1
    17     4    53    1
    18     4    54    1
    19     5     6    1
    20     5    55    1
    21     5    56    1
    22     6     7    1
    23     6    57    1
    24     6    58    1
    25     7     8    1
    26     7    59    1
    27     7    60    1
    28     8     9    1
    29     8    47    2
    30     9    10    2
    31     9    61    1
    32    10    11    1
    33    10    62    1
    34    11    12    1
    35    11    46    2
    36    12    13    1
    37    12    15    1
    38    13    14    1
    39    13    63    1
    40    13    64    1
    41    14    65    1
    42    14    66    1
    43    14    67    1
    44    15    16    2
    45    15    17    1
    46    17    18    1
    47    17    45    2
    48    18    19    2
    49    18    68    1
    50    19    20    1
    51    19    69    1
    52    20    21    2
    53    20    70    1
    54    21    22    1
    55    21    45    1
    56    22    23    1
    57    22    44    2
    58    23    24    2
    59    23    71    1
    60    24    25    1
    61    24    72    1
    62    25    26    2
    63    25    73    1
    64    26    27    1
    65    26    44    1
    66    27    28    2
    67    27    29    1
    68    29    30    1
    69    29    32    1
    70    30    31    1
    71    30    74    1
    72    30    75    1
    73    31    76    1
    74    31    77    1
    75    31    78    1
    76    32    33    1
    77    32    43    2
    78    33    34    2
    79    33    79    1
    80    34    35    1
    81    34    80    1
    82    35    36    1
    83    35    42    2
    84    36    37    1
    85    36    81    1
    86    36    82    1
    87    37    38    1
    88    37    83    1
    89    37    84    1
    90    38    39    1
    91    38    85    1
    92    38    86    1
    93    39    40    1
    94    39    87    1
    95    39    88    1
    96    40    41    1
    97    40    89    1
    98    40    90    1
    99    41    91    1
   100    41    92    1
   101    41    93    1
   102    42    43    1
   103    42    94    1
   104    43    95    1
   105    46    47    1
   106    46    96    1
   107    47    97    1
   108    98    99    1
   109    98   144    1
   110    98   145    1
   111    98   146    1
   112    99   100    1
   113    99   147    1
   114    99   148    1
   115   100   101    1
   116   100   149    1
   117   100   150    1
   118   101   102    1
   119   101   151    1
   120   101   152    1
   121   102   103    1
   122   102   153    1
   123   102   154    1
   124   103   104    1
   125   103   155    1
   126   103   156    1
   127   104   105    1
   128   104   143    2
   129   105   106    2
   130   105   157    1
   131   106   107    1
   132   106   158    1
   133   107   108    1
   134   107   142    2
   135   108   109    1
   136   108   111    1
   137   109   110    1
   138   109   159    1
   139   109   160    1
   140   110   161    1
   141   110   162    1
   142   110   163    1
   143   111   112    2
   144   111   113    1
   145   113   114    1
   146   113   141    2
   147   114   115    2
   148   114   164    1
   149   115   116    1
   150   115   165    1
   151   116   117    2
   152   116   166    1
   153   117   118    1
   154   117   141    1
   155   118   119    1
   156   118   140    2
   157   119   120    2
   158   119   167    1
   159   120   121    1
   160   120   168    1
   161   121   122    2
   162   121   169    1
   163   122   123    1
   164   122   140    1
   165   123   124    2
   166   123   125    1
   167   125   126    1
   168   125   128    1
   169   126   127    1
   170   126   170    1
   171   126   171    1
   172   127   172    1
   173   127   173    1
   174   127   174    1
   175   128   129    1
   176   128   139    2
   177   129   130    2
   178   129   175    1
   179   130   131    1
   180   130   176    1
   181   131   132    1
   182   131   138    2
   183   132   133    1
   184   132   177    1
   185   132   178    1
   186   133   134    1
   187   133   179    1
   188   133   180    1
   189   134   135    1
   190   134   181    1
   191   134   182    1
   192   135   136    1
   193   135   183    1
   194   135   184    1
   195   136   137    1
   196   136   185    1
   197   136   186    1
   198   137   187    1
   199   137   188    1
   200   137   189    1
   201   138   139    1
   202   138   190    1
   203   139   191    1
   204   142   143    1
   205   142   192    1
   206   143   193    1
@<TRIPOS>SUBSTRUCTURE
     1 RES1      193 GROUP             0 ****  ****    0  
