@<TRIPOS>MOLECULE
YEMSEP_geometry_0_nunpairedes_0_charge_3 Charge: 3 Unpaired_Electrons: 5 XTB_Unpaired_Electrons: 0 XTB_Charge: 3
    95   105     1     0     0
SMALL
NoCharges
****
Generated from Architector

@<TRIPOS>ATOM
     1 Dy1       0.7471    0.5216   -0.4492   Dy        1 RES1   0.0000
     2 C1        0.8413    7.2996   -3.2584   C.3       1 RES1   0.0000
     3 C2       -0.0977    6.1033   -3.3050   C.3       1 RES1   0.0000
     4 C3       -0.4853    5.6656   -1.9012   C.3       1 RES1   0.0000
     5 C4       -1.5191    4.5445   -1.8481   C.3       1 RES1   0.0000
     6 C5       -1.2627    3.3883   -2.8347   C.3       1 RES1   0.0000
     7 C6        0.1787    3.0688   -2.9705   C.ar      1 RES1   0.0000
     8 N1        1.0292    3.2370   -2.0083   N.ar      1 RES1   0.0000
     9 N2        2.8239    1.6871   -1.6777   N.ar      1 RES1   0.0000
    10 C7        2.3245    2.8177   -2.5217   C.ar      1 RES1   0.0000
    11 C8        3.5278    3.5735   -1.9893   C.ar      1 RES1   0.0000
    12 C9        4.3184    4.6743   -1.9954   C.ar      1 RES1   0.0000
    13 C10       5.4472    4.5834   -1.1602   C.ar      1 RES1   0.0000
    14 C11       5.6667    3.4912   -0.3405   C.ar      1 RES1   0.0000
    15 C12       4.7953    2.3911   -0.3339   C.ar      1 RES1   0.0000
    16 C13       4.7270    1.4161    0.7642   C.ar      1 RES1   0.0000
    17 C14       5.8362    0.9319    1.4679   C.ar      1 RES1   0.0000
    18 C15       5.6339    0.3210    2.6966   C.ar      1 RES1   0.0000
    19 C16       4.3474    0.2723    3.2297   C.ar      1 RES1   0.0000
    20 C17       3.3005    0.7402    2.4471   C.ar      1 RES1   0.0000
    21 C18       1.9229    0.9931    2.8961   C.ar      1 RES1   0.0000
    22 N3        1.3890    2.0348    2.2398   N.ar      1 RES1   0.0000
    23 N4        0.1416    2.3024    2.4122   N.ar      1 RES1   0.0000
    24 C19      -0.6222    1.7286    3.3126   C.ar      1 RES1   0.0000
    25 C20      -2.0058    2.2533    3.4397   C.3       1 RES1   0.0000
    26 C21      -2.3189    3.3345    2.3986   C.3       1 RES1   0.0000
    27 C22      -1.3485    4.5128    2.3369   C.3       1 RES1   0.0000
    28 C23      -0.9503    5.1022    3.6823   C.3       1 RES1   0.0000
    29 C24      -2.1471    5.7574    4.3662   C.3       1 RES1   0.0000
    30 C25       0.0022    0.6907    4.1002   C.ar      1 RES1   0.0000
    31 C26      -0.6416    0.0584    5.2693   C.3       1 RES1   0.0000
    32 C27       0.2053    0.3928    6.5177   C.3       1 RES1   0.0000
    33 C28       0.4643    1.9057    6.6894   C.3       1 RES1   0.0000
    34 C29       1.8888    2.2039    7.1554   C.3       1 RES1   0.0000
    35 C30       2.9472    1.9153    6.0980   C.3       1 RES1   0.0000
    36 N5        1.2325    0.3318    3.8049   N.ar      1 RES1   0.0000
    37 N6        3.4838    1.2149    1.2033   N.ar      1 RES1   0.0000
    38 N7        3.7910    2.4947   -1.2069   N.ar      1 RES1   0.0000
    39 N8        2.1527    2.4249   -3.8700   N.ar      1 RES1   0.0000
    40 C31       0.8984    2.4740   -4.1418   C.ar      1 RES1   0.0000
    41 C32       0.2381    1.8634   -5.3102   C.3       1 RES1   0.0000
    42 C33       1.0791    0.8619   -6.1039   C.3       1 RES1   0.0000
    43 C34       2.1504    1.5336   -6.9778   C.3       1 RES1   0.0000
    44 C35       3.5433    1.6249   -6.3687   C.3       1 RES1   0.0000
    45 C36       4.2614    0.3099   -6.1722   C.3       1 RES1   0.0000
    46 H1        1.1991    7.5570   -4.2507   H         1 RES1   0.0000
    47 H2        1.6913    7.0992   -2.6061   H         1 RES1   0.0000
    48 H3        0.3292    8.1748   -2.8649   H         1 RES1   0.0000
    49 H4        0.3922    5.2766   -3.8434   H         1 RES1   0.0000
    50 H5       -0.9931    6.3685   -3.8704   H         1 RES1   0.0000
    51 H6       -0.8771    6.5250   -1.3589   H         1 RES1   0.0000
    52 H7        0.4158    5.3568   -1.3672   H         1 RES1   0.0000
    53 H8       -2.5043    4.9473   -2.0755   H         1 RES1   0.0000
    54 H9       -1.5553    4.1396   -0.8348   H         1 RES1   0.0000
    55 H10      -1.6742    3.6163   -3.8196   H         1 RES1   0.0000
    56 H11      -1.8153    2.5050   -2.4682   H         1 RES1   0.0000
    57 H12       4.1122    5.5638   -2.5644   H         1 RES1   0.0000
    58 H13       6.1326    5.4131   -1.1256   H         1 RES1   0.0000
    59 H14       6.5194    3.4757    0.3217   H         1 RES1   0.0000
    60 H15       6.8242    1.0150    1.0439   H         1 RES1   0.0000
    61 H16       6.4719   -0.0766    3.2575   H         1 RES1   0.0000
    62 H17       4.1640   -0.0993    4.2236   H         1 RES1   0.0000
    63 H18      -2.1226    2.6532    4.4499   H         1 RES1   0.0000
    64 H19      -2.7511    1.4589    3.3522   H         1 RES1   0.0000
    65 H20      -3.3172    3.7087    2.6201   H         1 RES1   0.0000
    66 H21      -2.3630    2.8635    1.4099   H         1 RES1   0.0000
    67 H22      -1.8054    5.2982    1.7313   H         1 RES1   0.0000
    68 H23      -0.4381    4.2115    1.8062   H         1 RES1   0.0000
    69 H24      -0.1726    5.8497    3.5213   H         1 RES1   0.0000
    70 H25      -0.5222    4.3396    4.3350   H         1 RES1   0.0000
    71 H26      -2.6162    6.4661    3.6896   H         1 RES1   0.0000
    72 H27      -1.8188    6.2952    5.2510   H         1 RES1   0.0000
    73 H28      -2.8898    5.0205    4.6611   H         1 RES1   0.0000
    74 H29      -0.6398   -1.0271    5.1362   H         1 RES1   0.0000
    75 H30      -1.6682    0.3916    5.3944   H         1 RES1   0.0000
    76 H31       1.1556   -0.1368    6.4367   H         1 RES1   0.0000
    77 H32      -0.3187    0.0054    7.3929   H         1 RES1   0.0000
    78 H33      -0.2429    2.3238    7.4076   H         1 RES1   0.0000
    79 H34       0.3012    2.4303    5.7375   H         1 RES1   0.0000
    80 H35       2.1058    1.6231    8.0545   H         1 RES1   0.0000
    81 H36       1.9500    3.2543    7.4433   H         1 RES1   0.0000
    82 H37       2.9328    0.8663    5.8101   H         1 RES1   0.0000
    83 H38       3.9338    2.1460    6.4879   H         1 RES1   0.0000
    84 H39       2.7877    2.5196    5.2032   H         1 RES1   0.0000
    85 H40      -0.0991    2.6447   -5.9922   H         1 RES1   0.0000
    86 H41      -0.6677    1.3723   -4.9436   H         1 RES1   0.0000
    87 H42       0.3851    0.3118   -6.7423   H         1 RES1   0.0000
    88 H43       1.5427    0.1454   -5.4220   H         1 RES1   0.0000
    89 H44       1.8226    2.5401   -7.2444   H         1 RES1   0.0000
    90 H45       2.2302    0.9718   -7.9129   H         1 RES1   0.0000
    91 H46       3.4099    2.1112   -5.3830   H         1 RES1   0.0000
    92 H47       4.1604    2.3136   -6.9562   H         1 RES1   0.0000
    93 H48       3.6491   -0.4168   -5.6385   H         1 RES1   0.0000
    94 H49       5.1983    0.4582   -5.6389   H         1 RES1   0.0000
    95 H50       4.5123   -0.1298   -7.1416   H         1 RES1   0.0000
@<TRIPOS>BOND
     1     1     8    1
     2     1     9    1
     3     1    22    1
     4     1    23    1
     5     1    36    1
     6     1    37    1
     7     1    38    1
     8     1    39    1
     9     2     3    1
    10     2    46    1
    11     2    47    1
    12     2    48    1
    13     3     4    1
    14     3    49    1
    15     3    50    1
    16     4     5    1
    17     4    51    1
    18     4    52    1
    19     5     6    1
    20     5    53    1
    21     5    54    1
    22     6     7    1
    23     6    55    1
    24     6    56    1
    25     7     8    1
    26     7    40    2
    27     8     9    2
    28     9    10    1
    29    10    11    1
    30    10    39    2
    31    11    12    1
    32    11    38    2
    33    12    13    2
    34    12    57    1
    35    13    14    1
    36    13    58    1
    37    14    15    2
    38    14    59    1
    39    15    16    1
    40    15    38    1
    41    16    17    1
    42    16    37    2
    43    17    18    2
    44    17    60    1
    45    18    19    1
    46    18    61    1
    47    19    20    2
    48    19    62    1
    49    20    21    1
    50    20    37    1
    51    21    22    1
    52    21    36    2
    53    22    23    2
    54    23    24    1
    55    24    25    1
    56    24    30    2
    57    25    26    1
    58    25    63    1
    59    25    64    1
    60    26    27    1
    61    26    65    1
    62    26    66    1
    63    27    28    1
    64    27    67    1
    65    27    68    1
    66    28    29    1
    67    28    69    1
    68    28    70    1
    69    29    71    1
    70    29    72    1
    71    29    73    1
    72    30    31    1
    73    30    36    1
    74    31    32    1
    75    31    74    1
    76    31    75    1
    77    32    33    1
    78    32    76    1
    79    32    77    1
    80    33    34    1
    81    33    78    1
    82    33    79    1
    83    34    35    1
    84    34    80    1
    85    34    81    1
    86    35    82    1
    87    35    83    1
    88    35    84    1
    89    39    40    1
    90    40    41    1
    91    41    42    1
    92    41    85    1
    93    41    86    1
    94    42    43    1
    95    42    87    1
    96    42    88    1
    97    43    44    1
    98    43    89    1
    99    43    90    1
   100    44    45    1
   101    44    91    1
   102    44    92    1
   103    45    93    1
   104    45    94    1
   105    45    95    1
@<TRIPOS>SUBSTRUCTURE
     1 RES1       95 GROUP             0 ****  ****    0  
