@<TRIPOS>MOLECULE
ICIGOT_geomtry_0_nunpairedes_0_charge_3 Charge: 3 Unpaired_Electrons: 5 XTB_Unpaired_Electrons: 0 XTB_Charge: 3
   191   194     1     0     0
SMALL
NoCharges
****
Generated from Architector

@<TRIPOS>ATOM
     1 Dy1       0.0416   -0.2848   -0.0179   Dy        1 RES1   0.0000
     2 C1        1.1278   -3.2376   -1.7765   C.3       1 RES1   0.0000
     3 C2        0.8194   -2.8762   -3.2285   C.3       1 RES1   0.0000
     4 C3       -0.6099   -3.2435   -3.6552   C.3       1 RES1   0.0000
     5 C4       -1.0635   -2.5996   -4.9796   C.3       1 RES1   0.0000
     6 C5       -0.9018   -1.0739   -5.1480   C.3       1 RES1   0.0000
     7 C6       -2.1025   -0.1826   -4.7989   C.3       1 RES1   0.0000
     8 C7       -1.8621    1.2840   -5.1738   C.3       1 RES1   0.0000
     9 C8       -0.7754    2.0110   -4.3581   C.3       1 RES1   0.0000
    10 N1       -1.2511    2.6839   -3.1401   N.am      1 RES1   0.0000
    11 C9       -1.9850    3.9078   -3.3978   C.3       1 RES1   0.0000
    12 C10      -0.8971    2.2354   -1.9431   C.2       1 RES1   0.0000
    13 O1       -0.1304    1.2593   -1.7876   O.2       1 RES1   0.0000
    14 C11      -1.4251    2.8979   -0.6521   C.3       1 RES1   0.0000
    15 O2       -1.5430    1.9136    0.3839   O.3       1 RES1   0.0000
    16 C12      -2.8848    1.6540    0.8220   C.3       1 RES1   0.0000
    17 C13      -3.1603    0.1506    0.7359   C.2       1 RES1   0.0000
    18 O3       -2.1609   -0.5631    0.5010   O.2       1 RES1   0.0000
    19 N2       -4.3779   -0.3570    0.8547   N.am      1 RES1   0.0000
    20 C14      -5.5853    0.4168    1.1207   C.3       1 RES1   0.0000
    21 C15      -6.4952    0.6081   -0.1052   C.3       1 RES1   0.0000
    22 C16      -5.8694    1.3775   -1.2766   C.3       1 RES1   0.0000
    23 C17      -6.1798    2.8804   -1.2823   C.3       1 RES1   0.0000
    24 C18      -5.8140    3.6524   -0.0169   C.3       1 RES1   0.0000
    25 C19      -6.0181    5.1575   -0.1595   C.3       1 RES1   0.0000
    26 C20      -4.9878    5.8141   -1.0750   C.3       1 RES1   0.0000
    27 C21      -5.1436    7.3290   -1.0697   C.3       1 RES1   0.0000
    28 C22      -4.5624   -1.7938    0.6000   C.3       1 RES1   0.0000
    29 C23      -5.0304   -2.6312    1.7986   C.3       1 RES1   0.0000
    30 C24      -3.9162   -3.2290    2.6595   C.3       1 RES1   0.0000
    31 C25      -3.0560   -2.2398    3.4552   C.3       1 RES1   0.0000
    32 C26      -3.6885   -1.7762    4.7700   C.3       1 RES1   0.0000
    33 C27      -4.7845   -0.7249    4.6377   C.3       1 RES1   0.0000
    34 C28      -5.1770   -0.1578    5.9996   C.3       1 RES1   0.0000
    35 C29      -6.2338    0.9327    5.8858   C.3       1 RES1   0.0000
    36 H1        2.1953   -3.1370   -1.5923   H         1 RES1   0.0000
    37 H2        0.5873   -2.5655   -1.0729   H         1 RES1   0.0000
    38 H3        0.8487   -4.2677   -1.5724   H         1 RES1   0.0000
    39 H4        1.0187   -1.8082   -3.3447   H         1 RES1   0.0000
    40 H5        1.5121   -3.4047   -3.8850   H         1 RES1   0.0000
    41 H6       -0.6488   -4.3246   -3.7993   H         1 RES1   0.0000
    42 H7       -1.3230   -3.0451   -2.8515   H         1 RES1   0.0000
    43 H8       -0.4798   -3.0672   -5.7737   H         1 RES1   0.0000
    44 H9       -2.1053   -2.8772   -5.1483   H         1 RES1   0.0000
    45 H10      -0.0160   -0.7361   -4.6096   H         1 RES1   0.0000
    46 H11      -0.6897   -0.8999   -6.2041   H         1 RES1   0.0000
    47 H12      -2.9609   -0.5364   -5.3707   H         1 RES1   0.0000
    48 H13      -2.3765   -0.2142   -3.7447   H         1 RES1   0.0000
    49 H14      -1.5567    1.3213   -6.2186   H         1 RES1   0.0000
    50 H15      -2.8100    1.8179   -5.1034   H         1 RES1   0.0000
    51 H16       0.0194    1.3228   -4.0679   H         1 RES1   0.0000
    52 H17      -0.3379    2.7829   -4.9933   H         1 RES1   0.0000
    53 H18      -1.3918    4.5576   -4.0427   H         1 RES1   0.0000
    54 H19      -2.9063    3.6803   -3.9315   H         1 RES1   0.0000
    55 H20      -2.2151    4.4571   -2.4930   H         1 RES1   0.0000
    56 H21      -0.6796    3.6359   -0.3269   H         1 RES1   0.0000
    57 H22      -2.3809    3.4038   -0.7813   H         1 RES1   0.0000
    58 H23      -3.0001    2.0248    1.8488   H         1 RES1   0.0000
    59 H24      -3.5885    2.1708    0.1707   H         1 RES1   0.0000
    60 H25      -6.1689   -0.1263    1.8671   H         1 RES1   0.0000
    61 H26      -5.3071    1.3762    1.5536   H         1 RES1   0.0000
    62 H27      -6.8395   -0.3686   -0.4531   H         1 RES1   0.0000
    63 H28      -7.3848    1.1378    0.2400   H         1 RES1   0.0000
    64 H29      -4.7874    1.1905   -1.3069   H         1 RES1   0.0000
    65 H30      -6.2794    0.9655   -2.2019   H         1 RES1   0.0000
    66 H31      -5.6668    3.3113   -2.1422   H         1 RES1   0.0000
    67 H32      -7.2494    3.0020   -1.4522   H         1 RES1   0.0000
    68 H33      -6.4212    3.2907    0.8116   H         1 RES1   0.0000
    69 H34      -4.7643    3.4999    0.2422   H         1 RES1   0.0000
    70 H35      -7.0192    5.3634   -0.5310   H         1 RES1   0.0000
    71 H36      -5.9342    5.6129    0.8268   H         1 RES1   0.0000
    72 H37      -3.9790    5.5525   -0.7290   H         1 RES1   0.0000
    73 H38      -5.0987    5.4442   -2.0969   H         1 RES1   0.0000
    74 H39      -4.9832    7.7218   -0.0688   H         1 RES1   0.0000
    75 H40      -4.4342    7.8015   -1.7446   H         1 RES1   0.0000
    76 H41      -6.1462    7.6015   -1.3852   H         1 RES1   0.0000
    77 H42      -5.3100   -1.8799   -0.1921   H         1 RES1   0.0000
    78 H43      -3.6116   -2.1802    0.2207   H         1 RES1   0.0000
    79 H44      -5.7098   -2.0580    2.4246   H         1 RES1   0.0000
    80 H45      -5.6080   -3.4676    1.4008   H         1 RES1   0.0000
    81 H46      -4.3861   -3.9162    3.3665   H         1 RES1   0.0000
    82 H47      -3.2717   -3.8329    2.0141   H         1 RES1   0.0000
    83 H48      -2.1278   -2.7589    3.7150   H         1 RES1   0.0000
    84 H49      -2.7858   -1.3777    2.8377   H         1 RES1   0.0000
    85 H50      -4.0859   -2.6455    5.2927   H         1 RES1   0.0000
    86 H51      -2.8986   -1.3593    5.3973   H         1 RES1   0.0000
    87 H52      -4.4335    0.0880    3.9948   H         1 RES1   0.0000
    88 H53      -5.6770   -1.1547    4.1854   H         1 RES1   0.0000
    89 H54      -5.5568   -0.9669    6.6232   H         1 RES1   0.0000
    90 H55      -4.2913    0.2486    6.4906   H         1 RES1   0.0000
    91 H56      -7.1372    0.5494    5.4184   H         1 RES1   0.0000
    92 H57      -6.4967    1.3062    6.8709   H         1 RES1   0.0000
    93 H58      -5.8661    1.7685    5.2929   H         1 RES1   0.0000
    94 C30      -1.1444   -5.2212    0.3404   C.3       1 RES1   0.0000
    95 C31      -0.3468   -5.2552    1.6473   C.3       1 RES1   0.0000
    96 C32       1.1232   -4.8540    1.4755   C.3       1 RES1   0.0000
    97 C33       1.9106   -4.9230    2.7871   C.3       1 RES1   0.0000
    98 C34       1.7671   -3.7152    3.7218   C.3       1 RES1   0.0000
    99 C35       2.6322   -2.5198    3.3023   C.3       1 RES1   0.0000
   100 C36       2.7799   -1.4706    4.4119   C.3       1 RES1   0.0000
   101 C37       1.5305   -0.5966    4.6244   C.3       1 RES1   0.0000
   102 N3        1.6414    0.7171    3.9808   N.am      1 RES1   0.0000
   103 C38       1.9813    1.8741    4.7867   C.3       1 RES1   0.0000
   104 C39       1.3251    0.8222    2.7059   C.2       1 RES1   0.0000
   105 O4        0.8925   -0.1425    2.0375   O.2       1 RES1   0.0000
   106 C40       1.3981    2.1681    1.9828   C.3       1 RES1   0.0000
   107 O5        1.3612    1.9331    0.5780   O.3       1 RES1   0.0000
   108 C41       2.6235    1.9819   -0.0883   C.3       1 RES1   0.0000
   109 C42       3.0111    0.6297   -0.7036   C.2       1 RES1   0.0000
   110 O6        2.1632   -0.3019   -0.6507   O.2       1 RES1   0.0000
   111 N4        4.1936    0.4970   -1.2753   N.am      1 RES1   0.0000
   112 C43       5.2418    1.5123   -1.2570   C.3       1 RES1   0.0000
   113 C44       6.3617    1.2275   -0.2420   C.3       1 RES1   0.0000
   114 C45       5.9197    1.1955    1.2274   C.3       1 RES1   0.0000
   115 C46       6.1349    2.5175    1.9766   C.3       1 RES1   0.0000
   116 C47       5.4894    3.7564    1.3601   C.3       1 RES1   0.0000
   117 C48       5.6665    5.0073    2.2156   C.3       1 RES1   0.0000
   118 C49       4.8122    4.9889    3.4805   C.3       1 RES1   0.0000
   119 C50       4.9242    6.3092    4.2312   C.3       1 RES1   0.0000
   120 C51       4.5787   -0.8019   -1.8400   C.3       1 RES1   0.0000
   121 C52       5.0393   -0.7824   -3.3052   C.3       1 RES1   0.0000
   122 C53       3.9288   -1.0276   -4.3262   C.3       1 RES1   0.0000
   123 C54       2.8313    0.0377   -4.4237   C.3       1 RES1   0.0000
   124 C55       3.1684    1.2294   -5.3217   C.3       1 RES1   0.0000
   125 C56       4.1002    2.2677   -4.7110   C.3       1 RES1   0.0000
   126 C57       4.2017    3.5074   -5.5956   C.3       1 RES1   0.0000
   127 C58       5.1491    4.5497   -5.0181   C.3       1 RES1   0.0000
   128 H59      -2.1877   -5.4659    0.5252   H         1 RES1   0.0000
   129 H60      -1.1098   -4.2619   -0.1829   H         1 RES1   0.0000
   130 H61      -0.7483   -5.9691   -0.3400   H         1 RES1   0.0000
   131 H62      -0.8358   -4.6531    2.4193   H         1 RES1   0.0000
   132 H63      -0.3738   -6.2808    2.0162   H         1 RES1   0.0000
   133 H64       1.5731   -5.5582    0.7757   H         1 RES1   0.0000
   134 H65       1.2273   -3.8563    1.0394   H         1 RES1   0.0000
   135 H66       1.5998   -5.8167    3.3272   H         1 RES1   0.0000
   136 H67       2.9682   -5.0432    2.5523   H         1 RES1   0.0000
   137 H68       0.7155   -3.4299    3.8242   H         1 RES1   0.0000
   138 H69       2.0959   -4.0323    4.7129   H         1 RES1   0.0000
   139 H70       3.6306   -2.9013    3.0836   H         1 RES1   0.0000
   140 H71       2.2467   -2.0494    2.3909   H         1 RES1   0.0000
   141 H72       3.0053   -1.9885    5.3447   H         1 RES1   0.0000
   142 H73       3.6360   -0.8275    4.1923   H         1 RES1   0.0000
   143 H74       0.6454   -1.0889    4.2091   H         1 RES1   0.0000
   144 H75       1.3564   -0.4209    5.6852   H         1 RES1   0.0000
   145 H76       2.1514    1.5598    5.8115   H         1 RES1   0.0000
   146 H77       2.8813    2.3794    4.4347   H         1 RES1   0.0000
   147 H78       1.1530    2.5828    4.7914   H         1 RES1   0.0000
   148 H79       0.4929    2.7341    2.2393   H         1 RES1   0.0000
   149 H80       2.2655    2.7676    2.2652   H         1 RES1   0.0000
   150 H81       2.5375    2.7317   -0.8839   H         1 RES1   0.0000
   151 H82       3.3998    2.2956    0.6104   H         1 RES1   0.0000
   152 H83       5.7030    1.5254   -2.2451   H         1 RES1   0.0000
   153 H84       4.8034    2.4920   -1.0870   H         1 RES1   0.0000
   154 H85       6.8389    0.2814   -0.5036   H         1 RES1   0.0000
   155 H86       7.1180    2.0027   -0.3774   H         1 RES1   0.0000
   156 H87       4.8764    0.8611    1.2902   H         1 RES1   0.0000
   157 H88       6.5118    0.4354    1.7428   H         1 RES1   0.0000
   158 H89       5.7727    2.3740    2.9947   H         1 RES1   0.0000
   159 H90       7.2079    2.6969    2.0408   H         1 RES1   0.0000
   160 H91       5.9262    3.9366    0.3787   H         1 RES1   0.0000
   161 H92       4.4133    3.6114    1.2303   H         1 RES1   0.0000
   162 H93       6.7132    5.1288    2.4854   H         1 RES1   0.0000
   163 H94       5.3788    5.8761    1.6242   H         1 RES1   0.0000
   164 H95       3.7630    4.8164    3.2064   H         1 RES1   0.0000
   165 H96       5.1275    4.1742    4.1365   H         1 RES1   0.0000
   166 H97       4.5767    7.1291    3.6075   H         1 RES1   0.0000
   167 H98       4.3343    6.2951    5.1441   H         1 RES1   0.0000
   168 H99       5.9594    6.4998    4.4978   H         1 RES1   0.0000
   169 H100      5.3882   -1.1941   -1.2191   H         1 RES1   0.0000
   170 H101      3.7149   -1.4620   -1.7351   H         1 RES1   0.0000
   171 H102      5.5655    0.1379   -3.5470   H         1 RES1   0.0000
   172 H103      5.7606   -1.5921   -3.4231   H         1 RES1   0.0000
   173 H104      4.3921   -1.1330   -5.3093   H         1 RES1   0.0000
   174 H105      3.4662   -1.9900   -4.0931   H         1 RES1   0.0000
   175 H106      1.9720   -0.4567   -4.8811   H         1 RES1   0.0000
   176 H107      2.5321    0.3801   -3.4248   H         1 RES1   0.0000
   177 H108      3.6053    0.8538   -6.2462   H         1 RES1   0.0000
   178 H109      2.2338    1.7275   -5.5893   H         1 RES1   0.0000
   179 H110      3.7297    2.5557   -3.7222   H         1 RES1   0.0000
   180 H111      5.1010    1.8554   -4.5936   H         1 RES1   0.0000
   181 H112      4.5524    3.2090   -6.5833   H         1 RES1   0.0000
   182 H113      3.2099    3.9464   -5.7189   H         1 RES1   0.0000
   183 H114      6.1488    4.1388   -4.9063   H         1 RES1   0.0000
   184 H115      5.2113    5.4112   -5.6760   H         1 RES1   0.0000
   185 H116      4.8052    4.8892   -4.0428   H         1 RES1   0.0000
   186 O7       -0.4287   -2.2590    1.3149   O.3       1 RES1   0.0000
   187 H117     -0.9096   -3.0809    1.1176   H         1 RES1   0.0000
   188 H118     -0.1749   -2.3342    2.2467   H         1 RES1   0.0000
   189 O8       -1.3061   -1.0215   -1.8453   O.3       1 RES1   0.0000
   190 H119     -2.2637   -1.0944   -1.9882   H         1 RES1   0.0000
   191 H120     -0.8854   -1.1574   -2.7156   H         1 RES1   0.0000
@<TRIPOS>BOND
     1     1    13    1
     2     1    15    1
     3     1    18    1
     4     1   105    1
     5     1   107    1
     6     1   110    1
     7     1   186    1
     8     1   189    1
     9     2     3    1
    10     2    36    1
    11     2    37    1
    12     2    38    1
    13     3     4    1
    14     3    39    1
    15     3    40    1
    16     4     5    1
    17     4    41    1
    18     4    42    1
    19     5     6    1
    20     5    43    1
    21     5    44    1
    22     6     7    1
    23     6    45    1
    24     6    46    1
    25     7     8    1
    26     7    47    1
    27     7    48    1
    28     8     9    1
    29     8    49    1
    30     8    50    1
    31     9    10    1
    32     9    51    1
    33     9    52    1
    34    10    11    1
    35    10    12    1
    36    11    53    1
    37    11    54    1
    38    11    55    1
    39    12    13    2
    40    12    14    1
    41    14    15    1
    42    14    56    1
    43    14    57    1
    44    15    16    1
    45    16    17    1
    46    16    58    1
    47    16    59    1
    48    17    18    2
    49    17    19    1
    50    19    20    1
    51    19    28    1
    52    20    21    1
    53    20    60    1
    54    20    61    1
    55    21    22    1
    56    21    62    1
    57    21    63    1
    58    22    23    1
    59    22    64    1
    60    22    65    1
    61    23    24    1
    62    23    66    1
    63    23    67    1
    64    24    25    1
    65    24    68    1
    66    24    69    1
    67    25    26    1
    68    25    70    1
    69    25    71    1
    70    26    27    1
    71    26    72    1
    72    26    73    1
    73    27    74    1
    74    27    75    1
    75    27    76    1
    76    28    29    1
    77    28    77    1
    78    28    78    1
    79    29    30    1
    80    29    79    1
    81    29    80    1
    82    30    31    1
    83    30    81    1
    84    30    82    1
    85    31    32    1
    86    31    83    1
    87    31    84    1
    88    32    33    1
    89    32    85    1
    90    32    86    1
    91    33    34    1
    92    33    87    1
    93    33    88    1
    94    34    35    1
    95    34    89    1
    96    34    90    1
    97    35    91    1
    98    35    92    1
    99    35    93    1
   100    94    95    1
   101    94   128    1
   102    94   129    1
   103    94   130    1
   104    95    96    1
   105    95   131    1
   106    95   132    1
   107    96    97    1
   108    96   133    1
   109    96   134    1
   110    97    98    1
   111    97   135    1
   112    97   136    1
   113    98    99    1
   114    98   137    1
   115    98   138    1
   116    99   100    1
   117    99   139    1
   118    99   140    1
   119   100   101    1
   120   100   141    1
   121   100   142    1
   122   101   102    1
   123   101   143    1
   124   101   144    1
   125   102   103    1
   126   102   104    1
   127   103   145    1
   128   103   146    1
   129   103   147    1
   130   104   105    2
   131   104   106    1
   132   106   107    1
   133   106   148    1
   134   106   149    1
   135   107   108    1
   136   108   109    1
   137   108   150    1
   138   108   151    1
   139   109   110    2
   140   109   111    1
   141   111   112    1
   142   111   120    1
   143   112   113    1
   144   112   152    1
   145   112   153    1
   146   113   114    1
   147   113   154    1
   148   113   155    1
   149   114   115    1
   150   114   156    1
   151   114   157    1
   152   115   116    1
   153   115   158    1
   154   115   159    1
   155   116   117    1
   156   116   160    1
   157   116   161    1
   158   117   118    1
   159   117   162    1
   160   117   163    1
   161   118   119    1
   162   118   164    1
   163   118   165    1
   164   119   166    1
   165   119   167    1
   166   119   168    1
   167   120   121    1
   168   120   169    1
   169   120   170    1
   170   121   122    1
   171   121   171    1
   172   121   172    1
   173   122   123    1
   174   122   173    1
   175   122   174    1
   176   123   124    1
   177   123   175    1
   178   123   176    1
   179   124   125    1
   180   124   177    1
   181   124   178    1
   182   125   126    1
   183   125   179    1
   184   125   180    1
   185   126   127    1
   186   126   181    1
   187   126   182    1
   188   127   183    1
   189   127   184    1
   190   127   185    1
   191   186   187    1
   192   186   188    1
   193   189   190    1
   194   189   191    1
@<TRIPOS>SUBSTRUCTURE
     1 RES1      191 GROUP             0 ****  ****    0  
