@<TRIPOS>MOLECULE
YEMSEP_geometry_0_nunpairedes_0_charge_2 Charge: 2 Unpaired_Electrons: 5 XTB_Unpaired_Electrons: 0 XTB_Charge: 2
   231   235     1     0     0
SMALL
NoCharges
****
Generated from Architector

@<TRIPOS>ATOM
     1 Dy1       0.0019    0.4075   -0.1195   Dy        1 RES1   0.0000
     2 C1       -1.1381    1.0808   -6.6931   C.3       1 RES1   0.0000
     3 C2       -0.7279   -0.2198   -6.0150   C.3       1 RES1   0.0000
     4 C3       -1.6678   -1.3614   -6.3933   C.3       1 RES1   0.0000
     5 C4       -1.3247   -2.6727   -5.6885   C.3       1 RES1   0.0000
     6 C5       -0.1276   -3.3747   -6.3301   C.3       1 RES1   0.0000
     7 C6        0.3006   -4.6405   -5.5849   C.3       1 RES1   0.0000
     8 C7        1.1101   -4.3107   -4.3303   C.3       1 RES1   0.0000
     9 C8        1.4097   -5.5393   -3.4699   C.3       1 RES1   0.0000
    10 C9        0.2168   -6.0298   -2.6461   C.3       1 RES1   0.0000
    11 C10      -0.1303   -5.1901   -1.4078   C.3       1 RES1   0.0000
    12 N1       -0.7842   -3.9024   -1.6496   N.am      1 RES1   0.0000
    13 C11      -2.1078   -3.9833   -2.2891   C.3       1 RES1   0.0000
    14 C12      -3.1921   -4.7159   -1.4893   C.3       1 RES1   0.0000
    15 C13      -4.3986   -5.1442   -2.3518   C.3       1 RES1   0.0000
    16 C14      -5.0000   -4.0770   -3.2698   C.3       1 RES1   0.0000
    17 C15      -5.4920   -2.8424   -2.5181   C.3       1 RES1   0.0000
    18 C16      -5.5762   -1.6014   -3.4128   C.3       1 RES1   0.0000
    19 C17      -5.3127   -0.3070   -2.6433   C.3       1 RES1   0.0000
    20 C18      -3.8871   -0.2164   -2.0904   C.3       1 RES1   0.0000
    21 C19      -2.7969    0.0728   -3.1236   C.3       1 RES1   0.0000
    22 C20      -2.7806    1.5273   -3.5687   C.3       1 RES1   0.0000
    23 C21      -0.2383   -2.7342   -1.3238   C.2       1 RES1   0.0000
    24 O1       -0.8516   -1.6516   -1.2678   O.2       1 RES1   0.0000
    25 C22       1.2579   -2.6825   -0.9686   C.3       1 RES1   0.0000
    26 O2        1.6159   -1.3077   -0.9505   O.3       1 RES1   0.0000
    27 C23       2.9860   -1.0708   -0.6303   C.3       1 RES1   0.0000
    28 C24       3.1005    0.4327   -0.3433   C.2       1 RES1   0.0000
    29 O3        2.0615    1.1010   -0.4918   O.2       1 RES1   0.0000
    30 N2        4.2529    0.9793    0.0208   N.am      1 RES1   0.0000
    31 C25       4.3261    2.4483    0.0604   C.3       1 RES1   0.0000
    32 C26       4.2699    3.1929    1.4057   C.3       1 RES1   0.0000
    33 C27       2.8844    3.3711    2.0337   C.3       1 RES1   0.0000
    34 C28       2.4347    2.2419    2.9622   C.3       1 RES1   0.0000
    35 C29       3.2771    2.1119    4.2330   C.3       1 RES1   0.0000
    36 C30       2.6055    1.2058    5.2579   C.3       1 RES1   0.0000
    37 C31       5.5342    0.2855    0.1167   C.3       1 RES1   0.0000
    38 C32       6.1841    0.4620    1.4967   C.3       1 RES1   0.0000
    39 C33       7.3554   -0.4867    1.7831   C.3       1 RES1   0.0000
    40 C34       8.6943   -0.1043    1.1479   C.3       1 RES1   0.0000
    41 C35       8.8526   -0.4104   -0.3418   C.3       1 RES1   0.0000
    42 C36       8.6361   -1.8762   -0.6993   C.3       1 RES1   0.0000
    43 H1       -0.5370    1.9129   -6.3326   H         1 RES1   0.0000
    44 H2       -2.1836    1.2995   -6.4932   H         1 RES1   0.0000
    45 H3       -1.0141    1.0027   -7.7696   H         1 RES1   0.0000
    46 H4       -0.7314   -0.0911   -4.9292   H         1 RES1   0.0000
    47 H5        0.2940   -0.4622   -6.3033   H         1 RES1   0.0000
    48 H6       -1.6437   -1.5118   -7.4721   H         1 RES1   0.0000
    49 H7       -2.6870   -1.0691   -6.1358   H         1 RES1   0.0000
    50 H8       -2.1885   -3.3422   -5.7318   H         1 RES1   0.0000
    51 H9       -1.1209   -2.4554   -4.6359   H         1 RES1   0.0000
    52 H10       0.7202   -2.6890   -6.3733   H         1 RES1   0.0000
    53 H11      -0.3916   -3.6350   -7.3561   H         1 RES1   0.0000
    54 H12       0.9133   -5.2583   -6.2434   H         1 RES1   0.0000
    55 H13      -0.5871   -5.2232   -5.3304   H         1 RES1   0.0000
    56 H14       0.5762   -3.5654   -3.7406   H         1 RES1   0.0000
    57 H15       2.0534   -3.8621   -4.6477   H         1 RES1   0.0000
    58 H16       2.2466   -5.3370   -2.7960   H         1 RES1   0.0000
    59 H17       1.7203   -6.3518   -4.1290   H         1 RES1   0.0000
    60 H18       0.4495   -7.0273   -2.2689   H         1 RES1   0.0000
    61 H19      -0.6606   -6.1264   -3.2840   H         1 RES1   0.0000
    62 H20       0.7703   -5.0455   -0.8092   H         1 RES1   0.0000
    63 H21      -0.8360   -5.7710   -0.8022   H         1 RES1   0.0000
    64 H22      -1.9565   -4.5046   -3.2366   H         1 RES1   0.0000
    65 H23      -2.4407   -2.9699   -2.5112   H         1 RES1   0.0000
    66 H24      -3.5213   -4.0911   -0.6557   H         1 RES1   0.0000
    67 H25      -2.7898   -5.6357   -1.0622   H         1 RES1   0.0000
    68 H26      -5.1761   -5.5057   -1.6735   H         1 RES1   0.0000
    69 H27      -4.0958   -5.9842   -2.9802   H         1 RES1   0.0000
    70 H28      -5.8401   -4.5185   -3.8071   H         1 RES1   0.0000
    71 H29      -4.2652   -3.7824   -4.0223   H         1 RES1   0.0000
    72 H30      -4.8087   -2.6416   -1.6948   H         1 RES1   0.0000
    73 H31      -6.4661   -3.0445   -2.0708   H         1 RES1   0.0000
    74 H32      -6.5620   -1.5512   -3.8724   H         1 RES1   0.0000
    75 H33      -4.8553   -1.6770   -4.2292   H         1 RES1   0.0000
    76 H34      -6.0332   -0.2315   -1.8202   H         1 RES1   0.0000
    77 H35      -5.4822    0.5445   -3.3042   H         1 RES1   0.0000
    78 H36      -3.6240   -1.1325   -1.5579   H         1 RES1   0.0000
    79 H37      -3.8608    0.5840   -1.3671   H         1 RES1   0.0000
    80 H38      -2.9378   -0.5793   -3.9818   H         1 RES1   0.0000
    81 H39      -1.8105   -0.1436   -2.6776   H         1 RES1   0.0000
    82 H40      -3.7233    1.8175   -4.0277   H         1 RES1   0.0000
    83 H41      -1.9870    1.7104   -4.2855   H         1 RES1   0.0000
    84 H42      -2.5884    2.1553   -2.7057   H         1 RES1   0.0000
    85 H43       1.8674   -3.2166   -1.7027   H         1 RES1   0.0000
    86 H44       1.4186   -3.1262    0.0244   H         1 RES1   0.0000
    87 H45       3.6173   -1.3310   -1.4893   H         1 RES1   0.0000
    88 H46       3.2754   -1.6511    0.2505   H         1 RES1   0.0000
    89 H47       3.5142    2.8231   -0.5676   H         1 RES1   0.0000
    90 H48       5.2732    2.7025   -0.4167   H         1 RES1   0.0000
    91 H49       4.6534    4.1900    1.1719   H         1 RES1   0.0000
    92 H50       4.9403    2.7577    2.1427   H         1 RES1   0.0000
    93 H51       2.1516    3.5037    1.2350   H         1 RES1   0.0000
    94 H52       2.8981    4.2936    2.6181   H         1 RES1   0.0000
    95 H53       2.4170    1.2907    2.4179   H         1 RES1   0.0000
    96 H54       1.4087    2.4531    3.2676   H         1 RES1   0.0000
    97 H55       3.4169    3.0965    4.6803   H         1 RES1   0.0000
    98 H56       4.2677    1.7136    4.0059   H         1 RES1   0.0000
    99 H57       1.6644    1.6359    5.5884   H         1 RES1   0.0000
   100 H58       3.2416    1.0690    6.1285   H         1 RES1   0.0000
   101 H59       2.3943    0.2304    4.8259   H         1 RES1   0.0000
   102 H60       6.1784    0.7146   -0.6545   H         1 RES1   0.0000
   103 H61       5.4177   -0.7754   -0.1086   H         1 RES1   0.0000
   104 H62       5.4095    0.3019    2.2537   H         1 RES1   0.0000
   105 H63       6.5462    1.4856    1.5885   H         1 RES1   0.0000
   106 H64       7.0946   -1.5065    1.5049   H         1 RES1   0.0000
   107 H65       7.4978   -0.4792    2.8644   H         1 RES1   0.0000
   108 H66       9.4745   -0.6486    1.6815   H         1 RES1   0.0000
   109 H67       8.8779    0.9585    1.3139   H         1 RES1   0.0000
   110 H68       9.8708   -0.1402   -0.6216   H         1 RES1   0.0000
   111 H69       8.1872    0.2123   -0.9405   H         1 RES1   0.0000
   112 H70       9.2885   -2.5113   -0.1065   H         1 RES1   0.0000
   113 H71       8.8669   -2.0385   -1.7489   H         1 RES1   0.0000
   114 H72       7.6072   -2.1879   -0.5298   H         1 RES1   0.0000
   115 C37       0.2642    6.1924    3.6477   C.3       1 RES1   0.0000
   116 C38      -0.7929    5.1262    3.8936   C.3       1 RES1   0.0000
   117 C39      -2.1353    5.5392    3.3002   C.3       1 RES1   0.0000
   118 C40      -3.1625    4.4117    3.2933   C.3       1 RES1   0.0000
   119 C41      -3.6427    3.9836    4.6798   C.3       1 RES1   0.0000
   120 C42      -4.7402    2.9177    4.6187   C.3       1 RES1   0.0000
   121 C43      -4.2102    1.5484    4.1850   C.3       1 RES1   0.0000
   122 C44      -5.3367    0.5611    3.8720   C.3       1 RES1   0.0000
   123 C45      -6.0902    0.8767    2.5764   C.3       1 RES1   0.0000
   124 C46      -5.4073    0.4215    1.2859   C.3       1 RES1   0.0000
   125 N3       -4.1424    1.0662    0.9623   N.am      1 RES1   0.0000
   126 C47      -4.1537    2.4990    0.5955   C.3       1 RES1   0.0000
   127 C48      -4.7733    2.8880   -0.7472   C.3       1 RES1   0.0000
   128 C49      -4.8195    4.4051   -1.0019   C.3       1 RES1   0.0000
   129 C50      -3.5032    5.1899   -1.1350   C.3       1 RES1   0.0000
   130 C51      -2.5328    4.7125   -2.2185   C.3       1 RES1   0.0000
   131 C52      -1.5011    5.7904   -2.5590   C.3       1 RES1   0.0000
   132 C53      -0.4695    5.3551   -3.6067   C.3       1 RES1   0.0000
   133 C54       0.4605    4.2079   -3.1978   C.3       1 RES1   0.0000
   134 C55       1.3093    4.4693   -1.9517   C.3       1 RES1   0.0000
   135 C56       2.3717    5.5438   -2.1406   C.3       1 RES1   0.0000
   136 C57      -3.0133    0.3902    0.8391   C.2       1 RES1   0.0000
   137 O4       -2.0816    0.8284    0.1383   O.2       1 RES1   0.0000
   138 C58      -2.7365   -0.9245    1.5927   C.3       1 RES1   0.0000
   139 O5       -1.3125   -1.0399    1.5793   O.3       1 RES1   0.0000
   140 C59      -0.7573   -2.0719    2.3824   C.3       1 RES1   0.0000
   141 C60       0.7576   -1.8099    2.3689   C.2       1 RES1   0.0000
   142 O6        1.1476   -0.8569    1.6695   O.2       1 RES1   0.0000
   143 N4        1.5847   -2.5846    3.0712   N.am      1 RES1   0.0000
   144 C61       2.9623   -2.1155    3.2907   C.3       1 RES1   0.0000
   145 C62       4.1149   -3.1256    3.1373   C.3       1 RES1   0.0000
   146 C63       4.7969   -3.2210    1.7665   C.3       1 RES1   0.0000
   147 C64       4.0860   -4.0848    0.7218   C.3       1 RES1   0.0000
   148 C65       4.4782   -5.5608    0.7608   C.3       1 RES1   0.0000
   149 C66       3.8489   -6.3200   -0.4007   C.3       1 RES1   0.0000
   150 C67       1.1675   -3.7238    3.8862   C.3       1 RES1   0.0000
   151 C68       1.2150   -5.0482    3.1144   C.3       1 RES1   0.0000
   152 C69       0.7092   -6.2540    3.9161   C.3       1 RES1   0.0000
   153 C70       1.6594   -6.7998    4.9906   C.3       1 RES1   0.0000
   154 C71       1.7191   -6.0389    6.3191   C.3       1 RES1   0.0000
   155 C72       0.3623   -5.8003    6.9712   C.3       1 RES1   0.0000
   156 H73       1.2140    5.9041    4.0906   H         1 RES1   0.0000
   157 H74       0.4077    6.3375    2.5803   H         1 RES1   0.0000
   158 H75      -0.0431    7.1384    4.0839   H         1 RES1   0.0000
   159 H76      -0.4692    4.1929    3.4288   H         1 RES1   0.0000
   160 H77      -0.8911    4.9560    4.9662   H         1 RES1   0.0000
   161 H78      -2.5321    6.3982    3.8413   H         1 RES1   0.0000
   162 H79      -1.9685    5.8424    2.2654   H         1 RES1   0.0000
   163 H80      -4.0259    4.7448    2.7114   H         1 RES1   0.0000
   164 H81      -2.7104    3.5603    2.7811   H         1 RES1   0.0000
   165 H82      -2.8042    3.5978    5.2613   H         1 RES1   0.0000
   166 H83      -4.0351    4.8593    5.1993   H         1 RES1   0.0000
   167 H84      -5.2024    2.8138    5.6026   H         1 RES1   0.0000
   168 H85      -5.5208    3.2591    3.9359   H         1 RES1   0.0000
   169 H86      -3.5583    1.6570    3.3180   H         1 RES1   0.0000
   170 H87      -3.6020    1.1452    4.9964   H         1 RES1   0.0000
   171 H88      -4.9520   -0.4630    3.8187   H         1 RES1   0.0000
   172 H89      -6.0530    0.5894    4.6947   H         1 RES1   0.0000
   173 H90      -7.0480    0.3565    2.5907   H         1 RES1   0.0000
   174 H91      -6.3043    1.9435    2.5147   H         1 RES1   0.0000
   175 H92      -5.2501   -0.6611    1.3044   H         1 RES1   0.0000
   176 H93      -6.0729    0.6464    0.4437   H         1 RES1   0.0000
   177 H94      -4.7129    2.9974    1.3846   H         1 RES1   0.0000
   178 H95      -3.1277    2.8730    0.6238   H         1 RES1   0.0000
   179 H96      -4.2298    2.4334   -1.5656   H         1 RES1   0.0000
   180 H97      -5.8026    2.5247   -0.7842   H         1 RES1   0.0000
   181 H98      -5.3692    4.5342   -1.9386   H         1 RES1   0.0000
   182 H99      -5.4089    4.8755   -0.2113   H         1 RES1   0.0000
   183 H100     -3.7988    6.2114   -1.3859   H         1 RES1   0.0000
   184 H101     -2.9705    5.2326   -0.1828   H         1 RES1   0.0000
   185 H102     -2.0015    3.8323   -1.8592   H         1 RES1   0.0000
   186 H103     -3.0815    4.4518   -3.1268   H         1 RES1   0.0000
   187 H104     -2.0292    6.6612   -2.9547   H         1 RES1   0.0000
   188 H105     -1.0011    6.1057   -1.6423   H         1 RES1   0.0000
   189 H106     -1.0038    5.0492   -4.5107   H         1 RES1   0.0000
   190 H107      0.1374    6.2228   -3.8737   H         1 RES1   0.0000
   191 H108     -0.1266    3.3024   -3.0265   H         1 RES1   0.0000
   192 H109      1.1325    4.0046   -4.0359   H         1 RES1   0.0000
   193 H110      0.6645    4.7577   -1.1224   H         1 RES1   0.0000
   194 H111      1.7987    3.5253   -1.6829   H         1 RES1   0.0000
   195 H112      1.9130    6.4985   -2.3775   H         1 RES1   0.0000
   196 H113      2.9498    5.6682   -1.2265   H         1 RES1   0.0000
   197 H114      3.0521    5.2810   -2.9475   H         1 RES1   0.0000
   198 H115     -3.1104   -0.8525    2.6202   H         1 RES1   0.0000
   199 H116     -3.1898   -1.7859    1.0815   H         1 RES1   0.0000
   200 H117     -1.1443   -2.0238    3.4089   H         1 RES1   0.0000
   201 H118     -0.9891   -3.0628    1.9690   H         1 RES1   0.0000
   202 H119      3.1197   -1.2496    2.6413   H         1 RES1   0.0000
   203 H120      2.9878   -1.7639    4.3294   H         1 RES1   0.0000
   204 H121      4.8807   -2.7804    3.8343   H         1 RES1   0.0000
   205 H122      3.8080   -4.1172    3.4628   H         1 RES1   0.0000
   206 H123      4.9341   -2.2065    1.3908   H         1 RES1   0.0000
   207 H124      5.7944   -3.6375    1.9167   H         1 RES1   0.0000
   208 H125      3.0078   -4.0016    0.8651   H         1 RES1   0.0000
   209 H126      4.3239   -3.7158   -0.2795   H         1 RES1   0.0000
   210 H127      5.5623   -5.6491    0.6956   H         1 RES1   0.0000
   211 H128      4.1677   -6.0153    1.7017   H         1 RES1   0.0000
   212 H129      4.1696   -5.8956   -1.3500   H         1 RES1   0.0000
   213 H130      4.1461   -7.3635   -0.3852   H         1 RES1   0.0000
   214 H131      2.7621   -6.2780   -0.3492   H         1 RES1   0.0000
   215 H132      1.8500   -3.7671    4.7337   H         1 RES1   0.0000
   216 H133      0.1631   -3.5638    4.2831   H         1 RES1   0.0000
   217 H134      0.6033   -4.9396    2.2120   H         1 RES1   0.0000
   218 H135      2.2356   -5.2517    2.7902   H         1 RES1   0.0000
   219 H136     -0.2594   -6.0202    4.3589   H         1 RES1   0.0000
   220 H137      0.5487   -7.0536    3.1902   H         1 RES1   0.0000
   221 H138      1.3354   -7.8172    5.2124   H         1 RES1   0.0000
   222 H139      2.6703   -6.8770    4.5809   H         1 RES1   0.0000
   223 H140      2.3229   -6.6314    7.0071   H         1 RES1   0.0000
   224 H141      2.2366   -5.0860    6.1996   H         1 RES1   0.0000
   225 H142     -0.1766   -6.7364    7.0872   H         1 RES1   0.0000
   226 H143      0.5015   -5.3652    7.9576   H         1 RES1   0.0000
   227 H144     -0.2528   -5.1183    6.3886   H         1 RES1   0.0000
   228 N5       -0.3059    2.7107    0.4640   N.3       1 RES1   0.0000
   229 O7       -0.5541    3.8298    0.7723   O.2       1 RES1   0.0000
   230 O8       -0.0676    1.8507    1.3344   O.co2     1 RES1   0.0000
   231 O9       -0.2924    2.3514   -0.7209   O.co2     1 RES1   0.0000
@<TRIPOS>BOND
     1     1    24    1
     2     1    26    1
     3     1    29    1
     4     1   137    1
     5     1   139    1
     6     1   142    1
     7     1   230    1
     8     1   231    1
     9     2     3    1
    10     2    43    1
    11     2    44    1
    12     2    45    1
    13     3     4    1
    14     3    46    1
    15     3    47    1
    16     4     5    1
    17     4    48    1
    18     4    49    1
    19     5     6    1
    20     5    50    1
    21     5    51    1
    22     6     7    1
    23     6    52    1
    24     6    53    1
    25     7     8    1
    26     7    54    1
    27     7    55    1
    28     8     9    1
    29     8    56    1
    30     8    57    1
    31     9    10    1
    32     9    58    1
    33     9    59    1
    34    10    11    1
    35    10    60    1
    36    10    61    1
    37    11    12    1
    38    11    62    1
    39    11    63    1
    40    12    13    1
    41    12    23    1
    42    13    14    1
    43    13    64    1
    44    13    65    1
    45    14    15    1
    46    14    66    1
    47    14    67    1
    48    15    16    1
    49    15    68    1
    50    15    69    1
    51    16    17    1
    52    16    70    1
    53    16    71    1
    54    17    18    1
    55    17    72    1
    56    17    73    1
    57    18    19    1
    58    18    74    1
    59    18    75    1
    60    19    20    1
    61    19    76    1
    62    19    77    1
    63    20    21    1
    64    20    78    1
    65    20    79    1
    66    21    22    1
    67    21    80    1
    68    21    81    1
    69    22    82    1
    70    22    83    1
    71    22    84    1
    72    23    24    2
    73    23    25    1
    74    25    26    1
    75    25    85    1
    76    25    86    1
    77    26    27    1
    78    27    28    1
    79    27    87    1
    80    27    88    1
    81    28    29    2
    82    28    30    1
    83    30    31    1
    84    30    37    1
    85    31    32    1
    86    31    89    1
    87    31    90    1
    88    32    33    1
    89    32    91    1
    90    32    92    1
    91    33    34    1
    92    33    93    1
    93    33    94    1
    94    34    35    1
    95    34    95    1
    96    34    96    1
    97    35    36    1
    98    35    97    1
    99    35    98    1
   100    36    99    1
   101    36   100    1
   102    36   101    1
   103    37    38    1
   104    37   102    1
   105    37   103    1
   106    38    39    1
   107    38   104    1
   108    38   105    1
   109    39    40    1
   110    39   106    1
   111    39   107    1
   112    40    41    1
   113    40   108    1
   114    40   109    1
   115    41    42    1
   116    41   110    1
   117    41   111    1
   118    42   112    1
   119    42   113    1
   120    42   114    1
   121   115   116    1
   122   115   156    1
   123   115   157    1
   124   115   158    1
   125   116   117    1
   126   116   159    1
   127   116   160    1
   128   117   118    1
   129   117   161    1
   130   117   162    1
   131   118   119    1
   132   118   163    1
   133   118   164    1
   134   119   120    1
   135   119   165    1
   136   119   166    1
   137   120   121    1
   138   120   167    1
   139   120   168    1
   140   121   122    1
   141   121   169    1
   142   121   170    1
   143   122   123    1
   144   122   171    1
   145   122   172    1
   146   123   124    1
   147   123   173    1
   148   123   174    1
   149   124   125    1
   150   124   175    1
   151   124   176    1
   152   125   126    1
   153   125   136    1
   154   126   127    1
   155   126   177    1
   156   126   178    1
   157   127   128    1
   158   127   179    1
   159   127   180    1
   160   128   129    1
   161   128   181    1
   162   128   182    1
   163   129   130    1
   164   129   183    1
   165   129   184    1
   166   130   131    1
   167   130   185    1
   168   130   186    1
   169   131   132    1
   170   131   187    1
   171   131   188    1
   172   132   133    1
   173   132   189    1
   174   132   190    1
   175   133   134    1
   176   133   191    1
   177   133   192    1
   178   134   135    1
   179   134   193    1
   180   134   194    1
   181   135   195    1
   182   135   196    1
   183   135   197    1
   184   136   137    2
   185   136   138    1
   186   138   139    1
   187   138   198    1
   188   138   199    1
   189   139   140    1
   190   140   141    1
   191   140   200    1
   192   140   201    1
   193   141   142    2
   194   141   143    1
   195   143   144    1
   196   143   150    1
   197   144   145    1
   198   144   202    1
   199   144   203    1
   200   145   146    1
   201   145   204    1
   202   145   205    1
   203   146   147    1
   204   146   206    1
   205   146   207    1
   206   147   148    1
   207   147   208    1
   208   147   209    1
   209   148   149    1
   210   148   210    1
   211   148   211    1
   212   149   212    1
   213   149   213    1
   214   149   214    1
   215   150   151    1
   216   150   215    1
   217   150   216    1
   218   151   152    1
   219   151   217    1
   220   151   218    1
   221   152   153    1
   222   152   219    1
   223   152   220    1
   224   153   154    1
   225   153   221    1
   226   153   222    1
   227   154   155    1
   228   154   223    1
   229   154   224    1
   230   155   225    1
   231   155   226    1
   232   155   227    1
   233   228   229    2
   234   228   230    1
   235   228   231    1
@<TRIPOS>SUBSTRUCTURE
     1 RES1      231 GROUP             0 ****  ****    0  
