@<TRIPOS>MOLECULE
YEMSEP_geometry_0_nunpairedes_0_charge_3 Charge: 3 Unpaired_Electrons: 5 XTB_Unpaired_Electrons: 0 XTB_Charge: 3
   305   308     1     0     0
SMALL
NoCharges
****
Generated from Architector

@<TRIPOS>ATOM
     1 Dy1      -0.0909    0.0278    0.0852   Dy        1 RES1   0.0000
     2 C1       -3.1630   -3.7309   -2.0545   C.3       1 RES1   0.0000
     3 C2       -2.2221   -3.1874   -0.9795   C.3       1 RES1   0.0000
     4 C3       -2.8695   -3.0835    0.4082   C.3       1 RES1   0.0000
     5 C4       -3.3462   -1.7009    0.8427   C.3       1 RES1   0.0000
     6 C5       -3.6247   -1.6230    2.3525   C.3       1 RES1   0.0000
     7 C6       -4.5699   -0.4826    2.7284   C.3       1 RES1   0.0000
     8 C7       -4.0500    0.8988    2.3194   C.3       1 RES1   0.0000
     9 C8       -3.2755    1.6749    3.3850   C.3       1 RES1   0.0000
    10 N1       -1.9023    1.2699    3.7453   N.am      1 RES1   0.0000
    11 C9       -1.6358    1.3477    5.1763   C.3       1 RES1   0.0000
    12 C10      -2.3630    0.2884    6.0114   C.3       1 RES1   0.0000
    13 C11      -1.8775    0.3756    7.4644   C.3       1 RES1   0.0000
    14 C12      -0.4954   -0.2558    7.7230   C.3       1 RES1   0.0000
    15 C13       0.4846    0.6967    8.4259   C.3       1 RES1   0.0000
    16 C14       1.0757    1.8319    7.5812   C.3       1 RES1   0.0000
    17 C15       0.2836    3.1392    7.6274   C.3       1 RES1   0.0000
    18 C16       1.0027    4.2664    6.8937   C.3       1 RES1   0.0000
    19 C17      -0.6545   -1.5180    8.5893   C.3       1 RES1   0.0000
    20 C18      -1.4167   -2.6775    7.9443   C.3       1 RES1   0.0000
    21 C19      -0.7954   -3.2851    6.6852   C.3       1 RES1   0.0000
    22 C20       0.5601   -3.9689    6.8959   C.3       1 RES1   0.0000
    23 C21       1.7914   -3.0696    6.7725   C.3       1 RES1   0.0000
    24 C22       1.9800   -2.4534    5.3880   C.3       1 RES1   0.0000
    25 C23      -0.9589    1.1032    2.8421   C.2       1 RES1   0.0000
    26 O1       -1.1915    1.0950    1.6066   O.2       1 RES1   0.0000
    27 C24       0.5387    0.9645    3.2461   C.3       1 RES1   0.0000
    28 O2        1.2447    0.7118    2.0312   O.3       1 RES1   0.0000
    29 C25       2.5704    1.2181    1.9015   C.3       1 RES1   0.0000
    30 C26       2.7970    1.3495    0.3891   C.2       1 RES1   0.0000
    31 O3        1.9362    0.8245   -0.3501   O.2       1 RES1   0.0000
    32 N2        3.8317    2.0354   -0.0745   N.am      1 RES1   0.0000
    33 C27       4.9713    2.2948    0.8205   C.3       1 RES1   0.0000
    34 C28       6.1574    3.0395    0.2190   C.3       1 RES1   0.0000
    35 C29       5.9093    4.5399    0.0770   C.3       1 RES1   0.0000
    36 C30       7.0584    5.2661   -0.6279   C.3       1 RES1   0.0000
    37 C31       6.9583    5.3157   -2.1529   C.3       1 RES1   0.0000
    38 C32       7.3463    4.0307   -2.8768   C.3       1 RES1   0.0000
    39 C33       7.3990    4.2213   -4.3907   C.3       1 RES1   0.0000
    40 C34       7.7556    2.9276   -5.1130   C.3       1 RES1   0.0000
    41 C35       3.8422    2.3175   -1.5136   C.3       1 RES1   0.0000
    42 C36       3.1481    3.6435   -1.9074   C.3       1 RES1   0.0000
    43 C37       2.3079    3.4331   -3.1668   C.3       1 RES1   0.0000
    44 C38       1.6992    4.6646   -3.8683   C.3       1 RES1   0.0000
    45 C39       2.7454    5.6240   -4.4768   C.3       1 RES1   0.0000
    46 C40       3.1669    6.8561   -3.6841   C.3       1 RES1   0.0000
    47 C41       4.0686    7.7573   -4.5249   C.3       1 RES1   0.0000
    48 C42       4.4214    9.0356   -3.7787   C.3       1 RES1   0.0000
    49 C43       0.4891    5.3791   -3.2358   C.3       1 RES1   0.0000
    50 C44       0.5788    6.1380   -1.9035   C.3       1 RES1   0.0000
    51 C45      -0.4594    7.2698   -1.9259   C.3       1 RES1   0.0000
    52 C46      -0.8108    7.9073   -0.5832   C.3       1 RES1   0.0000
    53 C47       0.3714    8.5158    0.1700   C.3       1 RES1   0.0000
    54 C48       0.9130    9.7613   -0.5180   C.3       1 RES1   0.0000
    55 H1       -2.6406   -3.8375   -3.0053   H         1 RES1   0.0000
    56 H2       -4.0258   -3.0829   -2.1904   H         1 RES1   0.0000
    57 H3       -3.5230   -4.7160   -1.7673   H         1 RES1   0.0000
    58 H4       -1.8271   -2.2072   -1.2751   H         1 RES1   0.0000
    59 H5       -1.3715   -3.8700   -0.8953   H         1 RES1   0.0000
    60 H6       -2.1569   -3.4460    1.1496   H         1 RES1   0.0000
    61 H7       -3.7221   -3.7551    0.4304   H         1 RES1   0.0000
    62 H8       -4.2626   -1.4593    0.3068   H         1 RES1   0.0000
    63 H9       -2.5931   -0.9471    0.5695   H         1 RES1   0.0000
    64 H10      -2.6925   -1.4908    2.9069   H         1 RES1   0.0000
    65 H11      -4.0895   -2.5581    2.6689   H         1 RES1   0.0000
    66 H12      -4.7410   -0.5155    3.8068   H         1 RES1   0.0000
    67 H13      -5.5292   -0.6522    2.2345   H         1 RES1   0.0000
    68 H14      -4.9070    1.5354    2.0935   H         1 RES1   0.0000
    69 H15      -3.4584    0.8171    1.4128   H         1 RES1   0.0000
    70 H16      -3.8488    1.6446    4.3096   H         1 RES1   0.0000
    71 H17      -3.2159    2.7149    3.0505   H         1 RES1   0.0000
    72 H18      -1.9504    2.3372    5.5214   H         1 RES1   0.0000
    73 H19      -0.5665    1.2561    5.3504   H         1 RES1   0.0000
    74 H20      -2.1839   -0.7029    5.5893   H         1 RES1   0.0000
    75 H21      -3.4422    0.4588    5.9994   H         1 RES1   0.0000
    76 H22      -2.6199   -0.1131    8.0940   H         1 RES1   0.0000
    77 H23      -1.8749    1.4243    7.7592   H         1 RES1   0.0000
    78 H24      -0.0493   -0.5533    6.7662   H         1 RES1   0.0000
    79 H25       1.3135    0.0860    8.7817   H         1 RES1   0.0000
    80 H26       0.0031    1.1232    9.3048   H         1 RES1   0.0000
    81 H27       1.2076    1.5064    6.5422   H         1 RES1   0.0000
    82 H28       2.0718    2.0540    7.9671   H         1 RES1   0.0000
    83 H29       0.1495    3.4285    8.6705   H         1 RES1   0.0000
    84 H30      -0.7087    3.0159    7.1917   H         1 RES1   0.0000
    85 H31       1.9580    4.4802    7.3650   H         1 RES1   0.0000
    86 H32       0.4055    5.1755    6.9120   H         1 RES1   0.0000
    87 H33       1.1890    3.9964    5.8536   H         1 RES1   0.0000
    88 H34      -1.1825   -1.2441    9.5049   H         1 RES1   0.0000
    89 H35       0.3316   -1.8687    8.8904   H         1 RES1   0.0000
    90 H36      -2.4354   -2.3643    7.6988   H         1 RES1   0.0000
    91 H37      -1.5001   -3.4680    8.6933   H         1 RES1   0.0000
    92 H38      -0.7239   -2.5297    5.8974   H         1 RES1   0.0000
    93 H39      -1.5025   -4.0434    6.3401   H         1 RES1   0.0000
    94 H40       0.6610   -4.7776    6.1671   H         1 RES1   0.0000
    95 H41       0.5735   -4.4240    7.8876   H         1 RES1   0.0000
    96 H42       2.6675   -3.6795    6.9994   H         1 RES1   0.0000
    97 H43       1.7521   -2.2691    7.5086   H         1 RES1   0.0000
    98 H44       2.0441   -3.2321    4.6291   H         1 RES1   0.0000
    99 H45       2.8978   -1.8677    5.3692   H         1 RES1   0.0000
   100 H46       1.1491   -1.7901    5.1385   H         1 RES1   0.0000
   101 H47       0.7127    0.1367    3.9442   H         1 RES1   0.0000
   102 H48       0.8827    1.9008    3.6984   H         1 RES1   0.0000
   103 H49       3.2993    0.5308    2.3531   H         1 RES1   0.0000
   104 H50       2.6618    2.2089    2.3602   H         1 RES1   0.0000
   105 H51       5.3299    1.3225    1.1737   H         1 RES1   0.0000
   106 H52       4.6134    2.8581    1.6883   H         1 RES1   0.0000
   107 H53       6.4650    2.5863   -0.7203   H         1 RES1   0.0000
   108 H54       6.9989    2.8933    0.8997   H         1 RES1   0.0000
   109 H55       5.7882    4.9467    1.0859   H         1 RES1   0.0000
   110 H56       4.9756    4.7235   -0.4546   H         1 RES1   0.0000
   111 H57       8.0064    4.8156   -0.3298   H         1 RES1   0.0000
   112 H58       7.0555    6.2906   -0.2610   H         1 RES1   0.0000
   113 H59       7.6196    6.1082   -2.4993   H         1 RES1   0.0000
   114 H60       5.9467    5.6064   -2.4405   H         1 RES1   0.0000
   115 H61       6.6267    3.2358   -2.6686   H         1 RES1   0.0000
   116 H62       8.3238    3.6987   -2.5244   H         1 RES1   0.0000
   117 H63       8.1394    4.9841   -4.6292   H         1 RES1   0.0000
   118 H64       6.4284    4.5798   -4.7435   H         1 RES1   0.0000
   119 H65       8.7367    2.5776   -4.8027   H         1 RES1   0.0000
   120 H66       7.7740    3.0815   -6.1885   H         1 RES1   0.0000
   121 H67       7.0287    2.1465   -4.8925   H         1 RES1   0.0000
   122 H68       3.3095    1.4890   -1.9901   H         1 RES1   0.0000
   123 H69       4.8621    2.3171   -1.8863   H         1 RES1   0.0000
   124 H70       3.8881    4.4100   -2.1329   H         1 RES1   0.0000
   125 H71       2.5347    4.0135   -1.0830   H         1 RES1   0.0000
   126 H72       1.5157    2.7027   -2.9696   H         1 RES1   0.0000
   127 H73       2.9562    2.9696   -3.9164   H         1 RES1   0.0000
   128 H74       1.2402    4.1973   -4.7412   H         1 RES1   0.0000
   129 H75       2.3269    5.9956   -5.4154   H         1 RES1   0.0000
   130 H76       3.6274    5.0375   -4.7454   H         1 RES1   0.0000
   131 H77       3.6857    6.5747   -2.7640   H         1 RES1   0.0000
   132 H78       2.2858    7.4422   -3.4275   H         1 RES1   0.0000
   133 H79       3.5403    8.0156   -5.4449   H         1 RES1   0.0000
   134 H80       4.9790    7.2222   -4.8014   H         1 RES1   0.0000
   135 H81       3.5195    9.5760   -3.5021   H         1 RES1   0.0000
   136 H82       5.0270    9.6851   -4.4017   H         1 RES1   0.0000
   137 H83       4.9776    8.8141   -2.8717   H         1 RES1   0.0000
   138 H84      -0.3376    4.6557   -3.1709   H         1 RES1   0.0000
   139 H85       0.1792    6.0940   -4.0012   H         1 RES1   0.0000
   140 H86       1.5721    6.5508   -1.7526   H         1 RES1   0.0000
   141 H87       0.3824    5.4590   -1.0760   H         1 RES1   0.0000
   142 H88      -1.3827    6.8864   -2.3671   H         1 RES1   0.0000
   143 H89      -0.1037    8.0531   -2.5928   H         1 RES1   0.0000
   144 H90      -1.3070    7.1790    0.0604   H         1 RES1   0.0000
   145 H91      -1.5431    8.6916   -0.7824   H         1 RES1   0.0000
   146 H92       1.1714    7.7779    0.2843   H         1 RES1   0.0000
   147 H93       0.0336    8.7846    1.1745   H         1 RES1   0.0000
   148 H94       1.3039    9.5285   -1.5053   H         1 RES1   0.0000
   149 H95       1.7097   10.2037    0.0730   H         1 RES1   0.0000
   150 H96       0.1225   10.4987   -0.6278   H         1 RES1   0.0000
   151 C49      -0.2609    5.7762    3.4563   C.3       1 RES1   0.0000
   152 C50       0.0599    4.5180    2.6562   C.3       1 RES1   0.0000
   153 C51      -0.3843    4.6156    1.1932   C.3       1 RES1   0.0000
   154 C52      -1.8263    4.1909    0.9047   C.3       1 RES1   0.0000
   155 C53      -2.2049    4.3978   -0.5644   C.3       1 RES1   0.0000
   156 C54      -3.5441    3.8011   -1.0077   C.3       1 RES1   0.0000
   157 C55      -3.6193    2.2619   -0.9603   C.3       1 RES1   0.0000
   158 C56      -3.8742    1.5567   -2.3073   C.3       1 RES1   0.0000
   159 N3       -2.7437    0.9876   -3.0731   N.am      1 RES1   0.0000
   160 C57      -2.9662    0.9461   -4.5172   C.3       1 RES1   0.0000
   161 C58      -2.7537    2.2559   -5.2830   C.3       1 RES1   0.0000
   162 C59      -2.8694    1.9687   -6.7915   C.3       1 RES1   0.0000
   163 C60      -1.6392    1.2942   -7.4354   C.3       1 RES1   0.0000
   164 C61      -1.9558   -0.0355   -8.1382   C.3       1 RES1   0.0000
   165 C62      -2.2665   -1.2552   -7.2657   C.3       1 RES1   0.0000
   166 C63      -3.7579   -1.4807   -7.0187   C.3       1 RES1   0.0000
   167 C64      -4.0193   -2.7713   -6.2494   C.3       1 RES1   0.0000
   168 C65      -1.0157    2.2229   -8.4947   C.3       1 RES1   0.0000
   169 C66      -0.3788    3.5162   -7.9902   C.3       1 RES1   0.0000
   170 C67       0.7871    3.3712   -7.0125   C.3       1 RES1   0.0000
   171 C68       2.1034    2.8330   -7.5794   C.3       1 RES1   0.0000
   172 C69       2.2348    1.3135   -7.6834   C.3       1 RES1   0.0000
   173 C70       2.1693    0.5847   -6.3437   C.3       1 RES1   0.0000
   174 C71      -1.8042    0.2827   -2.4679   C.2       1 RES1   0.0000
   175 O4       -1.7619    0.1615   -1.2215   O.2       1 RES1   0.0000
   176 C72      -0.6834   -0.4757   -3.2285   C.3       1 RES1   0.0000
   177 O5        0.2075   -0.9569   -2.2159   O.3       1 RES1   0.0000
   178 C73       0.7959   -2.2549   -2.3503   C.3       1 RES1   0.0000
   179 C74       0.9698   -2.7986   -0.9198   C.2       1 RES1   0.0000
   180 O6        0.7933   -1.9688    0.0044   O.2       1 RES1   0.0000
   181 N4        1.2718   -4.0676   -0.6815   N.am      1 RES1   0.0000
   182 C75       1.6481   -4.9314   -1.8122   C.3       1 RES1   0.0000
   183 C76       2.0146   -6.3692   -1.4666   C.3       1 RES1   0.0000
   184 C77       0.8020   -7.2885   -1.3260   C.3       1 RES1   0.0000
   185 C78       1.1994   -8.6906   -0.8548   C.3       1 RES1   0.0000
   186 C79       1.3916   -8.8706    0.6529   C.3       1 RES1   0.0000
   187 C80       2.6881   -8.3093    1.2308   C.3       1 RES1   0.0000
   188 C81       2.9222   -8.7608    2.6704   C.3       1 RES1   0.0000
   189 C82       4.2002   -8.1639    3.2479   C.3       1 RES1   0.0000
   190 C83       1.3898   -4.4775    0.7302   C.3       1 RES1   0.0000
   191 C84       0.2000   -5.2686    1.3324   C.3       1 RES1   0.0000
   192 C85       0.0059   -4.9176    2.8124   C.3       1 RES1   0.0000
   193 C86      -1.1004   -5.5935    3.6657   C.3       1 RES1   0.0000
   194 C87      -0.7969   -7.0548    4.0673   C.3       1 RES1   0.0000
   195 C88      -1.6946   -8.1292    3.4763   C.3       1 RES1   0.0000
   196 C89      -1.4237   -9.4932    4.0983   C.3       1 RES1   0.0000
   197 C90      -2.4189  -10.5165    3.5725   C.3       1 RES1   0.0000
   198 C91      -2.5730   -5.2658    3.3197   C.3       1 RES1   0.0000
   199 C92      -3.3862   -5.8423    2.1457   C.3       1 RES1   0.0000
   200 C93      -4.8523   -5.4099    2.3514   C.3       1 RES1   0.0000
   201 C94      -5.7218   -5.2232    1.1077   C.3       1 RES1   0.0000
   202 C95      -5.8139   -6.4407    0.1887   C.3       1 RES1   0.0000
   203 C96      -6.6682   -7.5491    0.7908   C.3       1 RES1   0.0000
   204 H97       0.1911    5.7292    4.4451   H         1 RES1   0.0000
   205 H98      -1.3342    5.9053    3.5693   H         1 RES1   0.0000
   206 H99       0.1395    6.6504    2.9482   H         1 RES1   0.0000
   207 H100     -0.3985    3.6482    3.1351   H         1 RES1   0.0000
   208 H101      1.1469    4.3762    2.6718   H         1 RES1   0.0000
   209 H102      0.2831    3.9819    0.5963   H         1 RES1   0.0000
   210 H103     -0.2351    5.6484    0.8838   H         1 RES1   0.0000
   211 H104     -2.5093    4.7616    1.5305   H         1 RES1   0.0000
   212 H105     -1.9359    3.1381    1.1574   H         1 RES1   0.0000
   213 H106     -1.4312    3.9697   -1.1985   H         1 RES1   0.0000
   214 H107     -2.2462    5.4656   -0.7708   H         1 RES1   0.0000
   215 H108     -3.7280    4.1552   -2.0255   H         1 RES1   0.0000
   216 H109     -4.3309    4.2166   -0.3771   H         1 RES1   0.0000
   217 H110     -4.4620    1.9822   -0.3276   H         1 RES1   0.0000
   218 H111     -2.7250    1.8726   -0.4720   H         1 RES1   0.0000
   219 H112     -4.3714    2.2537   -2.9815   H         1 RES1   0.0000
   220 H113     -4.5676    0.7293   -2.1287   H         1 RES1   0.0000
   221 H114     -4.0008    0.6317   -4.6801   H         1 RES1   0.0000
   222 H115     -2.3158    0.1908   -4.9511   H         1 RES1   0.0000
   223 H116     -1.7821    2.6903   -5.0359   H         1 RES1   0.0000
   224 H117     -3.5189    2.9880   -5.0120   H         1 RES1   0.0000
   225 H118     -3.0588    2.9154   -7.2971   H         1 RES1   0.0000
   226 H119     -3.7603    1.3591   -6.9459   H         1 RES1   0.0000
   227 H120     -0.8898    1.1023   -6.6578   H         1 RES1   0.0000
   228 H121     -1.0779   -0.2777   -8.7335   H         1 RES1   0.0000
   229 H122     -2.7799    0.1175   -8.8337   H         1 RES1   0.0000
   230 H123     -1.7220   -1.2009   -6.3157   H         1 RES1   0.0000
   231 H124     -1.8929   -2.1404   -7.7825   H         1 RES1   0.0000
   232 H125     -4.2603   -1.5399   -7.9852   H         1 RES1   0.0000
   233 H126     -4.2000   -0.6441   -6.4751   H         1 RES1   0.0000
   234 H127     -3.6492   -3.6257   -6.8102   H         1 RES1   0.0000
   235 H128     -5.0848   -2.9107   -6.0833   H         1 RES1   0.0000
   236 H129     -3.5216   -2.7577   -5.2788   H         1 RES1   0.0000
   237 H130     -1.7929    2.4963   -9.2112   H         1 RES1   0.0000
   238 H131     -0.2631    1.6599   -9.0420   H         1 RES1   0.0000
   239 H132     -1.1391    4.1388   -7.5089   H         1 RES1   0.0000
   240 H133     -0.0220    4.0661   -8.8635   H         1 RES1   0.0000
   241 H134      0.4773    2.7696   -6.1531   H         1 RES1   0.0000
   242 H135      0.9942    4.3852   -6.6657   H         1 RES1   0.0000
   243 H136      2.9152    3.1958   -6.9421   H         1 RES1   0.0000
   244 H137      2.2555    3.2565   -8.5729   H         1 RES1   0.0000
   245 H138      3.2025    1.1026   -8.1422   H         1 RES1   0.0000
   246 H139      1.4674    0.9103   -8.3418   H         1 RES1   0.0000
   247 H140      2.9147    0.9809   -5.6555   H         1 RES1   0.0000
   248 H141      2.3602   -0.4768   -6.4931   H         1 RES1   0.0000
   249 H142      1.1855    0.6879   -5.8843   H         1 RES1   0.0000
   250 H143     -0.1285    0.1866   -3.9057   H         1 RES1   0.0000
   251 H144     -1.1276   -1.3014   -3.7962   H         1 RES1   0.0000
   252 H145      1.7800   -2.1642   -2.8318   H         1 RES1   0.0000
   253 H146      0.1659   -2.9142   -2.9546   H         1 RES1   0.0000
   254 H147      2.5020   -4.4680   -2.3175   H         1 RES1   0.0000
   255 H148      0.8087   -4.9469   -2.5140   H         1 RES1   0.0000
   256 H149      2.6405   -6.4006   -0.5810   H         1 RES1   0.0000
   257 H150      2.6352   -6.7562   -2.2767   H         1 RES1   0.0000
   258 H151      0.3281   -7.3653   -2.3102   H         1 RES1   0.0000
   259 H152      0.0612   -6.8599   -0.6505   H         1 RES1   0.0000
   260 H153      2.1063   -8.9938   -1.3800   H         1 RES1   0.0000
   261 H154      0.4023   -9.3627   -1.1668   H         1 RES1   0.0000
   262 H155      1.3770   -9.9414    0.8511   H         1 RES1   0.0000
   263 H156      0.5362   -8.4466    1.1806   H         1 RES1   0.0000
   264 H157      2.6752   -7.2176    1.2333   H         1 RES1   0.0000
   265 H158      3.5277   -8.6347    0.6154   H         1 RES1   0.0000
   266 H159      2.9853   -9.8479    2.6996   H         1 RES1   0.0000
   267 H160      2.0713   -8.4611    3.2877   H         1 RES1   0.0000
   268 H161      5.0644   -8.4884    2.6744   H         1 RES1   0.0000
   269 H162      4.3397   -8.4792    4.2782   H         1 RES1   0.0000
   270 H163      4.1657   -7.0748    3.2272   H         1 RES1   0.0000
   271 H164      1.5098   -3.5428    1.2852   H         1 RES1   0.0000
   272 H165      2.3096   -5.0447    0.8656   H         1 RES1   0.0000
   273 H166      0.3781   -6.3394    1.2714   H         1 RES1   0.0000
   274 H167     -0.7137   -5.0476    0.7849   H         1 RES1   0.0000
   275 H168     -0.1619   -3.8394    2.9007   H         1 RES1   0.0000
   276 H169      0.9404   -5.1308    3.3391   H         1 RES1   0.0000
   277 H170     -0.9885   -5.0294    4.5996   H         1 RES1   0.0000
   278 H171     -0.9028   -7.1312    5.1519   H         1 RES1   0.0000
   279 H172      0.2488   -7.2768    3.8438   H         1 RES1   0.0000
   280 H173     -1.5619   -8.1814    2.3935   H         1 RES1   0.0000
   281 H174     -2.7312   -7.8853    3.7060   H         1 RES1   0.0000
   282 H175     -1.5316   -9.4069    5.1817   H         1 RES1   0.0000
   283 H176     -0.4022   -9.8110    3.8829   H         1 RES1   0.0000
   284 H177     -3.4352  -10.2010    3.7962   H         1 RES1   0.0000
   285 H178     -2.2563  -11.4856    4.0303   H         1 RES1   0.0000
   286 H179     -2.3249  -10.6236    2.4949   H         1 RES1   0.0000
   287 H180     -2.6226   -4.1724    3.2494   H         1 RES1   0.0000
   288 H181     -3.1201   -5.5154    4.2307   H         1 RES1   0.0000
   289 H182     -3.3478   -6.9258    2.1142   H         1 RES1   0.0000
   290 H183     -2.9920   -5.5004    1.1910   H         1 RES1   0.0000
   291 H184     -4.8786   -4.4682    2.9056   H         1 RES1   0.0000
   292 H185     -5.3425   -6.1414    2.9903   H         1 RES1   0.0000
   293 H186     -5.3853   -4.3641    0.5233   H         1 RES1   0.0000
   294 H187     -6.7236   -4.9658    1.4579   H         1 RES1   0.0000
   295 H188     -4.8143   -6.8233   -0.0358   H         1 RES1   0.0000
   296 H189     -6.2581   -6.1242   -0.7596   H         1 RES1   0.0000
   297 H190     -6.2196   -7.9380    1.7017   H         1 RES1   0.0000
   298 H191     -6.7835   -8.3673    0.0851   H         1 RES1   0.0000
   299 H192     -7.6591   -7.1701    1.0298   H         1 RES1   0.0000
   300 O7        0.0186    2.1966   -1.3751   O.3       1 RES1   0.0000
   301 H193     -0.5230    2.6768   -2.0266   H         1 RES1   0.0000
   302 H194      0.6245    2.8648   -1.0098   H         1 RES1   0.0000
   303 O8       -0.4351   -1.5389    2.2300   O.3       1 RES1   0.0000
   304 H195     -0.9444   -2.2922    1.8831   H         1 RES1   0.0000
   305 H196      0.2980   -1.9157    2.7425   H         1 RES1   0.0000
@<TRIPOS>BOND
     1     1    26    1
     2     1    28    1
     3     1    31    1
     4     1   175    1
     5     1   177    1
     6     1   180    1
     7     1   300    1
     8     1   303    1
     9     2     3    1
    10     2    55    1
    11     2    56    1
    12     2    57    1
    13     3     4    1
    14     3    58    1
    15     3    59    1
    16     4     5    1
    17     4    60    1
    18     4    61    1
    19     5     6    1
    20     5    62    1
    21     5    63    1
    22     6     7    1
    23     6    64    1
    24     6    65    1
    25     7     8    1
    26     7    66    1
    27     7    67    1
    28     8     9    1
    29     8    68    1
    30     8    69    1
    31     9    10    1
    32     9    70    1
    33     9    71    1
    34    10    11    1
    35    10    25    1
    36    11    12    1
    37    11    72    1
    38    11    73    1
    39    12    13    1
    40    12    74    1
    41    12    75    1
    42    13    14    1
    43    13    76    1
    44    13    77    1
    45    14    15    1
    46    14    19    1
    47    14    78    1
    48    15    16    1
    49    15    79    1
    50    15    80    1
    51    16    17    1
    52    16    81    1
    53    16    82    1
    54    17    18    1
    55    17    83    1
    56    17    84    1
    57    18    85    1
    58    18    86    1
    59    18    87    1
    60    19    20    1
    61    19    88    1
    62    19    89    1
    63    20    21    1
    64    20    90    1
    65    20    91    1
    66    21    22    1
    67    21    92    1
    68    21    93    1
    69    22    23    1
    70    22    94    1
    71    22    95    1
    72    23    24    1
    73    23    96    1
    74    23    97    1
    75    24    98    1
    76    24    99    1
    77    24   100    1
    78    25    26    2
    79    25    27    1
    80    27    28    1
    81    27   101    1
    82    27   102    1
    83    28    29    1
    84    29    30    1
    85    29   103    1
    86    29   104    1
    87    30    31    2
    88    30    32    1
    89    32    33    1
    90    32    41    1
    91    33    34    1
    92    33   105    1
    93    33   106    1
    94    34    35    1
    95    34   107    1
    96    34   108    1
    97    35    36    1
    98    35   109    1
    99    35   110    1
   100    36    37    1
   101    36   111    1
   102    36   112    1
   103    37    38    1
   104    37   113    1
   105    37   114    1
   106    38    39    1
   107    38   115    1
   108    38   116    1
   109    39    40    1
   110    39   117    1
   111    39   118    1
   112    40   119    1
   113    40   120    1
   114    40   121    1
   115    41    42    1
   116    41   122    1
   117    41   123    1
   118    42    43    1
   119    42   124    1
   120    42   125    1
   121    43    44    1
   122    43   126    1
   123    43   127    1
   124    44    45    1
   125    44    49    1
   126    44   128    1
   127    45    46    1
   128    45   129    1
   129    45   130    1
   130    46    47    1
   131    46   131    1
   132    46   132    1
   133    47    48    1
   134    47   133    1
   135    47   134    1
   136    48   135    1
   137    48   136    1
   138    48   137    1
   139    49    50    1
   140    49   138    1
   141    49   139    1
   142    50    51    1
   143    50   140    1
   144    50   141    1
   145    51    52    1
   146    51   142    1
   147    51   143    1
   148    52    53    1
   149    52   144    1
   150    52   145    1
   151    53    54    1
   152    53   146    1
   153    53   147    1
   154    54   148    1
   155    54   149    1
   156    54   150    1
   157   151   152    1
   158   151   204    1
   159   151   205    1
   160   151   206    1
   161   152   153    1
   162   152   207    1
   163   152   208    1
   164   153   154    1
   165   153   209    1
   166   153   210    1
   167   154   155    1
   168   154   211    1
   169   154   212    1
   170   155   156    1
   171   155   213    1
   172   155   214    1
   173   156   157    1
   174   156   215    1
   175   156   216    1
   176   157   158    1
   177   157   217    1
   178   157   218    1
   179   158   159    1
   180   158   219    1
   181   158   220    1
   182   159   160    1
   183   159   174    1
   184   160   161    1
   185   160   221    1
   186   160   222    1
   187   161   162    1
   188   161   223    1
   189   161   224    1
   190   162   163    1
   191   162   225    1
   192   162   226    1
   193   163   164    1
   194   163   168    1
   195   163   227    1
   196   164   165    1
   197   164   228    1
   198   164   229    1
   199   165   166    1
   200   165   230    1
   201   165   231    1
   202   166   167    1
   203   166   232    1
   204   166   233    1
   205   167   234    1
   206   167   235    1
   207   167   236    1
   208   168   169    1
   209   168   237    1
   210   168   238    1
   211   169   170    1
   212   169   239    1
   213   169   240    1
   214   170   171    1
   215   170   241    1
   216   170   242    1
   217   171   172    1
   218   171   243    1
   219   171   244    1
   220   172   173    1
   221   172   245    1
   222   172   246    1
   223   173   247    1
   224   173   248    1
   225   173   249    1
   226   174   175    2
   227   174   176    1
   228   176   177    1
   229   176   250    1
   230   176   251    1
   231   177   178    1
   232   178   179    1
   233   178   252    1
   234   178   253    1
   235   179   180    2
   236   179   181    1
   237   181   182    1
   238   181   190    1
   239   182   183    1
   240   182   254    1
   241   182   255    1
   242   183   184    1
   243   183   256    1
   244   183   257    1
   245   184   185    1
   246   184   258    1
   247   184   259    1
   248   185   186    1
   249   185   260    1
   250   185   261    1
   251   186   187    1
   252   186   262    1
   253   186   263    1
   254   187   188    1
   255   187   264    1
   256   187   265    1
   257   188   189    1
   258   188   266    1
   259   188   267    1
   260   189   268    1
   261   189   269    1
   262   189   270    1
   263   190   191    1
   264   190   271    1
   265   190   272    1
   266   191   192    1
   267   191   273    1
   268   191   274    1
   269   192   193    1
   270   192   275    1
   271   192   276    1
   272   193   194    1
   273   193   198    1
   274   193   277    1
   275   194   195    1
   276   194   278    1
   277   194   279    1
   278   195   196    1
   279   195   280    1
   280   195   281    1
   281   196   197    1
   282   196   282    1
   283   196   283    1
   284   197   284    1
   285   197   285    1
   286   197   286    1
   287   198   199    1
   288   198   287    1
   289   198   288    1
   290   199   200    1
   291   199   289    1
   292   199   290    1
   293   200   201    1
   294   200   291    1
   295   200   292    1
   296   201   202    1
   297   201   293    1
   298   201   294    1
   299   202   203    1
   300   202   295    1
   301   202   296    1
   302   203   297    1
   303   203   298    1
   304   203   299    1
   305   300   301    1
   306   300   302    1
   307   303   304    1
   308   303   305    1
@<TRIPOS>SUBSTRUCTURE
     1 RES1      305 GROUP             0 ****  ****    0  
