@<TRIPOS>MOLECULE
ICIGOT_geomtry_0_nunpairedes_0_charge_3 Charge: 3 Unpaired_Electrons: 5 XTB_Unpaired_Electrons: 0 XTB_Charge: 3
   225   228     1     0     0
SMALL
NoCharges
****
Generated from Architector

@<TRIPOS>ATOM
     1 Dy1      -0.2500    0.1876    0.3321   Dy        1 RES1   0.0000
     2 C1        4.4445    0.4916    4.1674   C.3       1 RES1   0.0000
     3 C2        3.1726    1.2873    3.9024   C.3       1 RES1   0.0000
     4 C3        3.3836    2.4138    2.8915   C.3       1 RES1   0.0000
     5 C4        2.0406    3.0338    2.5087   C.3       1 RES1   0.0000
     6 C5        2.1206    3.9758    1.3082   C.3       1 RES1   0.0000
     7 C6        0.7602    4.6098    0.9715   C.3       1 RES1   0.0000
     8 N1        0.2307    4.1815   -0.3283   N.am      1 RES1   0.0000
     9 C7        0.5354    5.0190   -1.4890   C.3       1 RES1   0.0000
    10 C8        1.9704    5.5803   -1.4310   C.3       1 RES1   0.0000
    11 C9        2.3940    6.5101   -2.5981   C.3       1 RES1   0.0000
    12 C10       1.2120    7.2724   -3.1945   C.3       1 RES1   0.0000
    13 C11       3.2127    5.7977   -3.6923   C.3       1 RES1   0.0000
    14 C12       4.7391    5.9511   -3.5897   C.3       1 RES1   0.0000
    15 C13       5.3606    5.1369   -2.4925   C.2       1 RES1   0.0000
    16 C14       6.5398    4.5226   -2.4962   C.2       1 RES1   0.0000
    17 C15       7.4919    4.4870   -3.6507   C.3       1 RES1   0.0000
    18 C16       7.0233    3.8359   -1.2392   C.3       1 RES1   0.0000
    19 C17      -0.4650    3.0548   -0.3012   C.2       1 RES1   0.0000
    20 O1       -0.4460    2.3336    0.7249   O.2       1 RES1   0.0000
    21 C18      -1.4229    2.5893   -1.4171   C.3       1 RES1   0.0000
    22 O2       -1.4509    1.1584   -1.3431   O.3       1 RES1   0.0000
    23 C19      -2.4725    0.4322   -2.0373   C.3       1 RES1   0.0000
    24 C20      -2.3168   -1.0173   -1.5362   C.2       1 RES1   0.0000
    25 O3       -1.7675   -1.1785   -0.4151   O.2       1 RES1   0.0000
    26 N2       -2.7440   -2.0507   -2.2306   N.am      1 RES1   0.0000
    27 C21      -2.5775   -3.3716   -1.6200   C.3       1 RES1   0.0000
    28 C22      -3.5750   -3.6058   -0.4842   C.3       1 RES1   0.0000
    29 C23      -5.0130   -3.7978   -0.9660   C.3       1 RES1   0.0000
    30 C24      -5.9845   -3.9784    0.2048   C.3       1 RES1   0.0000
    31 C25      -6.2993   -2.6671    0.9215   C.3       1 RES1   0.0000
    32 C26      -7.3219   -2.8720    2.0301   C.3       1 RES1   0.0000
    33 C27      -3.2421   -1.9971   -3.5927   C.3       1 RES1   0.0000
    34 C28      -2.1553   -2.4004   -4.6009   C.3       1 RES1   0.0000
    35 C29      -2.4926   -1.9722   -6.0383   C.3       1 RES1   0.0000
    36 C30      -1.2745   -2.1844   -6.9386   C.3       1 RES1   0.0000
    37 C31      -3.7314   -2.6948   -6.5994   C.3       1 RES1   0.0000
    38 C32      -4.7988   -1.7139   -7.1170   C.3       1 RES1   0.0000
    39 C33      -5.2227   -0.7123   -6.0801   C.2       1 RES1   0.0000
    40 C34      -6.0536   -0.9224   -5.0631   C.2       1 RES1   0.0000
    41 C35      -6.3671    0.1709   -4.0806   C.3       1 RES1   0.0000
    42 C36      -6.7569   -2.2188   -4.7989   C.3       1 RES1   0.0000
    43 H1        4.2823   -0.2444    4.9514   H         1 RES1   0.0000
    44 H2        4.7907   -0.0251    3.2712   H         1 RES1   0.0000
    45 H3        5.2380    1.1551    4.4986   H         1 RES1   0.0000
    46 H4        2.3754    0.6225    3.5398   H         1 RES1   0.0000
    47 H5        2.8287    1.7240    4.8407   H         1 RES1   0.0000
    48 H6        4.0379    3.1676    3.3308   H         1 RES1   0.0000
    49 H7        3.8913    2.0270    2.0016   H         1 RES1   0.0000
    50 H8        1.3336    2.2201    2.2692   H         1 RES1   0.0000
    51 H9        1.6570    3.5801    3.3722   H         1 RES1   0.0000
    52 H10       2.8513    4.7573    1.5096   H         1 RES1   0.0000
    53 H11       2.4675    3.4044    0.4445   H         1 RES1   0.0000
    54 H12       0.0235    4.3130    1.7203   H         1 RES1   0.0000
    55 H13       0.8136    5.6956    0.9639   H         1 RES1   0.0000
    56 H14       0.4123    4.4324   -2.3991   H         1 RES1   0.0000
    57 H15      -0.1741    5.8489   -1.5085   H         1 RES1   0.0000
    58 H16       2.0767    6.1489   -0.5093   H         1 RES1   0.0000
    59 H17       2.6680    4.7430   -1.3813   H         1 RES1   0.0000
    60 H18       3.0594    7.2552   -2.1597   H         1 RES1   0.0000
    61 H19       0.5405    6.6140   -3.7409   H         1 RES1   0.0000
    62 H20       0.6486    7.7835   -2.4174   H         1 RES1   0.0000
    63 H21       1.5870    8.0230   -3.8839   H         1 RES1   0.0000
    64 H22       2.9976    4.7320   -3.6960   H         1 RES1   0.0000
    65 H23       2.9125    6.1928   -4.6625   H         1 RES1   0.0000
    66 H24       5.1738    5.6733   -4.5518   H         1 RES1   0.0000
    67 H25       4.9784    7.0059   -3.4311   H         1 RES1   0.0000
    68 H26       4.7956    5.1232   -1.5678   H         1 RES1   0.0000
    69 H27       7.0517    4.8768   -4.5624   H         1 RES1   0.0000
    70 H28       8.3693    5.0899   -3.4195   H         1 RES1   0.0000
    71 H29       7.8335    3.4692   -3.8364   H         1 RES1   0.0000
    72 H30       6.2794    3.1391   -0.8516   H         1 RES1   0.0000
    73 H31       7.9455    3.2907   -1.4121   H         1 RES1   0.0000
    74 H32       7.2149    4.5717   -0.4595   H         1 RES1   0.0000
    75 H33      -2.4120    3.0129   -1.1908   H         1 RES1   0.0000
    76 H34      -1.1156    2.9145   -2.4144   H         1 RES1   0.0000
    77 H35      -3.4755    0.7876   -1.7671   H         1 RES1   0.0000
    78 H36      -2.3370    0.5156   -3.1194   H         1 RES1   0.0000
    79 H37      -2.7042   -4.1281   -2.3912   H         1 RES1   0.0000
    80 H38      -1.5595   -3.4300   -1.2238   H         1 RES1   0.0000
    81 H39      -3.2649   -4.4996    0.0579   H         1 RES1   0.0000
    82 H40      -3.5318   -2.7611    0.2051   H         1 RES1   0.0000
    83 H41      -5.3290   -2.9294   -1.5497   H         1 RES1   0.0000
    84 H42      -5.0643   -4.6768   -1.6118   H         1 RES1   0.0000
    85 H43      -6.9185   -4.4016   -0.1674   H         1 RES1   0.0000
    86 H44      -5.5671   -4.6903    0.9200   H         1 RES1   0.0000
    87 H45      -5.3846   -2.2495    1.3517   H         1 RES1   0.0000
    88 H46      -6.6904   -1.9442    0.2022   H         1 RES1   0.0000
    89 H47      -6.9446   -3.5689    2.7739   H         1 RES1   0.0000
    90 H48      -7.5525   -1.9302    2.5210   H         1 RES1   0.0000
    91 H49      -8.2460   -3.2754    1.6264   H         1 RES1   0.0000
    92 H50      -4.0894   -2.6740   -3.6726   H         1 RES1   0.0000
    93 H51      -3.6062   -0.9981   -3.8247   H         1 RES1   0.0000
    94 H52      -1.2216   -1.9131   -4.3083   H         1 RES1   0.0000
    95 H53      -1.9860   -3.4776   -4.5739   H         1 RES1   0.0000
    96 H54      -2.7052   -0.9025   -6.0143   H         1 RES1   0.0000
    97 H55      -0.9955   -3.2346   -6.9786   H         1 RES1   0.0000
    98 H56      -1.4958   -1.8566   -7.9506   H         1 RES1   0.0000
    99 H57      -0.4148   -1.6161   -6.5847   H         1 RES1   0.0000
   100 H58      -3.4263   -3.3363   -7.4266   H         1 RES1   0.0000
   101 H59      -4.1676   -3.3386   -5.8362   H         1 RES1   0.0000
   102 H60      -4.3888   -1.1870   -7.9813   H         1 RES1   0.0000
   103 H61      -5.6662   -2.2813   -7.4586   H         1 RES1   0.0000
   104 H62      -4.8075    0.2803   -6.2019   H         1 RES1   0.0000
   105 H63      -5.8173    1.0812   -4.3098   H         1 RES1   0.0000
   106 H64      -7.4299    0.4024   -4.0997   H         1 RES1   0.0000
   107 H65      -6.1231   -0.1443   -3.0644   H         1 RES1   0.0000
   108 H66      -6.5225   -2.9732   -5.5413   H         1 RES1   0.0000
   109 H67      -6.5026   -2.6082   -3.8126   H         1 RES1   0.0000
   110 H68      -7.8336   -2.0589   -4.8070   H         1 RES1   0.0000
   111 C37      -1.9800    1.6790   -5.4269   C.3       1 RES1   0.0000
   112 C38      -1.1771    2.8346   -5.9977   C.3       1 RES1   0.0000
   113 C39      -0.3089    3.5133   -4.9421   C.3       1 RES1   0.0000
   114 C40       1.0863    2.9036   -4.7296   C.3       1 RES1   0.0000
   115 C41       1.3230    1.7417   -3.7301   C.3       1 RES1   0.0000
   116 C42       2.6241    2.0833   -2.9822   C.3       1 RES1   0.0000
   117 N3        3.2460    1.0825   -2.1126   N.am      1 RES1   0.0000
   118 C43       4.6958    0.9335   -2.1692   C.3       1 RES1   0.0000
   119 C44       5.1675   -0.3631   -2.8217   C.3       1 RES1   0.0000
   120 C45       4.5898   -0.5991   -4.2206   C.3       1 RES1   0.0000
   121 C46       5.3178    0.2546   -5.2570   C.3       1 RES1   0.0000
   122 C47       4.6920   -2.0836   -4.5987   C.3       1 RES1   0.0000
   123 C48       3.8420   -3.0230   -3.7231   C.3       1 RES1   0.0000
   124 C49       3.8315   -4.4100   -4.2999   C.2       1 RES1   0.0000
   125 C50       2.7960   -5.1314   -4.7123   C.2       1 RES1   0.0000
   126 C51       2.9966   -6.4987   -5.2844   C.3       1 RES1   0.0000
   127 C52       1.3587   -4.6982   -4.6649   C.3       1 RES1   0.0000
   128 C53       2.5369    0.6332   -1.0991   C.2       1 RES1   0.0000
   129 O4        1.3594    1.0267   -0.9172   O.2       1 RES1   0.0000
   130 C54       3.1091   -0.3780   -0.1035   C.3       1 RES1   0.0000
   131 O5        1.9538   -0.9462    0.4926   O.3       1 RES1   0.0000
   132 C55       2.1607   -1.9334    1.4993   C.3       1 RES1   0.0000
   133 C56       0.7571   -2.0615    2.1070   C.2       1 RES1   0.0000
   134 O6        0.0377   -1.0316    2.0330   O.2       1 RES1   0.0000
   135 N4        0.2816   -3.1710    2.6202   N.am      1 RES1   0.0000
   136 C57      -1.1339   -3.1572    3.0029   C.3       1 RES1   0.0000
   137 C58      -1.4386   -2.2833    4.2295   C.3       1 RES1   0.0000
   138 C59      -2.6820   -2.7823    4.9722   C.3       1 RES1   0.0000
   139 C60      -4.0368   -2.6294    4.2673   C.3       1 RES1   0.0000
   140 C61      -4.7553   -1.3066    4.5524   C.3       1 RES1   0.0000
   141 C62      -4.2688   -0.1763    3.6543   C.3       1 RES1   0.0000
   142 C63       1.0639   -4.3591    2.9151   C.3       1 RES1   0.0000
   143 C64       1.2851   -4.5477    4.4211   C.3       1 RES1   0.0000
   144 C65       2.0626   -3.3948    5.0723   C.3       1 RES1   0.0000
   145 C66       3.5611   -3.4908    4.7814   C.3       1 RES1   0.0000
   146 C67       1.7826   -3.3734    6.5837   C.3       1 RES1   0.0000
   147 C68       2.1448   -2.0360    7.2521   C.3       1 RES1   0.0000
   148 C69       1.4167   -0.8759    6.6337   C.2       1 RES1   0.0000
   149 C70       0.2066   -0.4278    6.9467   C.2       1 RES1   0.0000
   150 C71      -0.3845    0.7609    6.2405   C.3       1 RES1   0.0000
   151 C72      -0.6653   -1.0047    8.0188   C.3       1 RES1   0.0000
   152 H69      -2.5810    1.2380   -6.2140   H         1 RES1   0.0000
   153 H70      -2.6545    2.0418   -4.6518   H         1 RES1   0.0000
   154 H71      -1.3172    0.9212   -5.0123   H         1 RES1   0.0000
   155 H72      -1.8752    3.5634   -6.4090   H         1 RES1   0.0000
   156 H73      -0.5532    2.4877   -6.8207   H         1 RES1   0.0000
   157 H74      -0.8746    3.5622   -4.0085   H         1 RES1   0.0000
   158 H75      -0.1494    4.5456   -5.2602   H         1 RES1   0.0000
   159 H76       1.7016    3.7328   -4.3938   H         1 RES1   0.0000
   160 H77       1.4752    2.6082   -5.7022   H         1 RES1   0.0000
   161 H78       1.4327    0.8037   -4.2786   H         1 RES1   0.0000
   162 H79       0.5006    1.6249   -3.0242   H         1 RES1   0.0000
   163 H80       2.4200    2.9495   -2.3489   H         1 RES1   0.0000
   164 H81       3.3640    2.3492   -3.7326   H         1 RES1   0.0000
   165 H82       5.0749    0.9766   -1.1477   H         1 RES1   0.0000
   166 H83       5.0993    1.7919   -2.7034   H         1 RES1   0.0000
   167 H84       4.8979   -1.1982   -2.1786   H         1 RES1   0.0000
   168 H85       6.2573   -0.3452   -2.8755   H         1 RES1   0.0000
   169 H86       3.5242   -0.3329   -4.2133   H         1 RES1   0.0000
   170 H87       6.3730   -0.0093   -5.2772   H         1 RES1   0.0000
   171 H88       5.2365    1.3151   -5.0298   H         1 RES1   0.0000
   172 H89       4.9011    0.0875   -6.2471   H         1 RES1   0.0000
   173 H90       5.7356   -2.3976   -4.5455   H         1 RES1   0.0000
   174 H91       4.3637   -2.2006   -5.6337   H         1 RES1   0.0000
   175 H92       2.8282   -2.6144   -3.6329   H         1 RES1   0.0000
   176 H93       4.2719   -3.0818   -2.7144   H         1 RES1   0.0000
   177 H94       4.8243   -4.8312   -4.3833   H         1 RES1   0.0000
   178 H95       4.0444   -6.7755   -5.2961   H         1 RES1   0.0000
   179 H96       2.6217   -6.5369   -6.3031   H         1 RES1   0.0000
   180 H97       2.4502   -7.2403   -4.7082   H         1 RES1   0.0000
   181 H98       1.2220   -3.6886   -4.2843   H         1 RES1   0.0000
   182 H99       0.7865   -5.3823   -4.0412   H         1 RES1   0.0000
   183 H100      0.9343   -4.7376   -5.6646   H         1 RES1   0.0000
   184 H101      3.7151    0.1579    0.6459   H         1 RES1   0.0000
   185 H102      3.7244   -1.1497   -0.5816   H         1 RES1   0.0000
   186 H103      2.8616   -1.5784    2.2635   H         1 RES1   0.0000
   187 H104      2.5434   -2.8577    1.0517   H         1 RES1   0.0000
   188 H105     -1.4298   -4.1881    3.1935   H         1 RES1   0.0000
   189 H106     -1.6955   -2.7773    2.1409   H         1 RES1   0.0000
   190 H107     -1.5351   -1.2444    3.9137   H         1 RES1   0.0000
   191 H108     -0.5974   -2.3265    4.9223   H         1 RES1   0.0000
   192 H109     -2.7463   -2.2759    5.9359   H         1 RES1   0.0000
   193 H110     -2.5185   -3.8407    5.1838   H         1 RES1   0.0000
   194 H111     -4.6802   -3.4312    4.6271   H         1 RES1   0.0000
   195 H112     -3.9259   -2.7628    3.1887   H         1 RES1   0.0000
   196 H113     -4.6168   -1.0242    5.5962   H         1 RES1   0.0000
   197 H114     -5.8261   -1.4363    4.3977   H         1 RES1   0.0000
   198 H115     -3.2123    0.0115    3.8385   H         1 RES1   0.0000
   199 H116     -4.8202    0.7420    3.8398   H         1 RES1   0.0000
   200 H117     -4.4341   -0.4598    2.6114   H         1 RES1   0.0000
   201 H118      2.0323   -4.2877    2.4245   H         1 RES1   0.0000
   202 H119      0.5329   -5.2225    2.5045   H         1 RES1   0.0000
   203 H120      1.8328   -5.4793    4.5608   H         1 RES1   0.0000
   204 H121      0.3166   -4.6568    4.9085   H         1 RES1   0.0000
   205 H122      1.6896   -2.4517    4.6553   H         1 RES1   0.0000
   206 H123      3.9894   -4.3740    5.2468   H         1 RES1   0.0000
   207 H124      4.0918   -2.6288    5.1769   H         1 RES1   0.0000
   208 H125      3.7685   -3.5409    3.7124   H         1 RES1   0.0000
   209 H126      2.3309   -4.1855    7.0647   H         1 RES1   0.0000
   210 H127      0.7169   -3.5543    6.7459   H         1 RES1   0.0000
   211 H128      3.2224   -1.8749    7.1819   H         1 RES1   0.0000
   212 H129      1.9018   -2.1048    8.3127   H         1 RES1   0.0000
   213 H130      1.9655   -0.3631    5.8546   H         1 RES1   0.0000
   214 H131      0.2593    1.1088    5.4350   H         1 RES1   0.0000
   215 H132     -0.5279    1.5787    6.9443   H         1 RES1   0.0000
   216 H133     -1.3620    0.5154    5.8280   H         1 RES1   0.0000
   217 H134     -0.2029   -1.8453    8.5233   H         1 RES1   0.0000
   218 H135     -1.6155   -1.3368    7.6031   H         1 RES1   0.0000
   219 H136     -0.8929   -0.2423    8.7614   H         1 RES1   0.0000
   220 O7       -2.3655    0.7745    1.4280   O.3       1 RES1   0.0000
   221 H137     -2.9759    0.0763    1.7254   H         1 RES1   0.0000
   222 H138     -2.4873    1.5100    2.0525   H         1 RES1   0.0000
   223 O8        0.5524   -1.2946   -1.9489   O.3       1 RES1   0.0000
   224 H139      0.8529   -0.8088   -2.7319   H         1 RES1   0.0000
   225 H140      0.7448   -2.2251   -2.1300   H         1 RES1   0.0000
@<TRIPOS>BOND
     1     1    20    1
     2     1    22    1
     3     1    25    1
     4     1   129    1
     5     1   131    1
     6     1   134    1
     7     1   220    1
     8     1   223    1
     9     2     3    1
    10     2    43    1
    11     2    44    1
    12     2    45    1
    13     3     4    1
    14     3    46    1
    15     3    47    1
    16     4     5    1
    17     4    48    1
    18     4    49    1
    19     5     6    1
    20     5    50    1
    21     5    51    1
    22     6     7    1
    23     6    52    1
    24     6    53    1
    25     7     8    1
    26     7    54    1
    27     7    55    1
    28     8     9    1
    29     8    19    1
    30     9    10    1
    31     9    56    1
    32     9    57    1
    33    10    11    1
    34    10    58    1
    35    10    59    1
    36    11    12    1
    37    11    13    1
    38    11    60    1
    39    12    61    1
    40    12    62    1
    41    12    63    1
    42    13    14    1
    43    13    64    1
    44    13    65    1
    45    14    15    1
    46    14    66    1
    47    14    67    1
    48    15    16    2
    49    15    68    1
    50    16    17    1
    51    16    18    1
    52    17    69    1
    53    17    70    1
    54    17    71    1
    55    18    72    1
    56    18    73    1
    57    18    74    1
    58    19    20    2
    59    19    21    1
    60    21    22    1
    61    21    75    1
    62    21    76    1
    63    22    23    1
    64    23    24    1
    65    23    77    1
    66    23    78    1
    67    24    25    2
    68    24    26    1
    69    26    27    1
    70    26    33    1
    71    27    28    1
    72    27    79    1
    73    27    80    1
    74    28    29    1
    75    28    81    1
    76    28    82    1
    77    29    30    1
    78    29    83    1
    79    29    84    1
    80    30    31    1
    81    30    85    1
    82    30    86    1
    83    31    32    1
    84    31    87    1
    85    31    88    1
    86    32    89    1
    87    32    90    1
    88    32    91    1
    89    33    34    1
    90    33    92    1
    91    33    93    1
    92    34    35    1
    93    34    94    1
    94    34    95    1
    95    35    36    1
    96    35    37    1
    97    35    96    1
    98    36    97    1
    99    36    98    1
   100    36    99    1
   101    37    38    1
   102    37   100    1
   103    37   101    1
   104    38    39    1
   105    38   102    1
   106    38   103    1
   107    39    40    2
   108    39   104    1
   109    40    41    1
   110    40    42    1
   111    41   105    1
   112    41   106    1
   113    41   107    1
   114    42   108    1
   115    42   109    1
   116    42   110    1
   117   111   112    1
   118   111   152    1
   119   111   153    1
   120   111   154    1
   121   112   113    1
   122   112   155    1
   123   112   156    1
   124   113   114    1
   125   113   157    1
   126   113   158    1
   127   114   115    1
   128   114   159    1
   129   114   160    1
   130   115   116    1
   131   115   161    1
   132   115   162    1
   133   116   117    1
   134   116   163    1
   135   116   164    1
   136   117   118    1
   137   117   128    1
   138   118   119    1
   139   118   165    1
   140   118   166    1
   141   119   120    1
   142   119   167    1
   143   119   168    1
   144   120   121    1
   145   120   122    1
   146   120   169    1
   147   121   170    1
   148   121   171    1
   149   121   172    1
   150   122   123    1
   151   122   173    1
   152   122   174    1
   153   123   124    1
   154   123   175    1
   155   123   176    1
   156   124   125    2
   157   124   177    1
   158   125   126    1
   159   125   127    1
   160   126   178    1
   161   126   179    1
   162   126   180    1
   163   127   181    1
   164   127   182    1
   165   127   183    1
   166   128   129    2
   167   128   130    1
   168   130   131    1
   169   130   184    1
   170   130   185    1
   171   131   132    1
   172   132   133    1
   173   132   186    1
   174   132   187    1
   175   133   134    2
   176   133   135    1
   177   135   136    1
   178   135   142    1
   179   136   137    1
   180   136   188    1
   181   136   189    1
   182   137   138    1
   183   137   190    1
   184   137   191    1
   185   138   139    1
   186   138   192    1
   187   138   193    1
   188   139   140    1
   189   139   194    1
   190   139   195    1
   191   140   141    1
   192   140   196    1
   193   140   197    1
   194   141   198    1
   195   141   199    1
   196   141   200    1
   197   142   143    1
   198   142   201    1
   199   142   202    1
   200   143   144    1
   201   143   203    1
   202   143   204    1
   203   144   145    1
   204   144   146    1
   205   144   205    1
   206   145   206    1
   207   145   207    1
   208   145   208    1
   209   146   147    1
   210   146   209    1
   211   146   210    1
   212   147   148    1
   213   147   211    1
   214   147   212    1
   215   148   149    2
   216   148   213    1
   217   149   150    1
   218   149   151    1
   219   150   214    1
   220   150   215    1
   221   150   216    1
   222   151   217    1
   223   151   218    1
   224   151   219    1
   225   220   221    1
   226   220   222    1
   227   223   224    1
   228   223   225    1
@<TRIPOS>SUBSTRUCTURE
     1 RES1      225 GROUP             0 ****  ****    0  
