@<TRIPOS>MOLECULE
ICIGOT_geomtry_0_nunpairedes_0_charge_2 Charge: 2 Unpaired_Electrons: 5 XTB_Unpaired_Electrons: 0 XTB_Charge: 2
   119   129     1     0     0
SMALL
NoCharges
****
Generated from Architector

@<TRIPOS>ATOM
     1 Dy1      -0.1667   -0.0984    0.0160   Dy        1 RES1   0.0000
     2 C1       -0.6920   -2.2263   -5.1742   C.3       1 RES1   0.0000
     3 C2        0.4179   -1.2864   -4.7290   C.3       1 RES1   0.0000
     4 N1        1.2935   -1.8996   -3.7298   N.am      1 RES1   0.0000
     5 C3        1.4045   -1.3409   -2.5331   C.2       1 RES1   0.0000
     6 O1        0.7643   -0.3098   -2.2050   O.2       1 RES1   0.0000
     7 C4        2.3535   -1.8524   -1.4901   C.ar      1 RES1   0.0000
     8 C5        3.6161   -2.3922   -1.7174   C.ar      1 RES1   0.0000
     9 C6        4.3997   -2.6905   -0.6154   C.ar      1 RES1   0.0000
    10 C7        3.9080   -2.4662    0.6652   C.ar      1 RES1   0.0000
    11 C8        2.6402   -1.9049    0.8117   C.ar      1 RES1   0.0000
    12 C9        1.8428   -1.6836    2.0778   C.2       1 RES1   0.0000
    13 O2        0.6179   -1.4901    1.9128   O.2       1 RES1   0.0000
    14 N2        2.3827   -1.7865    3.2987   N.am      1 RES1   0.0000
    15 C10       1.4525   -1.9566    4.4270   C.3       1 RES1   0.0000
    16 C11       1.8111   -1.1432    5.6582   C.3       1 RES1   0.0000
    17 C12       3.7682   -1.7392    3.6118   C.ar      1 RES1   0.0000
    18 C13       4.6001   -0.7366    3.1168   C.ar      1 RES1   0.0000
    19 C14       5.9293   -0.7022    3.5088   C.ar      1 RES1   0.0000
    20 C15       6.4326   -1.6237    4.4083   C.ar      1 RES1   0.0000
    21 C16       5.6094   -2.6144    4.9340   C.ar      1 RES1   0.0000
    22 C17       6.1412   -3.5783    5.9425   C.3       1 RES1   0.0000
    23 C18       4.2874   -2.6665    4.5121   C.ar      1 RES1   0.0000
    24 N3        1.9011   -1.5914   -0.2616   N.ar      1 RES1   0.0000
    25 C19       1.8793   -3.1395   -4.1098   C.ar      1 RES1   0.0000
    26 C20       2.4489   -3.2633   -5.3732   C.ar      1 RES1   0.0000
    27 C21       2.9387   -4.4872   -5.7849   C.ar      1 RES1   0.0000
    28 C22       2.9069   -5.5814   -4.9381   C.ar      1 RES1   0.0000
    29 C23       2.3627   -5.4671   -3.6641   C.ar      1 RES1   0.0000
    30 C24       2.3113   -6.6145   -2.7095   C.3       1 RES1   0.0000
    31 C25       1.8247   -4.2446   -3.2716   C.ar      1 RES1   0.0000
    32 H1       -1.3318   -1.7177   -5.8902   H         1 RES1   0.0000
    33 H2       -1.2984   -2.5308   -4.3253   H         1 RES1   0.0000
    34 H3       -0.2822   -3.1133   -5.6481   H         1 RES1   0.0000
    35 H4       -0.0057   -0.3963   -4.2746   H         1 RES1   0.0000
    36 H5        1.0254   -0.9803   -5.5848   H         1 RES1   0.0000
    37 H6        3.9759   -2.5589   -2.7203   H         1 RES1   0.0000
    38 H7        5.3966   -3.0868   -0.7548   H         1 RES1   0.0000
    39 H8        4.5052   -2.7327    1.5215   H         1 RES1   0.0000
    40 H9        1.4159   -3.0201    4.6867   H         1 RES1   0.0000
    41 H10       0.4694   -1.6612    4.0611   H         1 RES1   0.0000
    42 H11       2.7649   -1.4464    6.0796   H         1 RES1   0.0000
    43 H12       1.0382   -1.2974    6.4066   H         1 RES1   0.0000
    44 H13       1.8548   -0.0850    5.4239   H         1 RES1   0.0000
    45 H14       4.2275    0.0099    2.4290   H         1 RES1   0.0000
    46 H15       6.5776    0.0700    3.1289   H         1 RES1   0.0000
    47 H16       7.4633   -1.5687    4.7188   H         1 RES1   0.0000
    48 H17       6.9707   -4.1447    5.5224   H         1 RES1   0.0000
    49 H18       5.3742   -4.2698    6.2799   H         1 RES1   0.0000
    50 H19       6.5269   -3.0394    6.8071   H         1 RES1   0.0000
    51 H20       3.6496   -3.4481    4.8898   H         1 RES1   0.0000
    52 H21       2.5141   -2.4162   -6.0359   H         1 RES1   0.0000
    53 H22       3.3352   -4.5810   -6.7827   H         1 RES1   0.0000
    54 H23       3.2912   -6.5284   -5.2813   H         1 RES1   0.0000
    55 H24       2.7331   -7.5146   -3.1437   H         1 RES1   0.0000
    56 H25       1.2813   -6.8177   -2.4215   H         1 RES1   0.0000
    57 H26       2.8641   -6.3760   -1.8010   H         1 RES1   0.0000
    58 H27       1.3467   -4.1677   -2.3070   H         1 RES1   0.0000
    59 C26       0.4483    2.1720    4.1446   C.3       1 RES1   0.0000
    60 C27       1.9003    2.1416    3.6790   C.3       1 RES1   0.0000
    61 N4        2.0789    2.9044    2.4329   N.am      1 RES1   0.0000
    62 C28       1.5804    2.3349    1.3414   C.2       1 RES1   0.0000
    63 O3        1.1617    1.1494    1.4082   O.2       1 RES1   0.0000
    64 C29       1.4044    2.9888   -0.0024   C.ar      1 RES1   0.0000
    65 C30       2.0405    4.0977   -0.5477   C.ar      1 RES1   0.0000
    66 C31       1.6421    4.5258   -1.8071   C.ar      1 RES1   0.0000
    67 C32       0.6438    3.8474   -2.4940   C.ar      1 RES1   0.0000
    68 C33       0.1025    2.6995   -1.9121   C.ar      1 RES1   0.0000
    69 C34      -0.9751    1.7718   -2.4208   C.2       1 RES1   0.0000
    70 O4       -1.5404    1.0678   -1.5543   O.2       1 RES1   0.0000
    71 N5       -1.3501    1.6908   -3.7000   N.am      1 RES1   0.0000
    72 C35      -2.5189    0.8316   -3.9365   C.3       1 RES1   0.0000
    73 C36      -3.7996    1.4754   -3.4191   C.3       1 RES1   0.0000
    74 C37      -0.6249    2.1207   -4.8417   C.ar      1 RES1   0.0000
    75 C38       0.7654    2.0275   -4.8846   C.ar      1 RES1   0.0000
    76 C39       1.4368    2.3613   -6.0465   C.ar      1 RES1   0.0000
    77 C40       0.7387    2.7309   -7.1841   C.ar      1 RES1   0.0000
    78 C41      -0.6497    2.7883   -7.1729   C.ar      1 RES1   0.0000
    79 C42      -1.4144    3.1097   -8.4157   C.3       1 RES1   0.0000
    80 C43      -1.3168    2.5136   -5.9822   C.ar      1 RES1   0.0000
    81 N6        0.4871    2.3050   -0.6968   N.ar      1 RES1   0.0000
    82 C44       2.7385    4.1613    2.5921   C.ar      1 RES1   0.0000
    83 C45       2.1674    5.3686    2.2123   C.ar      1 RES1   0.0000
    84 C46       2.8374    6.5489    2.4880   C.ar      1 RES1   0.0000
    85 C47       4.0314    6.5408    3.1851   C.ar      1 RES1   0.0000
    86 C48       4.6029    5.3433    3.5987   C.ar      1 RES1   0.0000
    87 C49       5.8399    5.3358    4.4370   C.3       1 RES1   0.0000
    88 C50       3.9611    4.1570    3.2602   C.ar      1 RES1   0.0000
    89 H28       0.3777    1.7168    5.1289   H         1 RES1   0.0000
    90 H29      -0.2043    1.6209    3.4688   H         1 RES1   0.0000
    91 H30       0.1045    3.2005    4.2216   H         1 RES1   0.0000
    92 H31       2.2195    1.1128    3.5017   H         1 RES1   0.0000
    93 H32       2.5243    2.5991    4.4447   H         1 RES1   0.0000
    94 H33       2.8257    4.6141   -0.0198   H         1 RES1   0.0000
    95 H34       2.1132    5.3964   -2.2450   H         1 RES1   0.0000
    96 H35       0.3175    4.2010   -3.4595   H         1 RES1   0.0000
    97 H36      -2.3302   -0.1043   -3.3996   H         1 RES1   0.0000
    98 H37      -2.5839    0.6375   -5.0064   H         1 RES1   0.0000
    99 H38      -3.7505    1.5972   -2.3407   H         1 RES1   0.0000
   100 H39      -4.6554    0.8468   -3.6445   H         1 RES1   0.0000
   101 H40      -3.9651    2.4460   -3.8800   H         1 RES1   0.0000
   102 H41       1.3090    1.6679   -4.0236   H         1 RES1   0.0000
   103 H42       2.5116    2.2876   -6.0783   H         1 RES1   0.0000
   104 H43       1.2748    2.9504   -8.0926   H         1 RES1   0.0000
   105 H44      -0.7330    3.3105   -9.2368   H         1 RES1   0.0000
   106 H45      -2.0517    3.9789   -8.2644   H         1 RES1   0.0000
   107 H46      -2.0587    2.2795   -8.7075   H         1 RES1   0.0000
   108 H47      -2.3902    2.6062   -5.9518   H         1 RES1   0.0000
   109 H48       1.2045    5.3926    1.7274   H         1 RES1   0.0000
   110 H49       2.4012    7.4882    2.1911   H         1 RES1   0.0000
   111 H50       4.5106    7.4735    3.4340   H         1 RES1   0.0000
   112 H51       6.1990    6.3492    4.5901   H         1 RES1   0.0000
   113 H52       6.6336    4.7472    3.9809   H         1 RES1   0.0000
   114 H53       5.6284    4.9000    5.4136   H         1 RES1   0.0000
   115 H54       4.4107    3.2136    3.5322   H         1 RES1   0.0000
   116 N7       -2.0511   -1.4525    0.7006   N.3       1 RES1   0.0000
   117 O5       -2.7989   -2.2142    1.2086   O.2       1 RES1   0.0000
   118 O6       -1.9194   -0.2826    1.1082   O.co2     1 RES1   0.0000
   119 O7       -1.3625   -1.7719   -0.2957   O.co2     1 RES1   0.0000
@<TRIPOS>BOND
     1     1     6    1
     2     1    13    1
     3     1    24    1
     4     1    63    1
     5     1    70    1
     6     1    81    1
     7     1   118    1
     8     1   119    1
     9     2     3    1
    10     2    32    1
    11     2    33    1
    12     2    34    1
    13     3     4    1
    14     3    35    1
    15     3    36    1
    16     4     5    1
    17     4    25    1
    18     5     6    2
    19     5     7    1
    20     7     8    1
    21     7    24    2
    22     8     9    2
    23     8    37    1
    24     9    10    1
    25     9    38    1
    26    10    11    2
    27    10    39    1
    28    11    12    1
    29    11    24    1
    30    12    13    2
    31    12    14    1
    32    14    15    1
    33    14    17    1
    34    15    16    1
    35    15    40    1
    36    15    41    1
    37    16    42    1
    38    16    43    1
    39    16    44    1
    40    17    18    1
    41    17    23    2
    42    18    19    2
    43    18    45    1
    44    19    20    1
    45    19    46    1
    46    20    21    2
    47    20    47    1
    48    21    22    1
    49    21    23    1
    50    22    48    1
    51    22    49    1
    52    22    50    1
    53    23    51    1
    54    25    26    1
    55    25    31    2
    56    26    27    2
    57    26    52    1
    58    27    28    1
    59    27    53    1
    60    28    29    2
    61    28    54    1
    62    29    30    1
    63    29    31    1
    64    30    55    1
    65    30    56    1
    66    30    57    1
    67    31    58    1
    68    59    60    1
    69    59    89    1
    70    59    90    1
    71    59    91    1
    72    60    61    1
    73    60    92    1
    74    60    93    1
    75    61    62    1
    76    61    82    1
    77    62    63    2
    78    62    64    1
    79    64    65    1
    80    64    81    2
    81    65    66    2
    82    65    94    1
    83    66    67    1
    84    66    95    1
    85    67    68    2
    86    67    96    1
    87    68    69    1
    88    68    81    1
    89    69    70    2
    90    69    71    1
    91    71    72    1
    92    71    74    1
    93    72    73    1
    94    72    97    1
    95    72    98    1
    96    73    99    1
    97    73   100    1
    98    73   101    1
    99    74    75    1
   100    74    80    2
   101    75    76    2
   102    75   102    1
   103    76    77    1
   104    76   103    1
   105    77    78    2
   106    77   104    1
   107    78    79    1
   108    78    80    1
   109    79   105    1
   110    79   106    1
   111    79   107    1
   112    80   108    1
   113    82    83    1
   114    82    88    2
   115    83    84    2
   116    83   109    1
   117    84    85    1
   118    84   110    1
   119    85    86    2
   120    85   111    1
   121    86    87    1
   122    86    88    1
   123    87   112    1
   124    87   113    1
   125    87   114    1
   126    88   115    1
   127   116   117    2
   128   116   118    1
   129   116   119    1
@<TRIPOS>SUBSTRUCTURE
     1 RES1      119 GROUP             0 ****  ****    0  
