@<TRIPOS>MOLECULE
ICIGOT_geomtry_0_nunpairedes_0_charge_2 Charge: 2 Unpaired_Electrons: 5 XTB_Unpaired_Electrons: 0 XTB_Charge: 2
   231   235     1     0     0
SMALL
NoCharges
****
Generated from Architector

@<TRIPOS>ATOM
     1 Dy1      -0.1966   -0.1740   -0.0135   Dy        1 RES1   0.0000
     2 C1        1.9266   -3.4038    2.1057   C.3       1 RES1   0.0000
     3 C2        1.6052   -4.6533    2.9179   C.3       1 RES1   0.0000
     4 C3        2.5398   -4.8701    4.1088   C.3       1 RES1   0.0000
     5 C4        2.6072   -3.7579    5.1619   C.3       1 RES1   0.0000
     6 C5        1.4073   -3.6715    6.1139   C.3       1 RES1   0.0000
     7 C6        0.1929   -2.8838    5.6162   C.3       1 RES1   0.0000
     8 C7        0.4678   -1.3821    5.5521   C.3       1 RES1   0.0000
     9 C8       -0.7977   -0.5333    5.3709   C.3       1 RES1   0.0000
    10 N1       -1.3349   -0.6309    4.0242   N.am      1 RES1   0.0000
    11 C9       -2.4262   -1.5632    3.7487   C.3       1 RES1   0.0000
    12 C10      -3.7282   -0.8620    3.3032   C.3       1 RES1   0.0000
    13 C11      -4.8482   -1.8967    3.1351   C.3       1 RES1   0.0000
    14 C12      -4.6743   -2.7652    1.8973   C.3       1 RES1   0.0000
    15 C13      -4.1597    0.3074    4.2136   C.3       1 RES1   0.0000
    16 C14      -5.0572   -0.0032    5.4170   C.3       1 RES1   0.0000
    17 C15      -4.3899   -0.7716    6.5530   C.3       1 RES1   0.0000
    18 C16      -5.3323   -0.9264    7.7412   C.3       1 RES1   0.0000
    19 C17      -0.8235    0.0172    2.9971   C.2       1 RES1   0.0000
    20 O1       -1.2222   -0.1924    1.8326   O.2       1 RES1   0.0000
    21 C18       0.2440    1.1074    3.2048   C.3       1 RES1   0.0000
    22 O2        0.6493    1.6110    1.9404   O.3       1 RES1   0.0000
    23 C19       0.3758    2.9836    1.6734   C.3       1 RES1   0.0000
    24 C20      -0.5200    3.0803    0.4301   C.2       1 RES1   0.0000
    25 O3       -0.7655    2.0133   -0.1715   O.2       1 RES1   0.0000
    26 N2       -0.9443    4.2585    0.0008   N.am      1 RES1   0.0000
    27 C21      -0.5802    5.5026    0.6622   C.3       1 RES1   0.0000
    28 C22      -1.3635    5.8184    1.9413   C.3       1 RES1   0.0000
    29 C23      -0.6343    6.8662    2.7876   C.3       1 RES1   0.0000
    30 C24       0.5977    6.3782    3.5641   C.3       1 RES1   0.0000
    31 C25       1.9011    6.3662    2.7616   C.3       1 RES1   0.0000
    32 C26       3.1499    6.1650    3.6189   C.3       1 RES1   0.0000
    33 C27       4.4316    6.3261    2.7975   C.3       1 RES1   0.0000
    34 C28       4.5445    5.3555    1.6256   C.3       1 RES1   0.0000
    35 C29      -1.6008    4.3323   -1.3077   C.3       1 RES1   0.0000
    36 C30      -2.9979    3.7004   -1.4084   C.3       1 RES1   0.0000
    37 C31      -3.9002    4.2263   -0.2854   C.3       1 RES1   0.0000
    38 C32      -5.1733    3.4037   -0.1342   C.3       1 RES1   0.0000
    39 C33      -3.5793    4.0057   -2.8007   C.3       1 RES1   0.0000
    40 C34      -3.2299    2.9904   -3.8947   C.3       1 RES1   0.0000
    41 C35      -1.8019    3.0199   -4.4450   C.3       1 RES1   0.0000
    42 C36      -1.4167    4.3629   -5.0548   C.3       1 RES1   0.0000
    43 H1        1.2447   -3.2941    1.2602   H         1 RES1   0.0000
    44 H2        1.8373   -2.5055    2.7141   H         1 RES1   0.0000
    45 H3        2.9444   -3.4648    1.7250   H         1 RES1   0.0000
    46 H4        0.5712   -4.6246    3.2620   H         1 RES1   0.0000
    47 H5        1.7050   -5.5259    2.2689   H         1 RES1   0.0000
    48 H6        2.2453   -5.7949    4.6082   H         1 RES1   0.0000
    49 H7        3.5495   -5.0309    3.7235   H         1 RES1   0.0000
    50 H8        3.4845   -3.9722    5.7793   H         1 RES1   0.0000
    51 H9        2.7853   -2.7872    4.6929   H         1 RES1   0.0000
    52 H10       1.0918   -4.6839    6.3671   H         1 RES1   0.0000
    53 H11       1.7437   -3.2047    7.0434   H         1 RES1   0.0000
    54 H12      -0.1221   -3.2462    4.6404   H         1 RES1   0.0000
    55 H13      -0.6221   -3.0641    6.3183   H         1 RES1   0.0000
    56 H14       0.9406   -1.0713    6.4850   H         1 RES1   0.0000
    57 H15       1.1617   -1.1717    4.7361   H         1 RES1   0.0000
    58 H16      -1.5687   -0.8700    6.0655   H         1 RES1   0.0000
    59 H17      -0.5778    0.5148    5.5881   H         1 RES1   0.0000
    60 H18      -2.1025   -2.2115    2.9267   H         1 RES1   0.0000
    61 H19      -2.5984   -2.1639    4.6382   H         1 RES1   0.0000
    62 H20      -3.5193   -0.4324    2.3145   H         1 RES1   0.0000
    63 H21      -4.9043   -2.5307    4.0225   H         1 RES1   0.0000
    64 H22      -5.7955   -1.3642    3.0447   H         1 RES1   0.0000
    65 H23      -3.7550   -3.3364    1.9571   H         1 RES1   0.0000
    66 H24      -5.5061   -3.4604    1.8097   H         1 RES1   0.0000
    67 H25      -4.6408   -2.1523    1.0013   H         1 RES1   0.0000
    68 H26      -3.2698    0.8404    4.5639   H         1 RES1   0.0000
    69 H27      -4.7217    0.9987    3.5804   H         1 RES1   0.0000
    70 H28      -5.3943    0.9557    5.8172   H         1 RES1   0.0000
    71 H29      -5.9479   -0.5403    5.0915   H         1 RES1   0.0000
    72 H30      -4.0885   -1.7632    6.2099   H         1 RES1   0.0000
    73 H31      -3.4977   -0.2278    6.8760   H         1 RES1   0.0000
    74 H32      -6.2209   -1.4826    7.4527   H         1 RES1   0.0000
    75 H33      -4.8409   -1.4590    8.5518   H         1 RES1   0.0000
    76 H34      -5.6442    0.0478    8.1098   H         1 RES1   0.0000
    77 H35      -0.1735    1.9008    3.8355   H         1 RES1   0.0000
    78 H36       1.1423    0.7128    3.6972   H         1 RES1   0.0000
    79 H37      -0.0758    3.4749    2.5362   H         1 RES1   0.0000
    80 H38       1.3356    3.4729    1.4615   H         1 RES1   0.0000
    81 H39       0.4837    5.4682    0.8834   H         1 RES1   0.0000
    82 H40      -0.7403    6.3252   -0.0368   H         1 RES1   0.0000
    83 H41      -2.3427    6.2127    1.6640   H         1 RES1   0.0000
    84 H42      -1.5430    4.9207    2.5359   H         1 RES1   0.0000
    85 H43      -0.3427    7.6983    2.1472   H         1 RES1   0.0000
    86 H44      -1.3530    7.2554    3.5078   H         1 RES1   0.0000
    87 H45       0.7429    7.0564    4.4074   H         1 RES1   0.0000
    88 H46       0.4013    5.3897    3.9884   H         1 RES1   0.0000
    89 H47       1.8944    5.5656    2.0219   H         1 RES1   0.0000
    90 H48       1.9890    7.3162    2.2294   H         1 RES1   0.0000
    91 H49       3.1601    6.8982    4.4268   H         1 RES1   0.0000
    92 H50       3.1280    5.1694    4.0715   H         1 RES1   0.0000
    93 H51       4.4812    7.3470    2.4170   H         1 RES1   0.0000
    94 H52       5.2858    6.1842    3.4614   H         1 RES1   0.0000
    95 H53       3.8542    5.6161    0.8268   H         1 RES1   0.0000
    96 H54       5.5503    5.3892    1.2166   H         1 RES1   0.0000
    97 H55       4.3417    4.3368    1.9473   H         1 RES1   0.0000
    98 H56      -1.6849    5.3852   -1.5788   H         1 RES1   0.0000
    99 H57      -0.9405    3.8411   -2.0272   H         1 RES1   0.0000
   100 H58      -2.9064    2.6151   -1.2925   H         1 RES1   0.0000
   101 H59      -3.3460    4.1726    0.6548   H         1 RES1   0.0000
   102 H60      -4.1504    5.2726   -0.4772   H         1 RES1   0.0000
   103 H61      -4.9266    2.3524    0.0054   H         1 RES1   0.0000
   104 H62      -5.7413    3.7463    0.7262   H         1 RES1   0.0000
   105 H63      -5.8112    3.4918   -1.0087   H         1 RES1   0.0000
   106 H64      -4.6663    4.0168   -2.7181   H         1 RES1   0.0000
   107 H65      -3.2804    5.0089   -3.1097   H         1 RES1   0.0000
   108 H66      -3.4344    1.9861   -3.5153   H         1 RES1   0.0000
   109 H67      -3.9073    3.1621   -4.7350   H         1 RES1   0.0000
   110 H68      -1.0828    2.7333   -3.6725   H         1 RES1   0.0000
   111 H69      -1.7428    2.2536   -5.2206   H         1 RES1   0.0000
   112 H70      -1.3813    5.1499   -4.3053   H         1 RES1   0.0000
   113 H71      -0.4371    4.2989   -5.5228   H         1 RES1   0.0000
   114 H72      -2.1401    4.6488   -5.8144   H         1 RES1   0.0000
   115 C37      -5.0292   -0.7122   -1.2607   C.3       1 RES1   0.0000
   116 C38      -6.2209   -1.5997   -1.6062   C.3       1 RES1   0.0000
   117 C39      -6.5060   -1.6244   -3.1071   C.3       1 RES1   0.0000
   118 C40      -5.3715   -2.1742   -3.9751   C.3       1 RES1   0.0000
   119 C41      -5.1654   -3.6879   -3.8300   C.3       1 RES1   0.0000
   120 C42      -4.0314   -4.1122   -2.8943   C.3       1 RES1   0.0000
   121 C43      -2.6432   -3.8546   -3.4826   C.3       1 RES1   0.0000
   122 C44      -1.5490   -4.6393   -2.7461   C.3       1 RES1   0.0000
   123 N3       -1.3721   -4.1576   -1.3851   N.am      1 RES1   0.0000
   124 C45      -2.0767   -4.8487   -0.3062   C.3       1 RES1   0.0000
   125 C46      -1.0644   -5.5180    0.6491   C.3       1 RES1   0.0000
   126 C47      -1.7658   -6.3889    1.6973   C.3       1 RES1   0.0000
   127 C48      -2.5234   -5.5906    2.7534   C.3       1 RES1   0.0000
   128 C49       0.0567   -6.2587   -0.1343   C.3       1 RES1   0.0000
   129 C50       0.1418   -7.7859   -0.0597   C.3       1 RES1   0.0000
   130 C51      -0.9712   -8.5121   -0.8097   C.3       1 RES1   0.0000
   131 C52      -0.8945  -10.0163   -0.5815   C.3       1 RES1   0.0000
   132 C53      -0.6225   -3.1155   -1.0904   C.2       1 RES1   0.0000
   133 O4       -0.6829   -2.5077    0.0030   O.2       1 RES1   0.0000
   134 C54       0.5022   -2.6756   -2.0641   C.3       1 RES1   0.0000
   135 O5        1.1551   -1.6648   -1.3189   O.3       1 RES1   0.0000
   136 C55       2.4834   -1.2746   -1.6231   C.3       1 RES1   0.0000
   137 C56       2.9330   -0.6149   -0.3024   C.2       1 RES1   0.0000
   138 O6        2.0321   -0.3728    0.5325   O.2       1 RES1   0.0000
   139 N4        4.2025   -0.3437   -0.0628   N.am      1 RES1   0.0000
   140 C57       5.2126   -0.3407   -1.1165   C.3       1 RES1   0.0000
   141 C58       5.8229   -1.6923   -1.5081   C.3       1 RES1   0.0000
   142 C59       6.4415   -1.6336   -2.9077   C.3       1 RES1   0.0000
   143 C60       5.4403   -1.6765   -4.0707   C.3       1 RES1   0.0000
   144 C61       4.9667   -0.3083   -4.5658   C.3       1 RES1   0.0000
   145 C62       4.0448   -0.4103   -5.7807   C.3       1 RES1   0.0000
   146 C63       3.5548    0.9606   -6.2520   C.3       1 RES1   0.0000
   147 C64       2.6315    1.6615   -5.2601   C.3       1 RES1   0.0000
   148 C65       4.5301    0.2149    1.2523   C.3       1 RES1   0.0000
   149 C66       4.6957   -0.8490    2.3560   C.3       1 RES1   0.0000
   150 C67       5.6020   -1.9860    1.8616   C.3       1 RES1   0.0000
   151 C68       5.8165   -3.1126    2.8658   C.3       1 RES1   0.0000
   152 C69       5.2439   -0.2396    3.6533   C.3       1 RES1   0.0000
   153 C70       4.3285    0.7612    4.3688   C.3       1 RES1   0.0000
   154 C71       4.4820    2.2316    3.9717   C.3       1 RES1   0.0000
   155 C72       5.9190    2.7295    4.0752   C.3       1 RES1   0.0000
   156 H73      -5.0119   -0.4756   -0.1980   H         1 RES1   0.0000
   157 H74      -4.0895   -1.1978   -1.5119   H         1 RES1   0.0000
   158 H75      -5.0868    0.2243   -1.8110   H         1 RES1   0.0000
   159 H76      -6.0576   -2.6173   -1.2439   H         1 RES1   0.0000
   160 H77      -7.1104   -1.2158   -1.1018   H         1 RES1   0.0000
   161 H78      -7.4040   -2.2185   -3.2904   H         1 RES1   0.0000
   162 H79      -6.7242   -0.6048   -3.4318   H         1 RES1   0.0000
   163 H80      -5.6255   -1.9582   -5.0144   H         1 RES1   0.0000
   164 H81      -4.4460   -1.6411   -3.7599   H         1 RES1   0.0000
   165 H82      -6.0930   -4.1337   -3.4663   H         1 RES1   0.0000
   166 H83      -4.9663   -4.1242   -4.8108   H         1 RES1   0.0000
   167 H84      -4.1270   -3.6025   -1.9364   H         1 RES1   0.0000
   168 H85      -4.1360   -5.1859   -2.7213   H         1 RES1   0.0000
   169 H86      -2.6284   -4.1873   -4.5213   H         1 RES1   0.0000
   170 H87      -2.4166   -2.7867   -3.4681   H         1 RES1   0.0000
   171 H88      -1.8345   -5.6924   -2.6966   H         1 RES1   0.0000
   172 H89      -0.6025   -4.5695   -3.2863   H         1 RES1   0.0000
   173 H90      -2.6812   -4.1224    0.2430   H         1 RES1   0.0000
   174 H91      -2.7298   -5.5951   -0.7517   H         1 RES1   0.0000
   175 H92      -0.5820   -4.7003    1.1916   H         1 RES1   0.0000
   176 H93      -2.4541   -7.0799    1.2121   H         1 RES1   0.0000
   177 H94      -1.0001   -6.9730    2.2054   H         1 RES1   0.0000
   178 H95      -3.5016   -5.2923    2.3924   H         1 RES1   0.0000
   179 H96      -2.6737   -6.1960    3.6436   H         1 RES1   0.0000
   180 H97      -1.9651   -4.7012    3.0461   H         1 RES1   0.0000
   181 H98      -0.0057   -5.9913   -1.1903   H         1 RES1   0.0000
   182 H99       1.0105   -5.8665    0.2249   H         1 RES1   0.0000
   183 H100      1.0959   -8.0743   -0.5091   H         1 RES1   0.0000
   184 H101      0.1740   -8.1237    0.9759   H         1 RES1   0.0000
   185 H102     -1.9494   -8.1574   -0.4837   H         1 RES1   0.0000
   186 H103     -0.8795   -8.2972   -1.8775   H         1 RES1   0.0000
   187 H104     -0.9884  -10.2475    0.4777   H         1 RES1   0.0000
   188 H105     -1.6943  -10.5205   -1.1165   H         1 RES1   0.0000
   189 H106      0.0551  -10.4123   -0.9319   H         1 RES1   0.0000
   190 H107      1.1745   -3.5291   -2.2419   H         1 RES1   0.0000
   191 H108      0.1210   -2.3017   -3.0254   H         1 RES1   0.0000
   192 H109      3.1001   -2.1428   -1.8795   H         1 RES1   0.0000
   193 H110      2.4904   -0.5497   -2.4522   H         1 RES1   0.0000
   194 H111      4.7567    0.1083   -1.9986   H         1 RES1   0.0000
   195 H112      6.0249    0.3087   -0.7881   H         1 RES1   0.0000
   196 H113      6.6064   -1.9533   -0.7977   H         1 RES1   0.0000
   197 H114      5.0837   -2.4936   -1.4683   H         1 RES1   0.0000
   198 H115      7.0599   -0.7395   -2.9889   H         1 RES1   0.0000
   199 H116      7.1091   -2.4902   -2.9983   H         1 RES1   0.0000
   200 H117      5.9232   -2.1755   -4.9131   H         1 RES1   0.0000
   201 H118      4.5803   -2.2916   -3.7900   H         1 RES1   0.0000
   202 H119      4.4271    0.2271   -3.7834   H         1 RES1   0.0000
   203 H120      5.8410    0.2904   -4.8301   H         1 RES1   0.0000
   204 H121      4.5852   -0.8914   -6.5979   H         1 RES1   0.0000
   205 H122      3.1814   -1.0380   -5.5390   H         1 RES1   0.0000
   206 H123      4.4184    1.5974   -6.4507   H         1 RES1   0.0000
   207 H124      3.0210    0.8305   -7.1937   H         1 RES1   0.0000
   208 H125      3.1688    1.9748   -4.3677   H         1 RES1   0.0000
   209 H126      2.2099    2.5513   -5.7186   H         1 RES1   0.0000
   210 H127      1.8103    1.0113   -4.9647   H         1 RES1   0.0000
   211 H128      5.4492    0.7927    1.1600   H         1 RES1   0.0000
   212 H129      3.7058    0.8813    1.5247   H         1 RES1   0.0000
   213 H130      3.7040   -1.2660    2.5600   H         1 RES1   0.0000
   214 H131      5.1340   -2.4124    0.9724   H         1 RES1   0.0000
   215 H132      6.5721   -1.5768    1.5740   H         1 RES1   0.0000
   216 H133      4.8682   -3.4347    3.2851   H         1 RES1   0.0000
   217 H134      6.2738   -3.9617    2.3644   H         1 RES1   0.0000
   218 H135      6.4743   -2.8202    3.6788   H         1 RES1   0.0000
   219 H136      5.4090   -1.0681    4.3422   H         1 RES1   0.0000
   220 H137      6.2194    0.2095    3.4724   H         1 RES1   0.0000
   221 H138      3.2884    0.4511    4.2204   H         1 RES1   0.0000
   222 H139      4.5339    0.6951    5.4405   H         1 RES1   0.0000
   223 H140      4.1074    2.3969    2.9586   H         1 RES1   0.0000
   224 H141      3.8574    2.8198    4.6506   H         1 RES1   0.0000
   225 H142      6.5372    2.3170    3.2821   H         1 RES1   0.0000
   226 H143      5.9500    3.8120    3.9930   H         1 RES1   0.0000
   227 H144      6.3476    2.4448    5.0328   H         1 RES1   0.0000
   228 N5       -1.2985   -0.0412   -2.1953   N.3       1 RES1   0.0000
   229 O7       -1.7929   -0.2317   -3.2613   O.2       1 RES1   0.0000
   230 O8       -1.9118   -0.3090   -1.1508   O.co2     1 RES1   0.0000
   231 O9       -0.1316    0.3805   -2.0938   O.co2     1 RES1   0.0000
@<TRIPOS>BOND
     1     1    20    1
     2     1    22    1
     3     1    25    1
     4     1   133    1
     5     1   135    1
     6     1   138    1
     7     1   230    1
     8     1   231    1
     9     2     3    1
    10     2    43    1
    11     2    44    1
    12     2    45    1
    13     3     4    1
    14     3    46    1
    15     3    47    1
    16     4     5    1
    17     4    48    1
    18     4    49    1
    19     5     6    1
    20     5    50    1
    21     5    51    1
    22     6     7    1
    23     6    52    1
    24     6    53    1
    25     7     8    1
    26     7    54    1
    27     7    55    1
    28     8     9    1
    29     8    56    1
    30     8    57    1
    31     9    10    1
    32     9    58    1
    33     9    59    1
    34    10    11    1
    35    10    19    1
    36    11    12    1
    37    11    60    1
    38    11    61    1
    39    12    13    1
    40    12    15    1
    41    12    62    1
    42    13    14    1
    43    13    63    1
    44    13    64    1
    45    14    65    1
    46    14    66    1
    47    14    67    1
    48    15    16    1
    49    15    68    1
    50    15    69    1
    51    16    17    1
    52    16    70    1
    53    16    71    1
    54    17    18    1
    55    17    72    1
    56    17    73    1
    57    18    74    1
    58    18    75    1
    59    18    76    1
    60    19    20    2
    61    19    21    1
    62    21    22    1
    63    21    77    1
    64    21    78    1
    65    22    23    1
    66    23    24    1
    67    23    79    1
    68    23    80    1
    69    24    25    2
    70    24    26    1
    71    26    27    1
    72    26    35    1
    73    27    28    1
    74    27    81    1
    75    27    82    1
    76    28    29    1
    77    28    83    1
    78    28    84    1
    79    29    30    1
    80    29    85    1
    81    29    86    1
    82    30    31    1
    83    30    87    1
    84    30    88    1
    85    31    32    1
    86    31    89    1
    87    31    90    1
    88    32    33    1
    89    32    91    1
    90    32    92    1
    91    33    34    1
    92    33    93    1
    93    33    94    1
    94    34    95    1
    95    34    96    1
    96    34    97    1
    97    35    36    1
    98    35    98    1
    99    35    99    1
   100    36    37    1
   101    36    39    1
   102    36   100    1
   103    37    38    1
   104    37   101    1
   105    37   102    1
   106    38   103    1
   107    38   104    1
   108    38   105    1
   109    39    40    1
   110    39   106    1
   111    39   107    1
   112    40    41    1
   113    40   108    1
   114    40   109    1
   115    41    42    1
   116    41   110    1
   117    41   111    1
   118    42   112    1
   119    42   113    1
   120    42   114    1
   121   115   116    1
   122   115   156    1
   123   115   157    1
   124   115   158    1
   125   116   117    1
   126   116   159    1
   127   116   160    1
   128   117   118    1
   129   117   161    1
   130   117   162    1
   131   118   119    1
   132   118   163    1
   133   118   164    1
   134   119   120    1
   135   119   165    1
   136   119   166    1
   137   120   121    1
   138   120   167    1
   139   120   168    1
   140   121   122    1
   141   121   169    1
   142   121   170    1
   143   122   123    1
   144   122   171    1
   145   122   172    1
   146   123   124    1
   147   123   132    1
   148   124   125    1
   149   124   173    1
   150   124   174    1
   151   125   126    1
   152   125   128    1
   153   125   175    1
   154   126   127    1
   155   126   176    1
   156   126   177    1
   157   127   178    1
   158   127   179    1
   159   127   180    1
   160   128   129    1
   161   128   181    1
   162   128   182    1
   163   129   130    1
   164   129   183    1
   165   129   184    1
   166   130   131    1
   167   130   185    1
   168   130   186    1
   169   131   187    1
   170   131   188    1
   171   131   189    1
   172   132   133    2
   173   132   134    1
   174   134   135    1
   175   134   190    1
   176   134   191    1
   177   135   136    1
   178   136   137    1
   179   136   192    1
   180   136   193    1
   181   137   138    2
   182   137   139    1
   183   139   140    1
   184   139   148    1
   185   140   141    1
   186   140   194    1
   187   140   195    1
   188   141   142    1
   189   141   196    1
   190   141   197    1
   191   142   143    1
   192   142   198    1
   193   142   199    1
   194   143   144    1
   195   143   200    1
   196   143   201    1
   197   144   145    1
   198   144   202    1
   199   144   203    1
   200   145   146    1
   201   145   204    1
   202   145   205    1
   203   146   147    1
   204   146   206    1
   205   146   207    1
   206   147   208    1
   207   147   209    1
   208   147   210    1
   209   148   149    1
   210   148   211    1
   211   148   212    1
   212   149   150    1
   213   149   152    1
   214   149   213    1
   215   150   151    1
   216   150   214    1
   217   150   215    1
   218   151   216    1
   219   151   217    1
   220   151   218    1
   221   152   153    1
   222   152   219    1
   223   152   220    1
   224   153   154    1
   225   153   221    1
   226   153   222    1
   227   154   155    1
   228   154   223    1
   229   154   224    1
   230   155   225    1
   231   155   226    1
   232   155   227    1
   233   228   229    2
   234   228   230    1
   235   228   231    1
@<TRIPOS>SUBSTRUCTURE
     1 RES1      231 GROUP             0 ****  ****    0  
