@<TRIPOS>MOLECULE
ICIGOT_geomtry_0_nunpairedes_0_charge_2 Charge: 2 Unpaired_Electrons: 5 XTB_Unpaired_Electrons: 0 XTB_Charge: 2
    87    91     1     0     0
SMALL
NoCharges
****
Generated from Architector

@<TRIPOS>ATOM
     1 Dy1      -0.2485    0.0202   -0.2430   Dy        1 RES1   0.0000
     2 C1        2.5523    3.3289    3.2160   C.3       1 RES1   0.0000
     3 C2        2.7741    1.9088    3.7126   C.3       1 RES1   0.0000
     4 N1        1.5312    1.1575    3.8701   N.am      1 RES1   0.0000
     5 C3        1.1792    0.8086    5.2417   C.3       1 RES1   0.0000
     6 C4        0.5216    1.9754    5.9708   C.3       1 RES1   0.0000
     7 C5        0.7439    0.9054    2.8331   C.2       1 RES1   0.0000
     8 O1        1.0103    1.1520    1.6444   O.2       1 RES1   0.0000
     9 C6       -0.5824    0.1800    3.1091   C.3       1 RES1   0.0000
    10 O2       -1.3182    0.0990    1.8993   O.3       1 RES1   0.0000
    11 C7       -2.5014    0.8841    1.7852   C.3       1 RES1   0.0000
    12 C8       -2.3096    1.9199    0.6646   C.2       1 RES1   0.0000
    13 O3       -1.2219    1.9173    0.0531   O.2       1 RES1   0.0000
    14 N2       -3.2804    2.7625    0.3790   N.am      1 RES1   0.0000
    15 C9       -4.5637    2.7855    1.0550   C.3       1 RES1   0.0000
    16 C10      -4.6679    3.9627    2.0186   C.3       1 RES1   0.0000
    17 C11      -3.0677    3.7375   -0.6877   C.3       1 RES1   0.0000
    18 C12      -1.9741    4.7451   -0.3605   C.3       1 RES1   0.0000
    19 H1        3.5143    3.8297    3.1599   H         1 RES1   0.0000
    20 H2        2.1029    3.3263    2.2271   H         1 RES1   0.0000
    21 H3        1.9108    3.8905    3.8898   H         1 RES1   0.0000
    22 H4        3.4267    1.3806    3.0151   H         1 RES1   0.0000
    23 H5        3.2526    1.9324    4.6903   H         1 RES1   0.0000
    24 H6        0.5327   -0.0677    5.2537   H         1 RES1   0.0000
    25 H7        2.0928    0.5294    5.7717   H         1 RES1   0.0000
    26 H8       -0.3766    2.3069    5.4560   H         1 RES1   0.0000
    27 H9        0.2527    1.6738    6.9788   H         1 RES1   0.0000
    28 H10       1.2069    2.8150    6.0403   H         1 RES1   0.0000
    29 H11      -0.3777   -0.8589    3.3974   H         1 RES1   0.0000
    30 H12      -1.1574    0.6616    3.9025   H         1 RES1   0.0000
    31 H13      -3.2866    0.1641    1.5194   H         1 RES1   0.0000
    32 H14      -2.7506    1.3735    2.7304   H         1 RES1   0.0000
    33 H15      -5.3455    2.8661    0.2961   H         1 RES1   0.0000
    34 H16      -4.7149    1.8442    1.5801   H         1 RES1   0.0000
    35 H17      -4.5661    4.9064    1.4901   H         1 RES1   0.0000
    36 H18      -5.6441    3.9423    2.4927   H         1 RES1   0.0000
    37 H19      -3.9029    3.9169    2.7907   H         1 RES1   0.0000
    38 H20      -2.7950    3.2070   -1.6038   H         1 RES1   0.0000
    39 H21      -4.0177    4.2434   -0.8388   H         1 RES1   0.0000
    40 H22      -1.0166    4.2474   -0.2315   H         1 RES1   0.0000
    41 H23      -1.8878    5.4394   -1.1904   H         1 RES1   0.0000
    42 H24      -2.2009    5.3079    0.5408   H         1 RES1   0.0000
    43 C13       5.3268    1.0730   -2.9994   C.3       1 RES1   0.0000
    44 C14       4.6243   -0.2801   -2.9888   C.3       1 RES1   0.0000
    45 N3        3.1869   -0.1125   -2.9210   N.am      1 RES1   0.0000
    46 C15       2.5020    0.2765   -4.1550   C.3       1 RES1   0.0000
    47 C16       1.8853    1.6683   -4.1398   C.3       1 RES1   0.0000
    48 C17       2.4944   -0.2697   -1.8175   C.2       1 RES1   0.0000
    49 O4        1.2682   -0.0479   -1.7581   O.2       1 RES1   0.0000
    50 C18       3.1512   -0.7989   -0.5324   C.3       1 RES1   0.0000
    51 O5        2.0864   -0.9795    0.3934   O.3       1 RES1   0.0000
    52 C19       2.1756   -2.0881    1.2755   C.3       1 RES1   0.0000
    53 C20       0.7600   -2.6946    1.3198   C.2       1 RES1   0.0000
    54 O6       -0.1098   -2.1069    0.6474   O.2       1 RES1   0.0000
    55 N4        0.5167   -3.7763    2.0328   N.am      1 RES1   0.0000
    56 C21      -0.8271   -4.3551    2.0297   C.3       1 RES1   0.0000
    57 C22      -1.8578   -3.5173    2.7738   C.3       1 RES1   0.0000
    58 C23       1.5201   -4.4972    2.7966   C.3       1 RES1   0.0000
    59 C24       1.2765   -4.3765    4.2971   C.3       1 RES1   0.0000
    60 H25       6.4018    0.9226   -3.0232   H         1 RES1   0.0000
    61 H26       5.0706    1.6505   -2.1138   H         1 RES1   0.0000
    62 H27       5.0417    1.6438   -3.8784   H         1 RES1   0.0000
    63 H28       4.9568   -0.8752   -2.1403   H         1 RES1   0.0000
    64 H29       4.8616   -0.8310   -3.9009   H         1 RES1   0.0000
    65 H30       1.7083   -0.4488   -4.3447   H         1 RES1   0.0000
    66 H31       3.2420    0.2035   -4.9481   H         1 RES1   0.0000
    67 H32       1.1015    1.7362   -3.3876   H         1 RES1   0.0000
    68 H33       1.4363    1.8476   -5.1137   H         1 RES1   0.0000
    69 H34       2.6269    2.4408   -3.9571   H         1 RES1   0.0000
    70 H35       3.8618   -0.0740   -0.1171   H         1 RES1   0.0000
    71 H36       3.6646   -1.7489   -0.7183   H         1 RES1   0.0000
    72 H37       2.4936   -1.7304    2.2647   H         1 RES1   0.0000
    73 H38       2.9057   -2.8193    0.9140   H         1 RES1   0.0000
    74 H39      -0.7456   -5.3412    2.4798   H         1 RES1   0.0000
    75 H40      -1.1531   -4.4612    0.9946   H         1 RES1   0.0000
    76 H41      -1.5789   -3.3523    3.8119   H         1 RES1   0.0000
    77 H42      -2.8077   -4.0454    2.7576   H         1 RES1   0.0000
    78 H43      -1.9895   -2.5629    2.2699   H         1 RES1   0.0000
    79 H44       2.5080   -4.1184    2.5455   H         1 RES1   0.0000
    80 H45       1.4787   -5.5497    2.5049   H         1 RES1   0.0000
    81 H46       1.2731   -3.3334    4.6057   H         1 RES1   0.0000
    82 H47       2.0631   -4.8960    4.8367   H         1 RES1   0.0000
    83 H48       0.3280   -4.8268    4.5744   H         1 RES1   0.0000
    84 N5       -2.1516   -0.5641   -1.7946   N.3       1 RES1   0.0000
    85 O7       -2.9560   -1.0082   -2.5440   O.2       1 RES1   0.0000
    86 O8       -1.2827    0.2468   -2.1537   O.co2     1 RES1   0.0000
    87 O9       -2.1506   -0.8691   -0.5790   O.co2     1 RES1   0.0000
@<TRIPOS>BOND
     1     1     8    1
     2     1    10    1
     3     1    13    1
     4     1    49    1
     5     1    51    1
     6     1    54    1
     7     1    86    1
     8     1    87    1
     9     2     3    1
    10     2    19    1
    11     2    20    1
    12     2    21    1
    13     3     4    1
    14     3    22    1
    15     3    23    1
    16     4     5    1
    17     4     7    1
    18     5     6    1
    19     5    24    1
    20     5    25    1
    21     6    26    1
    22     6    27    1
    23     6    28    1
    24     7     8    2
    25     7     9    1
    26     9    10    1
    27     9    29    1
    28     9    30    1
    29    10    11    1
    30    11    12    1
    31    11    31    1
    32    11    32    1
    33    12    13    2
    34    12    14    1
    35    14    15    1
    36    14    17    1
    37    15    16    1
    38    15    33    1
    39    15    34    1
    40    16    35    1
    41    16    36    1
    42    16    37    1
    43    17    18    1
    44    17    38    1
    45    17    39    1
    46    18    40    1
    47    18    41    1
    48    18    42    1
    49    43    44    1
    50    43    60    1
    51    43    61    1
    52    43    62    1
    53    44    45    1
    54    44    63    1
    55    44    64    1
    56    45    46    1
    57    45    48    1
    58    46    47    1
    59    46    65    1
    60    46    66    1
    61    47    67    1
    62    47    68    1
    63    47    69    1
    64    48    49    2
    65    48    50    1
    66    50    51    1
    67    50    70    1
    68    50    71    1
    69    51    52    1
    70    52    53    1
    71    52    72    1
    72    52    73    1
    73    53    54    2
    74    53    55    1
    75    55    56    1
    76    55    58    1
    77    56    57    1
    78    56    74    1
    79    56    75    1
    80    57    76    1
    81    57    77    1
    82    57    78    1
    83    58    59    1
    84    58    79    1
    85    58    80    1
    86    59    81    1
    87    59    82    1
    88    59    83    1
    89    84    85    2
    90    84    86    1
    91    84    87    1
@<TRIPOS>SUBSTRUCTURE
     1 RES1       87 GROUP             0 ****  ****    0  
