@<TRIPOS>MOLECULE
ICIGOT_geomtry_0_nunpairedes_0_charge_3 Charge: 3 Unpaired_Electrons: 5 XTB_Unpaired_Electrons: 0 XTB_Charge: 3
   185   188     1     0     0
SMALL
NoCharges
****
Generated from Architector

@<TRIPOS>ATOM
     1 Dy1       0.0913   -0.1003   -0.0986   Dy        1 RES1   0.0000
     2 C1       -4.5714   -3.2703    4.3678   C.3       1 RES1   0.0000
     3 C2       -4.6930   -1.8830    4.9893   C.3       1 RES1   0.0000
     4 C3       -3.3855   -1.4449    5.6449   C.3       1 RES1   0.0000
     5 C4       -3.4703   -0.0281    6.2080   C.3       1 RES1   0.0000
     6 C5       -2.1880    0.4810    6.8718   C.3       1 RES1   0.0000
     7 C6       -1.0598    0.8897    5.9167   C.3       1 RES1   0.0000
     8 C7       -0.1211   -0.2574    5.5019   C.3       1 RES1   0.0000
     9 C8        0.7700   -0.7054    6.6501   C.3       1 RES1   0.0000
    10 N1        0.6581    0.1741    4.3324   N.am      1 RES1   0.0000
    11 C9        1.5940    1.2837    4.5171   C.3       1 RES1   0.0000
    12 C10       3.0164    0.8328    4.8751   C.3       1 RES1   0.0000
    13 C11       3.7183    0.0392    3.7776   C.3       1 RES1   0.0000
    14 C12       4.0006    0.8882    2.5450   C.3       1 RES1   0.0000
    15 C13       0.4370   -0.2743    3.1121   C.2       1 RES1   0.0000
    16 O1        0.8732    0.2929    2.0763   O.2       1 RES1   0.0000
    17 C14      -0.4084   -1.5466    2.8831   C.3       1 RES1   0.0000
    18 O2       -0.3070   -1.8096    1.4876   O.3       1 RES1   0.0000
    19 C15      -0.4490   -3.1756    1.1044   C.3       1 RES1   0.0000
    20 C16      -0.1053   -3.2134   -0.4051   C.2       1 RES1   0.0000
    21 O3        0.2104   -2.1092   -0.9106   O.2       1 RES1   0.0000
    22 N2       -0.1048   -4.3435   -1.0832   N.am      1 RES1   0.0000
    23 C17       0.5146   -4.5041   -2.4214   C.3       1 RES1   0.0000
    24 C18       1.3968   -3.4045   -3.0149   C.3       1 RES1   0.0000
    25 C19       0.6664   -2.3286   -3.8172   C.3       1 RES1   0.0000
    26 C20       1.6499   -1.3420   -4.4367   C.3       1 RES1   0.0000
    27 C21      -0.7473   -5.6006   -0.6355   C.3       1 RES1   0.0000
    28 C22      -0.2197   -6.1390    0.6926   C.3       1 RES1   0.0000
    29 C23      -2.2784   -5.4953   -0.6666   C.3       1 RES1   0.0000
    30 C24      -2.8730   -5.2507   -2.0595   C.3       1 RES1   0.0000
    31 C25      -2.6417   -6.4062   -3.0383   C.3       1 RES1   0.0000
    32 C26      -3.5331   -6.3412   -4.2838   C.3       1 RES1   0.0000
    33 C27      -3.3723   -5.0879   -5.1448   C.3       1 RES1   0.0000
    34 C28      -1.9963   -4.9528   -5.7870   C.3       1 RES1   0.0000
    35 H1       -5.5038   -3.5532    3.8868   H         1 RES1   0.0000
    36 H2       -3.7728   -3.2984    3.6223   H         1 RES1   0.0000
    37 H3       -4.3498   -4.0141    5.1291   H         1 RES1   0.0000
    38 H4       -4.9680   -1.1575    4.2169   H         1 RES1   0.0000
    39 H5       -5.4933   -1.8914    5.7284   H         1 RES1   0.0000
    40 H6       -3.1291   -2.1345    6.4499   H         1 RES1   0.0000
    41 H7       -2.5968   -1.5096    4.8898   H         1 RES1   0.0000
    42 H8       -3.7687    0.6682    5.4181   H         1 RES1   0.0000
    43 H9       -4.2622   -0.0172    6.9595   H         1 RES1   0.0000
    44 H10      -2.4541    1.3593    7.4617   H         1 RES1   0.0000
    45 H11      -1.8206   -0.2677    7.5682   H         1 RES1   0.0000
    46 H12      -1.5006    1.3423    5.0247   H         1 RES1   0.0000
    47 H13      -0.4711    1.6547    6.4206   H         1 RES1   0.0000
    48 H14      -0.7213   -1.1089    5.1940   H         1 RES1   0.0000
    49 H15       1.2812    0.1331    7.1104   H         1 RES1   0.0000
    50 H16       0.1633   -1.1809    7.4145   H         1 RES1   0.0000
    51 H17       1.5007   -1.4311    6.3047   H         1 RES1   0.0000
    52 H18       1.6218    1.8519    3.5861   H         1 RES1   0.0000
    53 H19       1.2161    1.9258    5.3117   H         1 RES1   0.0000
    54 H20       3.5921    1.7392    5.0713   H         1 RES1   0.0000
    55 H21       3.0012    0.2500    5.7931   H         1 RES1   0.0000
    56 H22       4.6689   -0.3155    4.1765   H         1 RES1   0.0000
    57 H23       3.1241   -0.8380    3.5070   H         1 RES1   0.0000
    58 H24       4.4656    1.8252    2.8458   H         1 RES1   0.0000
    59 H25       4.6805    0.3580    1.8854   H         1 RES1   0.0000
    60 H26       3.0858    1.1081    1.9933   H         1 RES1   0.0000
    61 H27      -0.0201   -2.3864    3.4727   H         1 RES1   0.0000
    62 H28      -1.4687   -1.3862    3.1374   H         1 RES1   0.0000
    63 H29       0.2703   -3.7965    1.6533   H         1 RES1   0.0000
    64 H30      -1.4711   -3.5176    1.3123   H         1 RES1   0.0000
    65 H31       1.1446   -5.3932   -2.3167   H         1 RES1   0.0000
    66 H32      -0.2806   -4.7464   -3.1326   H         1 RES1   0.0000
    67 H33       2.0026   -2.9549   -2.2318   H         1 RES1   0.0000
    68 H34       2.0769   -3.9074   -3.7070   H         1 RES1   0.0000
    69 H35       0.1053   -2.8142   -4.6174   H         1 RES1   0.0000
    70 H36      -0.0256   -1.7793   -3.1739   H         1 RES1   0.0000
    71 H37       2.3775   -1.8600   -5.0561   H         1 RES1   0.0000
    72 H38       1.1269   -0.6293   -5.0686   H         1 RES1   0.0000
    73 H39       2.1802   -0.7926   -3.6590   H         1 RES1   0.0000
    74 H40      -0.4739   -6.3341   -1.3927   H         1 RES1   0.0000
    75 H41      -0.7042   -5.7065    1.5600   H         1 RES1   0.0000
    76 H42      -0.4203   -7.2047    0.7334   H         1 RES1   0.0000
    77 H43       0.8559   -6.0011    0.7643   H         1 RES1   0.0000
    78 H44      -2.6764   -6.4378   -0.2903   H         1 RES1   0.0000
    79 H45      -2.6262   -4.7094    0.0056   H         1 RES1   0.0000
    80 H46      -3.9527   -5.1265   -1.9483   H         1 RES1   0.0000
    81 H47      -2.4806   -4.3180   -2.4698   H         1 RES1   0.0000
    82 H48      -1.5979   -6.4532   -3.3495   H         1 RES1   0.0000
    83 H49      -2.8664   -7.3426   -2.5259   H         1 RES1   0.0000
    84 H50      -3.3224   -7.2169   -4.9001   H         1 RES1   0.0000
    85 H51      -4.5752   -6.4103   -3.9669   H         1 RES1   0.0000
    86 H52      -4.1150   -5.1312   -5.9417   H         1 RES1   0.0000
    87 H53      -3.5956   -4.2035   -4.5458   H         1 RES1   0.0000
    88 H54      -1.7784   -5.8203   -6.4044   H         1 RES1   0.0000
    89 H55      -1.9610   -4.0691   -6.4212   H         1 RES1   0.0000
    90 H56      -1.2095   -4.8652   -5.0388   H         1 RES1   0.0000
    91 C29       0.6536    7.5744   -0.5607   C.3       1 RES1   0.0000
    92 C30      -0.8019    7.5046   -0.1115   C.3       1 RES1   0.0000
    93 C31      -1.6362    6.6309   -1.0463   C.3       1 RES1   0.0000
    94 C32      -3.0728    6.4695   -0.5530   C.3       1 RES1   0.0000
    95 C33      -4.0157    5.7387   -1.5128   C.3       1 RES1   0.0000
    96 C34      -3.7714    4.2330   -1.6860   C.3       1 RES1   0.0000
    97 C35      -2.7110    3.8776   -2.7439   C.3       1 RES1   0.0000
    98 C36      -3.1429    4.2313   -4.1603   C.3       1 RES1   0.0000
    99 N3       -2.3784    2.4447   -2.6427   N.am      1 RES1   0.0000
   100 C37      -3.4170    1.4925   -3.0462   C.3       1 RES1   0.0000
   101 C38      -3.2711    0.8973   -4.4526   C.3       1 RES1   0.0000
   102 C39      -2.3073   -0.2836   -4.5424   C.3       1 RES1   0.0000
   103 C40      -2.7922   -1.4954   -3.7546   C.3       1 RES1   0.0000
   104 C41      -1.3174    1.9934   -2.0026   C.2       1 RES1   0.0000
   105 O4       -1.1075    0.7733   -1.7841   O.2       1 RES1   0.0000
   106 C42      -0.3112    2.9877   -1.3941   C.3       1 RES1   0.0000
   107 O5        0.7105    2.2636   -0.6983   O.3       1 RES1   0.0000
   108 C43       2.0449    2.4587   -1.1957   C.3       1 RES1   0.0000
   109 C44       2.8145    1.1175   -1.1557   C.2       1 RES1   0.0000
   110 O6        2.1381    0.1215   -0.7952   O.2       1 RES1   0.0000
   111 N4        4.0859    1.0537   -1.4977   N.am      1 RES1   0.0000
   112 C45       4.8593   -0.2127   -1.5718   C.3       1 RES1   0.0000
   113 C46       4.2158   -1.5630   -1.2504   C.3       1 RES1   0.0000
   114 C47       4.1078   -1.9269    0.2295   C.3       1 RES1   0.0000
   115 C48       3.5938   -3.3528    0.4013   C.3       1 RES1   0.0000
   116 C49       4.9080    2.1840   -2.0089   C.3       1 RES1   0.0000
   117 C50       4.3591    2.7542   -3.3172   C.3       1 RES1   0.0000
   118 C51       5.2282    3.2725   -0.9760   C.3       1 RES1   0.0000
   119 C52       6.0138    2.7702    0.2392   C.3       1 RES1   0.0000
   120 C53       7.4261    2.2832   -0.0906   C.3       1 RES1   0.0000
   121 C54       8.3019    2.0833    1.1519   C.3       1 RES1   0.0000
   122 C55       7.7772    1.0810    2.1814   C.3       1 RES1   0.0000
   123 C56       7.6276   -0.3361    1.6412   C.3       1 RES1   0.0000
   124 H57       1.2303    8.1904    0.1238   H         1 RES1   0.0000
   125 H58       1.1018    6.5790   -0.5886   H         1 RES1   0.0000
   126 H59       0.7309    8.0112   -1.5539   H         1 RES1   0.0000
   127 H60      -0.8507    7.0962    0.9014   H         1 RES1   0.0000
   128 H61      -1.2174    8.5110   -0.0806   H         1 RES1   0.0000
   129 H62      -1.6435    7.0713   -2.0447   H         1 RES1   0.0000
   130 H63      -1.1456    5.6561   -1.1101   H         1 RES1   0.0000
   131 H64      -3.0726    5.9614    0.4157   H         1 RES1   0.0000
   132 H65      -3.4826    7.4685   -0.3895   H         1 RES1   0.0000
   133 H66      -5.0292    5.8694   -1.1290   H         1 RES1   0.0000
   134 H67      -3.9827    6.2252   -2.4841   H         1 RES1   0.0000
   135 H68      -3.4847    3.8084   -0.7199   H         1 RES1   0.0000
   136 H69      -4.7196    3.7809   -1.9733   H         1 RES1   0.0000
   137 H70      -1.8080    4.4422   -2.5312   H         1 RES1   0.0000
   138 H71      -4.1002    3.7924   -4.4190   H         1 RES1   0.0000
   139 H72      -3.2306    5.3090   -4.2589   H         1 RES1   0.0000
   140 H73      -2.3904    3.8961   -4.8682   H         1 RES1   0.0000
   141 H74      -3.4175    0.6901   -2.3078   H         1 RES1   0.0000
   142 H75      -4.3700    2.0131   -2.9849   H         1 RES1   0.0000
   143 H76      -4.2595    0.5590   -4.7694   H         1 RES1   0.0000
   144 H77      -2.9646    1.6762   -5.1480   H         1 RES1   0.0000
   145 H78      -2.2193   -0.5689   -5.5905   H         1 RES1   0.0000
   146 H79      -1.3215    0.0209   -4.1880   H         1 RES1   0.0000
   147 H80      -3.8238   -1.7289   -4.0095   H         1 RES1   0.0000
   148 H81      -2.1811   -2.3596   -3.9909   H         1 RES1   0.0000
   149 H82      -2.7151   -1.3154   -2.6808   H         1 RES1   0.0000
   150 H83       0.1315    3.6596   -2.1372   H         1 RES1   0.0000
   151 H84      -0.8612    3.5912   -0.6583   H         1 RES1   0.0000
   152 H85       2.0158    2.8039   -2.2323   H         1 RES1   0.0000
   153 H86       2.5331    3.2128   -0.5663   H         1 RES1   0.0000
   154 H87       5.2124   -0.2723   -2.6078   H         1 RES1   0.0000
   155 H88       5.7382   -0.0821   -0.9305   H         1 RES1   0.0000
   156 H89       3.2386   -1.6233   -1.7241   H         1 RES1   0.0000
   157 H90       4.8563   -2.3144   -1.7196   H         1 RES1   0.0000
   158 H91       5.0970   -1.8571    0.6840   H         1 RES1   0.0000
   159 H92       3.4297   -1.2383    0.7404   H         1 RES1   0.0000
   160 H93       4.2384   -4.0586   -0.1168   H         1 RES1   0.0000
   161 H94       3.5788   -3.6308    1.4521   H         1 RES1   0.0000
   162 H95       2.5853   -3.4465   -0.0007   H         1 RES1   0.0000
   163 H96       5.8663    1.7248   -2.2569   H         1 RES1   0.0000
   164 H97       3.5779    3.4939   -3.1800   H         1 RES1   0.0000
   165 H98       5.1651    3.2597   -3.8390   H         1 RES1   0.0000
   166 H99       3.9947    1.9558   -3.9589   H         1 RES1   0.0000
   167 H100      5.8311    4.0235   -1.4879   H         1 RES1   0.0000
   168 H101      4.3311    3.7822   -0.6262   H         1 RES1   0.0000
   169 H102      6.1045    3.5948    0.9498   H         1 RES1   0.0000
   170 H103      5.4517    1.9750    0.7234   H         1 RES1   0.0000
   171 H104      7.3927    1.3524   -0.6582   H         1 RES1   0.0000
   172 H105      7.9173    3.0259   -0.7211   H         1 RES1   0.0000
   173 H106      9.2917    1.7608    0.8234   H         1 RES1   0.0000
   174 H107      8.4226    3.0479    1.6477   H         1 RES1   0.0000
   175 H108      8.4816    1.0574    3.0132   H         1 RES1   0.0000
   176 H109      6.8230    1.4278    2.5797   H         1 RES1   0.0000
   177 H110      8.5769   -0.7045    1.2607   H         1 RES1   0.0000
   178 H111      7.2946   -1.0084    2.4296   H         1 RES1   0.0000
   179 H112      6.8990   -0.3759    0.8326   H         1 RES1   0.0000
   180 O7       -2.5008   -0.9709    0.1040   O.3       1 RES1   0.0000
   181 H113     -2.8496   -1.3501   -0.7138   H         1 RES1   0.0000
   182 H114     -3.2922   -0.7267    0.5982   H         1 RES1   0.0000
   183 O8       -1.3787    1.6067    1.3032   O.3       1 RES1   0.0000
   184 H115     -2.0702    1.4730    1.9643   H         1 RES1   0.0000
   185 H116     -0.8623    2.3525    1.6417   H         1 RES1   0.0000
@<TRIPOS>BOND
     1     1    16    1
     2     1    18    1
     3     1    21    1
     4     1   105    1
     5     1   107    1
     6     1   110    1
     7     1   180    1
     8     1   183    1
     9     2     3    1
    10     2    35    1
    11     2    36    1
    12     2    37    1
    13     3     4    1
    14     3    38    1
    15     3    39    1
    16     4     5    1
    17     4    40    1
    18     4    41    1
    19     5     6    1
    20     5    42    1
    21     5    43    1
    22     6     7    1
    23     6    44    1
    24     6    45    1
    25     7     8    1
    26     7    46    1
    27     7    47    1
    28     8     9    1
    29     8    10    1
    30     8    48    1
    31     9    49    1
    32     9    50    1
    33     9    51    1
    34    10    11    1
    35    10    15    1
    36    11    12    1
    37    11    52    1
    38    11    53    1
    39    12    13    1
    40    12    54    1
    41    12    55    1
    42    13    14    1
    43    13    56    1
    44    13    57    1
    45    14    58    1
    46    14    59    1
    47    14    60    1
    48    15    16    2
    49    15    17    1
    50    17    18    1
    51    17    61    1
    52    17    62    1
    53    18    19    1
    54    19    20    1
    55    19    63    1
    56    19    64    1
    57    20    21    2
    58    20    22    1
    59    22    23    1
    60    22    27    1
    61    23    24    1
    62    23    65    1
    63    23    66    1
    64    24    25    1
    65    24    67    1
    66    24    68    1
    67    25    26    1
    68    25    69    1
    69    25    70    1
    70    26    71    1
    71    26    72    1
    72    26    73    1
    73    27    28    1
    74    27    29    1
    75    27    74    1
    76    28    75    1
    77    28    76    1
    78    28    77    1
    79    29    30    1
    80    29    78    1
    81    29    79    1
    82    30    31    1
    83    30    80    1
    84    30    81    1
    85    31    32    1
    86    31    82    1
    87    31    83    1
    88    32    33    1
    89    32    84    1
    90    32    85    1
    91    33    34    1
    92    33    86    1
    93    33    87    1
    94    34    88    1
    95    34    89    1
    96    34    90    1
    97    91    92    1
    98    91   124    1
    99    91   125    1
   100    91   126    1
   101    92    93    1
   102    92   127    1
   103    92   128    1
   104    93    94    1
   105    93   129    1
   106    93   130    1
   107    94    95    1
   108    94   131    1
   109    94   132    1
   110    95    96    1
   111    95   133    1
   112    95   134    1
   113    96    97    1
   114    96   135    1
   115    96   136    1
   116    97    98    1
   117    97    99    1
   118    97   137    1
   119    98   138    1
   120    98   139    1
   121    98   140    1
   122    99   100    1
   123    99   104    1
   124   100   101    1
   125   100   141    1
   126   100   142    1
   127   101   102    1
   128   101   143    1
   129   101   144    1
   130   102   103    1
   131   102   145    1
   132   102   146    1
   133   103   147    1
   134   103   148    1
   135   103   149    1
   136   104   105    2
   137   104   106    1
   138   106   107    1
   139   106   150    1
   140   106   151    1
   141   107   108    1
   142   108   109    1
   143   108   152    1
   144   108   153    1
   145   109   110    2
   146   109   111    1
   147   111   112    1
   148   111   116    1
   149   112   113    1
   150   112   154    1
   151   112   155    1
   152   113   114    1
   153   113   156    1
   154   113   157    1
   155   114   115    1
   156   114   158    1
   157   114   159    1
   158   115   160    1
   159   115   161    1
   160   115   162    1
   161   116   117    1
   162   116   118    1
   163   116   163    1
   164   117   164    1
   165   117   165    1
   166   117   166    1
   167   118   119    1
   168   118   167    1
   169   118   168    1
   170   119   120    1
   171   119   169    1
   172   119   170    1
   173   120   121    1
   174   120   171    1
   175   120   172    1
   176   121   122    1
   177   121   173    1
   178   121   174    1
   179   122   123    1
   180   122   175    1
   181   122   176    1
   182   123   177    1
   183   123   178    1
   184   123   179    1
   185   180   181    1
   186   180   182    1
   187   183   184    1
   188   183   185    1
@<TRIPOS>SUBSTRUCTURE
     1 RES1      185 GROUP             0 ****  ****    0  
