@<TRIPOS>MOLECULE
ICIGOT_geomtry_0_nunpairedes_0_charge_3 Charge: 3 Unpaired_Electrons: 5 XTB_Unpaired_Electrons: 0 XTB_Charge: 3
   149   152     1     0     0
SMALL
NoCharges
****
Generated from Architector

@<TRIPOS>ATOM
     1 Dy1       0.1164    0.3540   -0.0150   Dy        1 RES1   0.0000
     2 C1        1.8032    3.3130   -1.1582   C.3       1 RES1   0.0000
     3 C2        1.3709    4.7158   -0.7443   C.3       1 RES1   0.0000
     4 C3       -0.1176    4.7638   -0.4104   C.3       1 RES1   0.0000
     5 C4       -1.0169    4.5585   -1.6327   C.3       1 RES1   0.0000
     6 C5       -2.4978    4.8357   -1.3346   C.3       1 RES1   0.0000
     7 C6       -3.3492    4.8987   -2.6126   C.3       1 RES1   0.0000
     8 C7       -2.9737    6.0431   -3.5481   C.3       1 RES1   0.0000
     9 C8       -3.1115    3.8374   -0.3272   C.3       1 RES1   0.0000
    10 N1       -3.4525    2.5195   -0.8745   N.am      1 RES1   0.0000
    11 C9       -4.8071    2.2385   -1.3098   C.3       1 RES1   0.0000
    12 C10      -2.5311    1.5788   -0.8549   C.2       1 RES1   0.0000
    13 O1       -1.3530    1.7960   -0.4874   O.2       1 RES1   0.0000
    14 C11      -2.9388    0.1569   -1.2321   C.3       1 RES1   0.0000
    15 O2       -1.8766   -0.7790   -0.9834   O.3       1 RES1   0.0000
    16 C12      -1.5023   -1.5655   -2.1121   C.3       1 RES1   0.0000
    17 C13      -0.4360   -0.8092   -2.9139   C.2       1 RES1   0.0000
    18 O3        0.0644    0.1937   -2.3530   O.2       1 RES1   0.0000
    19 N2       -0.0760   -1.2147   -4.1154   N.am      1 RES1   0.0000
    20 C14      -0.6307   -2.4032   -4.7397   C.3       1 RES1   0.0000
    21 C15       0.7701   -0.3149   -4.9082   C.3       1 RES1   0.0000
    22 C16       2.2223   -0.1424   -4.4209   C.3       1 RES1   0.0000
    23 C17       2.8992    0.8252   -5.4079   C.3       1 RES1   0.0000
    24 C18       4.0251    1.6617   -4.8111   C.3       1 RES1   0.0000
    25 C19       2.8982   -1.5271   -4.3366   C.3       1 RES1   0.0000
    26 C20       4.4175   -1.5698   -4.1066   C.3       1 RES1   0.0000
    27 C21       4.9242   -1.0776   -2.7489   C.3       1 RES1   0.0000
    28 C22       4.6362   -2.0579   -1.6134   C.3       1 RES1   0.0000
    29 H1        2.8866    3.2713   -1.2438   H         1 RES1   0.0000
    30 H2        1.3716    3.0541   -2.1218   H         1 RES1   0.0000
    31 H3        1.4476    2.5849   -0.3976   H         1 RES1   0.0000
    32 H4        1.5978    5.4225   -1.5421   H         1 RES1   0.0000
    33 H5        1.9415    5.0305    0.1313   H         1 RES1   0.0000
    34 H6       -0.3486    5.7328    0.0340   H         1 RES1   0.0000
    35 H7       -0.3165    3.9876    0.3365   H         1 RES1   0.0000
    36 H8       -0.8900    3.5507   -2.0360   H         1 RES1   0.0000
    37 H9       -0.6921    5.2638   -2.3965   H         1 RES1   0.0000
    38 H10      -2.5456    5.8171   -0.8467   H         1 RES1   0.0000
    39 H11      -4.3906    5.0398   -2.3189   H         1 RES1   0.0000
    40 H12      -3.2751    3.9524   -3.1560   H         1 RES1   0.0000
    41 H13      -2.9785    6.9905   -3.0168   H         1 RES1   0.0000
    42 H14      -3.7022    6.1069   -4.3506   H         1 RES1   0.0000
    43 H15      -1.9958    5.8987   -3.9987   H         1 RES1   0.0000
    44 H16      -4.0283    4.2626    0.0804   H         1 RES1   0.0000
    45 H17      -2.4105    3.6589    0.4944   H         1 RES1   0.0000
    46 H18      -5.4007    3.1481   -1.2901   H         1 RES1   0.0000
    47 H19      -5.2787    1.5107   -0.6432   H         1 RES1   0.0000
    48 H20      -4.8360    1.8543   -2.3324   H         1 RES1   0.0000
    49 H21      -3.2583    0.1256   -2.2761   H         1 RES1   0.0000
    50 H22      -3.7883   -0.1239   -0.6007   H         1 RES1   0.0000
    51 H23      -2.3762   -1.8166   -2.7199   H         1 RES1   0.0000
    52 H24      -1.0814   -2.4969   -1.7169   H         1 RES1   0.0000
    53 H25      -0.3775   -3.3038   -4.1755   H         1 RES1   0.0000
    54 H26      -0.2182   -2.4995   -5.7419   H         1 RES1   0.0000
    55 H27      -1.7189   -2.3469   -4.8315   H         1 RES1   0.0000
    56 H28       0.2794    0.6636   -4.9033   H         1 RES1   0.0000
    57 H29       0.7885   -0.6916   -5.9287   H         1 RES1   0.0000
    58 H30       2.1817    0.3474   -3.4437   H         1 RES1   0.0000
    59 H31       2.1413    1.5154   -5.7824   H         1 RES1   0.0000
    60 H32       3.2688    0.2637   -6.2636   H         1 RES1   0.0000
    61 H33       3.6755    2.2197   -3.9438   H         1 RES1   0.0000
    62 H34       4.3638    2.3798   -5.5511   H         1 RES1   0.0000
    63 H35       4.8798    1.0581   -4.5275   H         1 RES1   0.0000
    64 H36       2.7252   -2.0305   -5.2912   H         1 RES1   0.0000
    65 H37       2.3951   -2.1301   -3.5703   H         1 RES1   0.0000
    66 H38       4.9018   -1.0036   -4.9006   H         1 RES1   0.0000
    67 H39       4.7408   -2.6069   -4.2189   H         1 RES1   0.0000
    68 H40       4.5223   -0.0846   -2.5395   H         1 RES1   0.0000
    69 H41       6.0066   -0.9596   -2.8124   H         1 RES1   0.0000
    70 H42       3.5709   -2.2338   -1.4628   H         1 RES1   0.0000
    71 H43       5.0663   -1.6972   -0.6814   H         1 RES1   0.0000
    72 H44       5.1029   -3.0133   -1.8371   H         1 RES1   0.0000
    73 C23      -1.8315    2.8340    3.8650   C.3       1 RES1   0.0000
    74 C24      -0.8954    3.9874    4.1847   C.3       1 RES1   0.0000
    75 C25       0.5202    3.7927    3.6326   C.3       1 RES1   0.0000
    76 C26       1.3326    2.7028    4.3454   C.3       1 RES1   0.0000
    77 C27       2.8507    2.8272    4.1219   C.3       1 RES1   0.0000
    78 C28       3.6707    2.0087    5.1343   C.3       1 RES1   0.0000
    79 C29       3.4642    2.4016    6.5940   C.3       1 RES1   0.0000
    80 C30       3.2798    2.4924    2.6671   C.3       1 RES1   0.0000
    81 N3        3.4697    1.0664    2.3701   N.am      1 RES1   0.0000
    82 C31       4.7723    0.4718    2.6037   C.3       1 RES1   0.0000
    83 C32       2.4805    0.3747    1.8360   C.2       1 RES1   0.0000
    84 O4        1.3629    0.8880    1.5948   O.2       1 RES1   0.0000
    85 C33       2.6908   -1.1080    1.4991   C.3       1 RES1   0.0000
    86 O5        1.7770   -1.5218    0.4672   O.3       1 RES1   0.0000
    87 C34       1.2887   -2.8642    0.5910   C.3       1 RES1   0.0000
    88 C35      -0.0059   -2.7800    1.4173   C.2       1 RES1   0.0000
    89 O6       -0.5449   -1.6579    1.4089   O.2       1 RES1   0.0000
    90 N4       -0.4408   -3.8102    2.1183   N.am      1 RES1   0.0000
    91 C36       0.1263   -5.1345    1.9352   C.3       1 RES1   0.0000
    92 C37      -1.3182   -3.5840    3.2760   C.3       1 RES1   0.0000
    93 C38      -2.7175   -2.9793    3.0536   C.3       1 RES1   0.0000
    94 C39      -3.3020   -2.7647    4.4661   C.3       1 RES1   0.0000
    95 C40      -4.2691   -1.5950    4.6083   C.3       1 RES1   0.0000
    96 C41      -3.5614   -3.9317    2.1853   C.3       1 RES1   0.0000
    97 C42      -5.0516   -3.5910    2.0429   C.3       1 RES1   0.0000
    98 C43      -5.3737   -2.2876    1.3078   C.3       1 RES1   0.0000
    99 C44      -5.1705   -2.3992   -0.1987   C.3       1 RES1   0.0000
   100 H45      -2.8304    3.0360    4.2360   H         1 RES1   0.0000
   101 H46      -1.4843    1.9183    4.3365   H         1 RES1   0.0000
   102 H47      -1.8827    2.6946    2.7871   H         1 RES1   0.0000
   103 H48      -0.8489    4.1274    5.2631   H         1 RES1   0.0000
   104 H49      -1.3125    4.8987    3.7548   H         1 RES1   0.0000
   105 H50       1.0473    4.7401    3.7504   H         1 RES1   0.0000
   106 H51       0.4571    3.5698    2.5627   H         1 RES1   0.0000
   107 H52       0.9913    1.7095    4.0423   H         1 RES1   0.0000
   108 H53       1.1464    2.8053    5.4143   H         1 RES1   0.0000
   109 H54       3.1019    3.8848    4.2654   H         1 RES1   0.0000
   110 H55       4.7276    2.1602    4.9095   H         1 RES1   0.0000
   111 H56       3.4447    0.9445    5.0215   H         1 RES1   0.0000
   112 H57       3.6280    3.4652    6.7406   H         1 RES1   0.0000
   113 H58       4.1848    1.8675    7.2070   H         1 RES1   0.0000
   114 H59       2.4711    2.1447    6.9511   H         1 RES1   0.0000
   115 H60       4.2293    2.9853    2.4494   H         1 RES1   0.0000
   116 H61       2.5167    2.8665    1.9796   H         1 RES1   0.0000
   117 H62       5.4219    1.1894    3.0980   H         1 RES1   0.0000
   118 H63       5.2310    0.1861    1.6532   H         1 RES1   0.0000
   119 H64       4.7101   -0.4058    3.2486   H         1 RES1   0.0000
   120 H65       2.5363   -1.6853    2.4164   H         1 RES1   0.0000
   121 H66       3.7136   -1.2740    1.1497   H         1 RES1   0.0000
   122 H67       2.0403   -3.5200    1.0331   H         1 RES1   0.0000
   123 H68       1.0835   -3.2131   -0.4263   H         1 RES1   0.0000
   124 H69      -0.0198   -5.4768    0.9082   H         1 RES1   0.0000
   125 H70      -0.3807   -5.8236    2.6070   H         1 RES1   0.0000
   126 H71       1.1955   -5.1587    2.1651   H         1 RES1   0.0000
   127 H72      -0.7623   -2.9393    3.9673   H         1 RES1   0.0000
   128 H73      -1.4585   -4.5538    3.7492   H         1 RES1   0.0000
   129 H74      -2.6095   -2.0142    2.5461   H         1 RES1   0.0000
   130 H75      -2.4817   -2.5907    5.1667   H         1 RES1   0.0000
   131 H76      -3.7977   -3.6801    4.7863   H         1 RES1   0.0000
   132 H77      -3.8095   -0.6592    4.2927   H         1 RES1   0.0000
   133 H78      -4.5468   -1.4893    5.6530   H         1 RES1   0.0000
   134 H79      -5.1806   -1.7450    4.0425   H         1 RES1   0.0000
   135 H80      -3.5084   -4.9320    2.6248   H         1 RES1   0.0000
   136 H81      -3.1104   -3.9935    1.1904   H         1 RES1   0.0000
   137 H82      -5.5003   -3.5741    3.0349   H         1 RES1   0.0000
   138 H83      -5.5300   -4.4065    1.4963   H         1 RES1   0.0000
   139 H84      -4.7672   -1.4706    1.7045   H         1 RES1   0.0000
   140 H85      -6.4208   -2.0419    1.4911   H         1 RES1   0.0000
   141 H86      -4.1237   -2.5663   -0.4456   H         1 RES1   0.0000
   142 H87      -5.5145   -1.4961   -0.6998   H         1 RES1   0.0000
   143 H88      -5.7481   -3.2311   -0.5900   H         1 RES1   0.0000
   144 O7       -1.4426    0.6184    1.9594   O.3       1 RES1   0.0000
   145 H89      -2.2825    0.1997    2.2013   H         1 RES1   0.0000
   146 H90      -0.9063    0.5726    2.7685   H         1 RES1   0.0000
   147 O8        2.5749    0.3636   -1.0616   O.3       1 RES1   0.0000
   148 H91       3.2760    1.0360   -1.0412   H         1 RES1   0.0000
   149 H92       2.8479   -0.2522   -1.7685   H         1 RES1   0.0000
@<TRIPOS>BOND
     1     1    13    1
     2     1    15    1
     3     1    18    1
     4     1    84    1
     5     1    86    1
     6     1    89    1
     7     1   144    1
     8     1   147    1
     9     2     3    1
    10     2    29    1
    11     2    30    1
    12     2    31    1
    13     3     4    1
    14     3    32    1
    15     3    33    1
    16     4     5    1
    17     4    34    1
    18     4    35    1
    19     5     6    1
    20     5    36    1
    21     5    37    1
    22     6     7    1
    23     6     9    1
    24     6    38    1
    25     7     8    1
    26     7    39    1
    27     7    40    1
    28     8    41    1
    29     8    42    1
    30     8    43    1
    31     9    10    1
    32     9    44    1
    33     9    45    1
    34    10    11    1
    35    10    12    1
    36    11    46    1
    37    11    47    1
    38    11    48    1
    39    12    13    2
    40    12    14    1
    41    14    15    1
    42    14    49    1
    43    14    50    1
    44    15    16    1
    45    16    17    1
    46    16    51    1
    47    16    52    1
    48    17    18    2
    49    17    19    1
    50    19    20    1
    51    19    21    1
    52    20    53    1
    53    20    54    1
    54    20    55    1
    55    21    22    1
    56    21    56    1
    57    21    57    1
    58    22    23    1
    59    22    25    1
    60    22    58    1
    61    23    24    1
    62    23    59    1
    63    23    60    1
    64    24    61    1
    65    24    62    1
    66    24    63    1
    67    25    26    1
    68    25    64    1
    69    25    65    1
    70    26    27    1
    71    26    66    1
    72    26    67    1
    73    27    28    1
    74    27    68    1
    75    27    69    1
    76    28    70    1
    77    28    71    1
    78    28    72    1
    79    73    74    1
    80    73   100    1
    81    73   101    1
    82    73   102    1
    83    74    75    1
    84    74   103    1
    85    74   104    1
    86    75    76    1
    87    75   105    1
    88    75   106    1
    89    76    77    1
    90    76   107    1
    91    76   108    1
    92    77    78    1
    93    77    80    1
    94    77   109    1
    95    78    79    1
    96    78   110    1
    97    78   111    1
    98    79   112    1
    99    79   113    1
   100    79   114    1
   101    80    81    1
   102    80   115    1
   103    80   116    1
   104    81    82    1
   105    81    83    1
   106    82   117    1
   107    82   118    1
   108    82   119    1
   109    83    84    2
   110    83    85    1
   111    85    86    1
   112    85   120    1
   113    85   121    1
   114    86    87    1
   115    87    88    1
   116    87   122    1
   117    87   123    1
   118    88    89    2
   119    88    90    1
   120    90    91    1
   121    90    92    1
   122    91   124    1
   123    91   125    1
   124    91   126    1
   125    92    93    1
   126    92   127    1
   127    92   128    1
   128    93    94    1
   129    93    96    1
   130    93   129    1
   131    94    95    1
   132    94   130    1
   133    94   131    1
   134    95   132    1
   135    95   133    1
   136    95   134    1
   137    96    97    1
   138    96   135    1
   139    96   136    1
   140    97    98    1
   141    97   137    1
   142    97   138    1
   143    98    99    1
   144    98   139    1
   145    98   140    1
   146    99   141    1
   147    99   142    1
   148    99   143    1
   149   144   145    1
   150   144   146    1
   151   147   148    1
   152   147   149    1
@<TRIPOS>SUBSTRUCTURE
     1 RES1      149 GROUP             0 ****  ****    0  
