@<TRIPOS>MOLECULE
square_prismatic_0_nunpairedes_0_charge_3 Charge: 3 Unpaired_Electrons: 5 XTB_Unpaired_Electrons: 0 XTB_Charge: 3
   101   116     1     0     0
SMALL
NoCharges
****
Generated from Architector

@<TRIPOS>ATOM
     1 Dy1       0.4020   -0.0414    0.0631   Dy        1 RES1   0.0000
     2 O1        0.7657    1.3756    1.6306   O.2       1 RES1   0.0000
     3 C1       -0.0076    2.2572    2.0927   C.2       1 RES1   0.0000
     4 C2       -1.4133    2.2713    1.5349   C.ar      1 RES1   0.0000
     5 C3       -2.4027    3.2452    1.6937   C.ar      1 RES1   0.0000
     6 C4       -3.5528    3.1853    0.9084   C.ar      1 RES1   0.0000
     7 Cl1      -4.7145    4.4192    1.0561   Cl        1 RES1   0.0000
     8 C5       -3.7052    2.1514   -0.0543   C.ar      1 RES1   0.0000
     9 C6       -4.7966    2.0206   -0.9622   C.ar      1 RES1   0.0000
    10 C7       -4.7933    1.0793   -1.9455   C.ar      1 RES1   0.0000
    11 C8       -3.6994    0.1832   -2.1139   C.ar      1 RES1   0.0000
    12 C9       -3.5504   -0.7290   -3.1905   C.ar      1 RES1   0.0000
    13 Cl2      -4.7145   -0.8050   -4.4337   Cl        1 RES1   0.0000
    14 C10      -2.4115   -1.5284   -3.2767   C.ar      1 RES1   0.0000
    15 C11      -1.4253   -1.4174   -2.2896   C.ar      1 RES1   0.0000
    16 C12      -0.0267   -1.9820   -2.2970   C.2       1 RES1   0.0000
    17 O2        0.7486   -1.5518   -1.4037   O.2       1 RES1   0.0000
    18 N1        0.5053   -2.7815   -3.2005   N.am      1 RES1   0.0000
    19 C13      -0.0754   -3.5985   -4.2452   C.3       1 RES1   0.0000
    20 C14       1.0235   -4.6257   -4.5441   C.3       1 RES1   0.0000
    21 C15       2.3170   -3.8560   -4.2815   C.3       1 RES1   0.0000
    22 C16       1.9527   -2.9833   -3.0894   C.3       1 RES1   0.0000
    23 N2       -1.5833   -0.6007   -1.2461   N.ar      1 RES1   0.0000
    24 C17      -2.6559    0.1965   -1.1608   C.ar      1 RES1   0.0000
    25 C18      -2.6593    1.2031   -0.1123   C.ar      1 RES1   0.0000
    26 N3       -1.5822    1.2595    0.6806   N.ar      1 RES1   0.0000
    27 N4        0.5221    3.1277    2.9308   N.am      1 RES1   0.0000
    28 C19       1.9636    2.9959    3.1387   C.3       1 RES1   0.0000
    29 C20       2.3432    4.2029    3.9806   C.3       1 RES1   0.0000
    30 C21       1.0548    4.4910    4.7549   C.3       1 RES1   0.0000
    31 C22      -0.0495    4.1824    3.7426   C.3       1 RES1   0.0000
    32 H1       -2.2915    4.0699    2.3794   H         1 RES1   0.0000
    33 H2       -5.6393    2.6865   -0.8600   H         1 RES1   0.0000
    34 H3       -5.6319    0.9999   -2.6219   H         1 RES1   0.0000
    35 H4       -2.3204   -2.1965   -4.1167   H         1 RES1   0.0000
    36 H5       -0.2765   -2.9871   -5.1309   H         1 RES1   0.0000
    37 H6       -0.9976   -4.0698   -3.9035   H         1 RES1   0.0000
    38 H7        0.9660   -4.9911   -5.5662   H         1 RES1   0.0000
    39 H8        0.9394   -5.4683   -3.8600   H         1 RES1   0.0000
    40 H9        2.5883   -3.2340   -5.1318   H         1 RES1   0.0000
    41 H10       3.1514   -4.5113   -4.0449   H         1 RES1   0.0000
    42 H11       2.4479   -2.0058   -3.0764   H         1 RES1   0.0000
    43 H12       2.1757   -3.4702   -2.1323   H         1 RES1   0.0000
    44 H13       2.4577    2.9535    2.1635   H         1 RES1   0.0000
    45 H14       2.1682    2.0495    3.6497   H         1 RES1   0.0000
    46 H15       2.6147    5.0422    3.3407   H         1 RES1   0.0000
    47 H16       3.1799    3.9768    4.6372   H         1 RES1   0.0000
    48 H17       1.0072    5.5190    5.1031   H         1 RES1   0.0000
    49 H18       0.9746    3.8248    5.6119   H         1 RES1   0.0000
    50 H19      -0.2587    5.0596    3.1238   H         1 RES1   0.0000
    51 H20      -0.9680    3.8463    4.2239   H         1 RES1   0.0000
    52 O3        0.0517   -1.5371    1.5601   O.2       1 RES1   0.0000
    53 C23       0.8657   -2.2292    2.2307   C.2       1 RES1   0.0000
    54 C24       2.3278   -1.9525    1.9649   C.ar      1 RES1   0.0000
    55 C25       3.4658   -2.4825    2.5881   C.ar      1 RES1   0.0000
    56 C26       4.7264   -2.0353    2.1980   C.ar      1 RES1   0.0000
    57 Cl3       6.1306   -2.6477    2.9497   Cl        1 RES1   0.0000
    58 C27       4.8489   -1.0542    1.1794   C.ar      1 RES1   0.0000
    59 C28       6.0841   -0.5352    0.7033   C.ar      1 RES1   0.0000
    60 C29       6.1197    0.4220   -0.2628   C.ar      1 RES1   0.0000
    61 C30       4.9228    0.9429   -0.8246   C.ar      1 RES1   0.0000
    62 C31       4.8788    1.9640   -1.8081   C.ar      1 RES1   0.0000
    63 Cl4       6.3256    2.6455   -2.3987   Cl        1 RES1   0.0000
    64 C32       3.6519    2.4189   -2.2846   C.ar      1 RES1   0.0000
    65 C33       2.4770    1.8447   -1.7903   C.ar      1 RES1   0.0000
    66 C34       1.0441    2.1790   -2.1116   C.2       1 RES1   0.0000
    67 O4        0.1742    1.5675   -1.4396   O.2       1 RES1   0.0000
    68 N5        0.6184    3.0526   -3.0008   N.am      1 RES1   0.0000
    69 C35      -0.8279    3.2549   -3.0688   C.3       1 RES1   0.0000
    70 C36      -1.0022    4.4645   -3.9716   C.3       1 RES1   0.0000
    71 C37       0.2236    4.3970   -4.8826   C.3       1 RES1   0.0000
    72 C38       1.3320    3.8602   -3.9754   C.3       1 RES1   0.0000
    73 N6        2.5087    0.8786   -0.8697   N.ar      1 RES1   0.0000
    74 C39       3.6788    0.4387   -0.3913   C.ar      1 RES1   0.0000
    75 C40       3.6381   -0.5849    0.6270   C.ar      1 RES1   0.0000
    76 N7        2.4364   -1.0273    1.0107   N.ar      1 RES1   0.0000
    77 N8        0.3550   -3.0828    3.1001   N.am      1 RES1   0.0000
    78 C41      -1.1037   -3.0747    3.2198   C.3       1 RES1   0.0000
    79 C42      -1.3969   -3.9251    4.4427   C.3       1 RES1   0.0000
    80 C43      -0.2379   -4.9197    4.4430   C.3       1 RES1   0.0000
    81 C44       0.9573   -4.0929    3.9537   C.3       1 RES1   0.0000
    82 H21       3.4079   -3.2180    3.3708   H         1 RES1   0.0000
    83 H22       7.0014   -0.9240    1.1217   H         1 RES1   0.0000
    84 H23       7.0559    0.8093   -0.6286   H         1 RES1   0.0000
    85 H24       3.6430    3.2095   -3.0127   H         1 RES1   0.0000
    86 H25      -1.2136    3.3988   -2.0556   H         1 RES1   0.0000
    87 H26      -1.2985    2.3516   -3.4735   H         1 RES1   0.0000
    88 H27      -0.9948    5.3780   -3.3821   H         1 RES1   0.0000
    89 H28      -1.9307    4.4179   -4.5314   H         1 RES1   0.0000
    90 H29       0.4816    5.3664   -5.2960   H         1 RES1   0.0000
    91 H30       0.0478    3.7014   -5.6997   H         1 RES1   0.0000
    92 H31       1.8596    4.6746   -3.4683   H         1 RES1   0.0000
    93 H32       2.0452    3.2451   -4.5263   H         1 RES1   0.0000
    94 H33      -1.5407   -3.4935    2.3069   H         1 RES1   0.0000
    95 H34      -1.4512   -2.0409    3.3067   H         1 RES1   0.0000
    96 H35      -2.3619   -4.4176    4.3680   H         1 RES1   0.0000
    97 H36      -1.3884   -3.3091    5.3394   H         1 RES1   0.0000
    98 H37      -0.4410   -5.7275    3.7459   H         1 RES1   0.0000
    99 H38      -0.0638   -5.3427    5.4296   H         1 RES1   0.0000
   100 H39       1.6638   -4.7021    3.3871   H         1 RES1   0.0000
   101 H40       1.4748   -3.6162    4.7933   H         1 RES1   0.0000
@<TRIPOS>BOND
     1     1     2    1
     2     1    17    1
     3     1    23    1
     4     1    26    1
     5     1    52    1
     6     1    67    1
     7     1    73    1
     8     1    76    1
     9     2     3    2
    10     3     4    1
    11     3    27    1
    12     4     5    1
    13     4    26    2
    14     5     6    2
    15     5    32    1
    16     6     7    1
    17     6     8    1
    18     8     9    1
    19     8    25    2
    20     9    10    2
    21     9    33    1
    22    10    11    1
    23    10    34    1
    24    11    12    1
    25    11    24    2
    26    12    13    1
    27    12    14    2
    28    14    15    1
    29    14    35    1
    30    15    16    1
    31    15    23    2
    32    16    17    2
    33    16    18    1
    34    18    19    1
    35    18    22    1
    36    19    20    1
    37    19    36    1
    38    19    37    1
    39    20    21    1
    40    20    38    1
    41    20    39    1
    42    21    22    1
    43    21    40    1
    44    21    41    1
    45    22    42    1
    46    22    43    1
    47    23    24    1
    48    24    25    1
    49    25    26    1
    50    27    28    1
    51    27    31    1
    52    28    29    1
    53    28    44    1
    54    28    45    1
    55    29    30    1
    56    29    46    1
    57    29    47    1
    58    30    31    1
    59    30    48    1
    60    30    49    1
    61    31    50    1
    62    31    51    1
    63    52    53    2
    64    53    54    1
    65    53    77    1
    66    54    55    1
    67    54    76    2
    68    55    56    2
    69    55    82    1
    70    56    57    1
    71    56    58    1
    72    58    59    1
    73    58    75    2
    74    59    60    2
    75    59    83    1
    76    60    61    1
    77    60    84    1
    78    61    62    1
    79    61    74    2
    80    62    63    1
    81    62    64    2
    82    64    65    1
    83    64    85    1
    84    65    66    1
    85    65    73    2
    86    66    67    2
    87    66    68    1
    88    68    69    1
    89    68    72    1
    90    69    70    1
    91    69    86    1
    92    69    87    1
    93    70    71    1
    94    70    88    1
    95    70    89    1
    96    71    72    1
    97    71    90    1
    98    71    91    1
    99    72    92    1
   100    72    93    1
   101    73    74    1
   102    74    75    1
   103    75    76    1
   104    77    78    1
   105    77    81    1
   106    78    79    1
   107    78    94    1
   108    78    95    1
   109    79    80    1
   110    79    96    1
   111    79    97    1
   112    80    81    1
   113    80    98    1
   114    80    99    1
   115    81   100    1
   116    81   101    1
@<TRIPOS>SUBSTRUCTURE
     1 RES1      101 GROUP             0 ****  ****    0  
