@<TRIPOS>MOLECULE
bicapped_trigonal_prismatic_0_nunpairedes_0_charge_3 Charge: 3 Unpaired_Electrons: 5 XTB_Unpaired_Electrons: 0 XTB_Charge: 3
   337   342     1     0     0
SMALL
NoCharges
****
Generated from Architector

@<TRIPOS>ATOM
     1 Dy1      -0.0510   -0.2354   -0.0185   Dy        1 RES1   0.0000
     2 C1        0.3526    5.0623    2.7197   C.3       1 RES1   0.0000
     3 C2        1.6595    4.9453    1.9410   C.3       1 RES1   0.0000
     4 C3        1.9165    3.6858    1.1016   C.3       1 RES1   0.0000
     5 C4        2.6144    2.4570    1.7065   C.3       1 RES1   0.0000
     6 C5        4.1163    2.5897    1.9784   C.3       1 RES1   0.0000
     7 C6        4.8931    1.2669    1.9570   C.3       1 RES1   0.0000
     8 C7        5.2763    0.8295    0.5420   C.3       1 RES1   0.0000
     9 C8        6.4838   -0.1151    0.5602   C.3       1 RES1   0.0000
    10 C9        6.8015   -0.7014   -0.8171   C.3       1 RES1   0.0000
    11 C10       5.8036   -1.7831   -1.2440   C.3       1 RES1   0.0000
    12 C11       5.6139   -1.8523   -2.7632   C.3       1 RES1   0.0000
    13 C12       4.1436   -2.0320   -3.1731   C.3       1 RES1   0.0000
    14 N1        3.2875   -0.9743   -2.6444   N.am      1 RES1   0.0000
    15 C13       3.4998    0.3655   -3.1951   C.3       1 RES1   0.0000
    16 C14       2.3482    0.8984   -4.0505   C.3       1 RES1   0.0000
    17 C15       2.8046    2.2022   -4.7145   C.3       1 RES1   0.0000
    18 C16       1.6867    2.9873   -5.4018   C.3       1 RES1   0.0000
    19 C17       2.1673    4.3803   -5.8598   C.3       1 RES1   0.0000
    20 C18       1.6216    5.5571   -5.0273   C.3       1 RES1   0.0000
    21 C19       0.6597    6.4616   -5.7991   C.3       1 RES1   0.0000
    22 C20      -0.6030    5.7527   -6.2836   C.3       1 RES1   0.0000
    23 C21      -1.5206    5.2383   -5.1721   C.3       1 RES1   0.0000
    24 C22      -2.3772    4.0558   -5.6358   C.3       1 RES1   0.0000
    25 C23      -3.4184    4.3789   -6.7171   C.3       1 RES1   0.0000
    26 C24      -2.8950    4.2494   -8.1442   C.3       1 RES1   0.0000
    27 C25       2.4770   -1.0831   -1.6078   C.2       1 RES1   0.0000
    28 O1        1.8691   -0.0909   -1.1326   O.2       1 RES1   0.0000
    29 C26       2.2626   -2.4280   -0.9082   C.3       1 RES1   0.0000
    30 O2        1.0260   -2.3410   -0.2095   O.3       1 RES1   0.0000
    31 C27       1.0271   -3.0038    1.0585   C.3       1 RES1   0.0000
    32 C28      -0.4191   -3.2031    1.4869   C.3       1 RES1   0.0000
    33 O3       -1.1139   -1.9761    1.2974   O.3       1 RES1   0.0000
    34 C29      -2.5012   -2.1029    1.5695   C.3       1 RES1   0.0000
    35 C30      -3.1791   -0.9048    0.9197   C.2       1 RES1   0.0000
    36 O4       -2.4576   -0.1225    0.2593   O.2       1 RES1   0.0000
    37 N2       -4.4839   -0.7599    1.0661   N.am      1 RES1   0.0000
    38 C31      -5.3114   -1.6120    1.9127   C.3       1 RES1   0.0000
    39 C32      -5.3992   -1.0831    3.3530   C.3       1 RES1   0.0000
    40 C33      -6.0035   -2.1040    4.3228   C.3       1 RES1   0.0000
    41 C34      -7.4888   -2.3958    4.0817   C.3       1 RES1   0.0000
    42 C35      -7.8833   -3.7864    4.5864   C.3       1 RES1   0.0000
    43 C36      -7.4166   -4.9519    3.7056   C.3       1 RES1   0.0000
    44 C37      -8.3891   -5.3214    2.5826   C.3       1 RES1   0.0000
    45 C38      -8.4098   -4.3594    1.3950   C.3       1 RES1   0.0000
    46 C39      -9.1996   -4.9685    0.2376   C.3       1 RES1   0.0000
    47 C40      -9.2480   -4.1089   -1.0258   C.3       1 RES1   0.0000
    48 C41      -9.9068   -2.7376   -0.8598   C.3       1 RES1   0.0000
    49 C42     -11.3374   -2.8150   -0.3432   C.3       1 RES1   0.0000
    50 C43      -5.1486    0.4058    0.4935   C.3       1 RES1   0.0000
    51 C44      -6.1540    0.0981   -0.6226   C.3       1 RES1   0.0000
    52 C45      -5.5345   -0.5196   -1.8869   C.3       1 RES1   0.0000
    53 C46      -5.8546   -2.0064   -2.0464   C.3       1 RES1   0.0000
    54 C47      -5.0965   -2.6777   -3.1957   C.3       1 RES1   0.0000
    55 C48      -5.5765   -4.1186   -3.4091   C.3       1 RES1   0.0000
    56 C49      -4.6534   -4.9923   -4.2638   C.3       1 RES1   0.0000
    57 C50      -4.6116   -4.6851   -5.7582   C.3       1 RES1   0.0000
    58 C51      -3.7111   -5.6995   -6.4814   C.3       1 RES1   0.0000
    59 C52      -3.0023   -5.1110   -7.7033   C.3       1 RES1   0.0000
    60 C53      -1.7322   -4.3537   -7.3090   C.3       1 RES1   0.0000
    61 C54      -0.5704   -5.3047   -7.0411   C.3       1 RES1   0.0000
    62 H1        0.2833    6.0749    3.1053   H         1 RES1   0.0000
    63 H2        0.3101    4.4004    3.5809   H         1 RES1   0.0000
    64 H3       -0.5197    4.9123    2.0837   H         1 RES1   0.0000
    65 H4        2.4980    5.1037    2.6082   H         1 RES1   0.0000
    66 H5        1.6620    5.7789    1.2423   H         1 RES1   0.0000
    67 H6        0.9649    3.3358    0.7099   H         1 RES1   0.0000
    68 H7        2.5117    3.9947    0.2444   H         1 RES1   0.0000
    69 H8        2.4592    1.6359    0.9844   H         1 RES1   0.0000
    70 H9        2.1216    2.1888    2.6364   H         1 RES1   0.0000
    71 H10       4.2682    3.0666    2.9464   H         1 RES1   0.0000
    72 H11       4.5662    3.2323    1.2224   H         1 RES1   0.0000
    73 H12       4.3260    0.4731    2.4536   H         1 RES1   0.0000
    74 H13       5.8244    1.4000    2.5127   H         1 RES1   0.0000
    75 H14       5.5506    1.7147   -0.0361   H         1 RES1   0.0000
    76 H15       4.4149    0.3720    0.0448   H         1 RES1   0.0000
    77 H16       6.3237   -0.9244    1.2789   H         1 RES1   0.0000
    78 H17       7.3523    0.4644    0.8819   H         1 RES1   0.0000
    79 H18       7.8099   -1.1163   -0.8230   H         1 RES1   0.0000
    80 H19       6.7828    0.1179   -1.5372   H         1 RES1   0.0000
    81 H20       4.8458   -1.5551   -0.7746   H         1 RES1   0.0000
    82 H21       6.1293   -2.7523   -0.8621   H         1 RES1   0.0000
    83 H22       6.1961   -2.6806   -3.1654   H         1 RES1   0.0000
    84 H23       6.0104   -0.9447   -3.2199   H         1 RES1   0.0000
    85 H24       3.7903   -3.0086   -2.8469   H         1 RES1   0.0000
    86 H25       4.0815   -1.9899   -4.2615   H         1 RES1   0.0000
    87 H26       4.4067    0.3257   -3.7952   H         1 RES1   0.0000
    88 H27       3.6640    1.0574   -2.3640   H         1 RES1   0.0000
    89 H28       1.4703    1.0813   -3.4220   H         1 RES1   0.0000
    90 H29       2.0743    0.1644   -4.8091   H         1 RES1   0.0000
    91 H30       3.5742    1.9783   -5.4531   H         1 RES1   0.0000
    92 H31       3.2520    2.8369   -3.9495   H         1 RES1   0.0000
    93 H32       0.8608    3.1050   -4.6971   H         1 RES1   0.0000
    94 H33       1.3110    2.4199   -6.2564   H         1 RES1   0.0000
    95 H34       1.8939    4.5382   -6.9026   H         1 RES1   0.0000
    96 H35       3.2565    4.3992   -5.8255   H         1 RES1   0.0000
    97 H36       2.4479    6.1880   -4.6967   H         1 RES1   0.0000
    98 H37       1.1234    5.1833   -4.1295   H         1 RES1   0.0000
    99 H38       1.1841    6.8512   -6.6739   H         1 RES1   0.0000
   100 H39       0.3909    7.3152   -5.1731   H         1 RES1   0.0000
   101 H40      -0.3003    4.9089   -6.9052   H         1 RES1   0.0000
   102 H41      -1.1599    6.4436   -6.9158   H         1 RES1   0.0000
   103 H42      -2.1592    6.0447   -4.8062   H         1 RES1   0.0000
   104 H43      -0.9129    4.8987   -4.3265   H         1 RES1   0.0000
   105 H44      -2.9029    3.6495   -4.7622   H         1 RES1   0.0000
   106 H45      -1.7023    3.2799   -6.0127   H         1 RES1   0.0000
   107 H46      -3.8069    5.3859   -6.5523   H         1 RES1   0.0000
   108 H47      -4.2558    3.6839   -6.6010   H         1 RES1   0.0000
   109 H48      -2.0928    4.9524   -8.3419   H         1 RES1   0.0000
   110 H49      -3.6995    4.4544   -8.8452   H         1 RES1   0.0000
   111 H50      -2.5228    3.2419   -8.3315   H         1 RES1   0.0000
   112 H51       3.0959   -2.5862   -0.2107   H         1 RES1   0.0000
   113 H52       2.2148   -3.2689   -1.6070   H         1 RES1   0.0000
   114 H53       1.5390   -2.3727    1.7935   H         1 RES1   0.0000
   115 H54       1.5207   -3.9769    0.9840   H         1 RES1   0.0000
   116 H55      -0.4739   -3.5053    2.5406   H         1 RES1   0.0000
   117 H56      -0.8877   -3.9732    0.8719   H         1 RES1   0.0000
   118 H57      -2.6575   -2.1377    2.6591   H         1 RES1   0.0000
   119 H58      -2.8892   -3.0263    1.1205   H         1 RES1   0.0000
   120 H59      -4.9321   -2.6350    1.8978   H         1 RES1   0.0000
   121 H60      -6.3083   -1.6334    1.4728   H         1 RES1   0.0000
   122 H61      -6.0112   -0.1798    3.3746   H         1 RES1   0.0000
   123 H62      -4.3946   -0.8132    3.6975   H         1 RES1   0.0000
   124 H63      -5.8764   -1.7137    5.3334   H         1 RES1   0.0000
   125 H64      -5.4294   -3.0318    4.2668   H         1 RES1   0.0000
   126 H65      -7.7117   -2.3088    3.0215   H         1 RES1   0.0000
   127 H66      -8.0948   -1.6505    4.5996   H         1 RES1   0.0000
   128 H67      -8.9687   -3.8334    4.6707   H         1 RES1   0.0000
   129 H68      -7.4749   -3.9078    5.5917   H         1 RES1   0.0000
   130 H69      -7.3063   -5.8317    4.3436   H         1 RES1   0.0000
   131 H70      -6.4339   -4.7384    3.2758   H         1 RES1   0.0000
   132 H71      -9.3926   -5.3952    3.0041   H         1 RES1   0.0000
   133 H72      -8.1201   -6.3135    2.2106   H         1 RES1   0.0000
   134 H73      -7.3800   -4.1536    1.0776   H         1 RES1   0.0000
   135 H74      -8.8767   -3.4203    1.6948   H         1 RES1   0.0000
   136 H75     -10.2159   -5.1683    0.5769   H         1 RES1   0.0000
   137 H76      -8.7525   -5.9309   -0.0270   H         1 RES1   0.0000
   138 H77      -9.8114   -4.6642   -1.7781   H         1 RES1   0.0000
   139 H78      -8.2303   -3.9740   -1.4108   H         1 RES1   0.0000
   140 H79      -9.9112   -2.2530   -1.8396   H         1 RES1   0.0000
   141 H80      -9.3096   -2.1127   -0.1897   H         1 RES1   0.0000
   142 H81     -11.9238   -3.4950   -0.9534   H         1 RES1   0.0000
   143 H82     -11.8039   -1.8348   -0.3826   H         1 RES1   0.0000
   144 H83     -11.3712   -3.1639    0.6845   H         1 RES1   0.0000
   145 H84      -4.3796    1.0770    0.0985   H         1 RES1   0.0000
   146 H85      -5.6615    0.9085    1.3167   H         1 RES1   0.0000
   147 H86      -6.6270    1.0521   -0.8638   H         1 RES1   0.0000
   148 H87      -6.9481   -0.5557   -0.2639   H         1 RES1   0.0000
   149 H88      -4.4498   -0.3875   -1.8578   H         1 RES1   0.0000
   150 H89      -5.9102    0.0253   -2.7523   H         1 RES1   0.0000
   151 H90      -6.9251   -2.1355   -2.2058   H         1 RES1   0.0000
   152 H91      -5.6024   -2.5130   -1.1118   H         1 RES1   0.0000
   153 H92      -4.0282   -2.6739   -2.9551   H         1 RES1   0.0000
   154 H93      -5.2316   -2.1081   -4.1170   H         1 RES1   0.0000
   155 H94      -6.5679   -4.1081   -3.8626   H         1 RES1   0.0000
   156 H95      -5.6716   -4.5923   -2.4271   H         1 RES1   0.0000
   157 H96      -4.9561   -6.0360   -4.1342   H         1 RES1   0.0000
   158 H97      -3.6273   -4.9002   -3.9051   H         1 RES1   0.0000
   159 H98      -4.2322   -3.6704   -5.9152   H         1 RES1   0.0000
   160 H99      -5.6162   -4.7306   -6.1783   H         1 RES1   0.0000
   161 H100     -4.3053   -6.5612   -6.7858   H         1 RES1   0.0000
   162 H101     -2.9579   -6.0710   -5.7819   H         1 RES1   0.0000
   163 H102     -3.6951   -4.4511   -8.2287   H         1 RES1   0.0000
   164 H103     -2.7223   -5.9127   -8.3863   H         1 RES1   0.0000
   165 H104     -1.9391   -3.7654   -6.4115   H         1 RES1   0.0000
   166 H105     -1.4480   -3.6620   -8.1040   H         1 RES1   0.0000
   167 H106     -0.8311   -6.0214   -6.2656   H         1 RES1   0.0000
   168 H107      0.3186   -4.7578   -6.7292   H         1 RES1   0.0000
   169 H108     -0.3307   -5.8596   -7.9437   H         1 RES1   0.0000
   170 C55       3.1972    4.9088   -1.9509   C.3       1 RES1   0.0000
   171 C56       4.6330    5.0200   -1.4381   C.3       1 RES1   0.0000
   172 C57       4.9696    6.3641   -0.7745   C.3       1 RES1   0.0000
   173 C58       4.3722    6.4981    0.6374   C.3       1 RES1   0.0000
   174 C59       5.2523    7.2276    1.6568   C.3       1 RES1   0.0000
   175 C60       4.6508    7.2437    3.0758   C.3       1 RES1   0.0000
   176 C61       4.8202    5.9197    3.8415   C.3       1 RES1   0.0000
   177 C62       3.9122    5.7777    5.0767   C.3       1 RES1   0.0000
   178 C63       3.8331    4.3299    5.6084   C.3       1 RES1   0.0000
   179 C64       2.4966    3.6545    5.2722   C.3       1 RES1   0.0000
   180 C65       2.5020    2.1356    5.4829   C.3       1 RES1   0.0000
   181 C66       1.1318    1.4863    5.1577   C.3       1 RES1   0.0000
   182 N3        1.2199    0.4964    4.0898   N.am      1 RES1   0.0000
   183 C67       2.1559   -0.6109    4.3200   C.3       1 RES1   0.0000
   184 C68       1.5543   -1.7898    5.0800   C.3       1 RES1   0.0000
   185 C69       2.5683   -2.9292    5.2716   C.3       1 RES1   0.0000
   186 C70       2.9664   -3.6853    3.9921   C.3       1 RES1   0.0000
   187 C71       4.3634   -3.3302    3.4810   C.3       1 RES1   0.0000
   188 C72       4.6853   -3.8248    2.0631   C.3       1 RES1   0.0000
   189 C73       5.1065   -5.2891    1.8735   C.3       1 RES1   0.0000
   190 C74       4.0611   -6.4030    2.0343   C.3       1 RES1   0.0000
   191 C75       2.9579   -6.4266    0.9590   C.3       1 RES1   0.0000
   192 C76       1.5289   -6.6009    1.4957   C.3       1 RES1   0.0000
   193 C77       1.0849   -8.0441    1.7599   C.3       1 RES1   0.0000
   194 C78       1.8599   -8.7454    2.8681   C.3       1 RES1   0.0000
   195 C79       0.5947    0.5708    2.9248   C.2       1 RES1   0.0000
   196 O5        0.8204   -0.2595    2.0087   O.2       1 RES1   0.0000
   197 C80      -0.4655    1.6457    2.6114   C.3       1 RES1   0.0000
   198 O6       -0.5710    1.6490    1.1837   O.3       1 RES1   0.0000
   199 C81      -1.5490    2.5348    0.6201   C.3       1 RES1   0.0000
   200 C82      -1.2218    2.7398   -0.8812   C.3       1 RES1   0.0000
   201 O7       -0.8242    1.5105   -1.4906   O.3       1 RES1   0.0000
   202 C83      -1.4996    1.1439   -2.7052   C.3       1 RES1   0.0000
   203 C84      -1.1330   -0.3357   -2.8916   C.2       1 RES1   0.0000
   204 O8       -0.7324   -0.9156   -1.8522   O.2       1 RES1   0.0000
   205 N4       -1.0908   -1.0141   -4.0270   N.am      1 RES1   0.0000
   206 C85      -1.7662   -0.9347   -5.3274   C.3       1 RES1   0.0000
   207 C86      -2.3451    0.3741   -5.8630   C.3       1 RES1   0.0000
   208 C87      -3.8709    0.4456   -5.7637   C.3       1 RES1   0.0000
   209 C88      -4.5618   -0.6488   -6.5894   C.3       1 RES1   0.0000
   210 C89      -5.9612   -0.2829   -7.0842   C.3       1 RES1   0.0000
   211 C90      -6.9775   -0.0134   -5.9617   C.3       1 RES1   0.0000
   212 C91      -8.2681   -0.8261   -6.1266   C.3       1 RES1   0.0000
   213 C92      -8.1303   -2.2635   -5.6235   C.3       1 RES1   0.0000
   214 C93      -9.4151   -3.0620   -5.8449   C.3       1 RES1   0.0000
   215 C94      -9.3880   -4.4609   -5.2222   C.3       1 RES1   0.0000
   216 C95      -8.6164   -5.4985   -6.0461   C.3       1 RES1   0.0000
   217 C96      -9.4817   -6.1660   -7.1065   C.3       1 RES1   0.0000
   218 C97      -0.2912   -2.2483   -3.9332   C.3       1 RES1   0.0000
   219 C98      -1.0586   -3.5342   -3.6083   C.3       1 RES1   0.0000
   220 C99      -1.4261   -3.7638   -2.1330   C.3       1 RES1   0.0000
   221 C100     -1.9921   -5.1875   -1.9365   C.3       1 RES1   0.0000
   222 C101     -1.7814   -5.8974   -0.5837   C.3       1 RES1   0.0000
   223 C102     -3.0177   -5.8639    0.3494   C.3       1 RES1   0.0000
   224 C103     -2.7376   -5.7239    1.8609   C.3       1 RES1   0.0000
   225 C104     -3.6178   -6.5896    2.7719   C.3       1 RES1   0.0000
   226 C105     -3.7186   -6.0524    4.2054   C.3       1 RES1   0.0000
   227 C106     -2.4234   -6.0711    5.0232   C.3       1 RES1   0.0000
   228 C107     -1.5062   -4.8544    4.8912   C.3       1 RES1   0.0000
   229 C108     -2.1396   -3.5437    5.3488   C.3       1 RES1   0.0000
   230 H109      2.8703    3.8667   -1.9877   H         1 RES1   0.0000
   231 H110      3.1421    5.3068   -2.9567   H         1 RES1   0.0000
   232 H111      2.5120    5.4785   -1.3286   H         1 RES1   0.0000
   233 H112      5.3070    4.8593   -2.2816   H         1 RES1   0.0000
   234 H113      4.8308    4.2279   -0.7125   H         1 RES1   0.0000
   235 H114      4.6169    7.1779   -1.4113   H         1 RES1   0.0000
   236 H115      6.0565    6.4489   -0.7173   H         1 RES1   0.0000
   237 H116      4.1691    5.4985    1.0170   H         1 RES1   0.0000
   238 H117      3.4214    7.0287    0.5713   H         1 RES1   0.0000
   239 H118      5.3866    8.2577    1.3267   H         1 RES1   0.0000
   240 H119      6.2415    6.7705    1.7000   H         1 RES1   0.0000
   241 H120      3.5897    7.4961    3.0116   H         1 RES1   0.0000
   242 H121      5.1304    8.0419    3.6462   H         1 RES1   0.0000
   243 H122      5.8599    5.8405    4.1645   H         1 RES1   0.0000
   244 H123      4.6380    5.0899    3.1556   H         1 RES1   0.0000
   245 H124      2.9086    6.1320    4.8324   H         1 RES1   0.0000
   246 H125      4.2889    6.4338    5.8608   H         1 RES1   0.0000
   247 H126      3.9845    4.3213    6.6876   H         1 RES1   0.0000
   248 H127      4.6470    3.7496    5.1732   H         1 RES1   0.0000
   249 H128      2.2700    3.8396    4.2227   H         1 RES1   0.0000
   250 H129      1.7113    4.1025    5.8837   H         1 RES1   0.0000
   251 H130      2.7791    1.8985    6.5099   H         1 RES1   0.0000
   252 H131      3.2658    1.7241    4.8222   H         1 RES1   0.0000
   253 H132      0.4311    2.2685    4.8705   H         1 RES1   0.0000
   254 H133      0.7128    0.9903    6.0381   H         1 RES1   0.0000
   255 H134      3.0082   -0.2303    4.8801   H         1 RES1   0.0000
   256 H135      2.5074   -0.9456    3.3467   H         1 RES1   0.0000
   257 H136      0.6733   -2.1613    4.5505   H         1 RES1   0.0000
   258 H137      1.2432   -1.4579    6.0708   H         1 RES1   0.0000
   259 H138      2.1191   -3.6425    5.9617   H         1 RES1   0.0000
   260 H139      3.4662   -2.5368    5.7514   H         1 RES1   0.0000
   261 H140      2.2256   -3.4742    3.2240   H         1 RES1   0.0000
   262 H141      2.9321   -4.7567    4.1842   H         1 RES1   0.0000
   263 H142      5.1072   -3.7185    4.1776   H         1 RES1   0.0000
   264 H143      4.4711   -2.2405    3.4748   H         1 RES1   0.0000
   265 H144      5.5348   -3.2282    1.7194   H         1 RES1   0.0000
   266 H145      3.8406   -3.5946    1.4056   H         1 RES1   0.0000
   267 H146      5.9184   -5.4940    2.5747   H         1 RES1   0.0000
   268 H147      5.5256   -5.3704    0.8645   H         1 RES1   0.0000
   269 H148      3.6193   -6.3564    3.0286   H         1 RES1   0.0000
   270 H149      4.6223   -7.3390    1.9901   H         1 RES1   0.0000
   271 H150      3.1547   -7.2369    0.2563   H         1 RES1   0.0000
   272 H151      3.0029   -5.4930    0.3840   H         1 RES1   0.0000
   273 H152      0.8424   -6.1983    0.7443   H         1 RES1   0.0000
   274 H153      1.4031   -6.0131    2.4106   H         1 RES1   0.0000
   275 H154      1.1705   -8.6194    0.8343   H         1 RES1   0.0000
   276 H155      0.0235   -8.0145    2.0295   H         1 RES1   0.0000
   277 H156      2.9030   -8.8679    2.5885   H         1 RES1   0.0000
   278 H157      1.4401   -9.7344    3.0397   H         1 RES1   0.0000
   279 H158      1.8013   -8.1769    3.7967   H         1 RES1   0.0000
   280 H159     -0.1905    2.6480    2.9597   H         1 RES1   0.0000
   281 H160     -1.4202    1.3544    3.0776   H         1 RES1   0.0000
   282 H161     -1.5347    3.5094    1.1246   H         1 RES1   0.0000
   283 H162     -2.5472    2.0931    0.7390   H         1 RES1   0.0000
   284 H163     -0.3927    3.4530   -0.9899   H         1 RES1   0.0000
   285 H164     -2.1016    3.1449   -1.3862   H         1 RES1   0.0000
   286 H165     -1.1359    1.7633   -3.5373   H         1 RES1   0.0000
   287 H166     -2.5883    1.2753   -2.6124   H         1 RES1   0.0000
   288 H167     -2.5646   -1.6832   -5.2889   H         1 RES1   0.0000
   289 H168     -1.0394   -1.3076   -6.0518   H         1 RES1   0.0000
   290 H169     -2.0820    0.4287   -6.9219   H         1 RES1   0.0000
   291 H170     -1.8819    1.2265   -5.3738   H         1 RES1   0.0000
   292 H171     -4.1909    1.4201   -6.1291   H         1 RES1   0.0000
   293 H172     -4.1684    0.3756   -4.7158   H         1 RES1   0.0000
   294 H173     -4.6513   -1.5607   -5.9963   H         1 RES1   0.0000
   295 H174     -3.9472   -0.8842   -7.4607   H         1 RES1   0.0000
   296 H175     -6.3156   -1.1229   -7.6816   H         1 RES1   0.0000
   297 H176     -5.8986    0.5765   -7.7532   H         1 RES1   0.0000
   298 H177     -7.2267    1.0491   -5.9334   H         1 RES1   0.0000
   299 H178     -6.5342   -0.2655   -4.9952   H         1 RES1   0.0000
   300 H179     -8.5500   -0.8252   -7.1804   H         1 RES1   0.0000
   301 H180     -9.0789   -0.3460   -5.5735   H         1 RES1   0.0000
   302 H181     -7.8972   -2.2297   -4.5545   H         1 RES1   0.0000
   303 H182     -7.2934   -2.7481   -6.1308   H         1 RES1   0.0000
   304 H183     -9.6029   -3.1412   -6.9158   H         1 RES1   0.0000
   305 H184    -10.2479   -2.5041   -5.4113   H         1 RES1   0.0000
   306 H185    -10.4143   -4.8140   -5.1145   H         1 RES1   0.0000
   307 H186     -8.9685   -4.3898   -4.2133   H         1 RES1   0.0000
   308 H187     -8.2245   -6.2703   -5.3800   H         1 RES1   0.0000
   309 H188     -7.7662   -5.0202   -6.5341   H         1 RES1   0.0000
   310 H189    -10.2880   -6.7245   -6.6411   H         1 RES1   0.0000
   311 H190     -8.8909   -6.8590   -7.6987   H         1 RES1   0.0000
   312 H191     -9.9173   -5.4311   -7.7761   H         1 RES1   0.0000
   313 H192      0.4807   -2.0737   -3.1739   H         1 RES1   0.0000
   314 H193      0.1921   -2.3677   -4.9062   H         1 RES1   0.0000
   315 H194     -0.4121   -4.3518   -3.9406   H         1 RES1   0.0000
   316 H195     -1.9654   -3.5624   -4.2161   H         1 RES1   0.0000
   317 H196     -2.1662   -3.0216   -1.8189   H         1 RES1   0.0000
   318 H197     -0.5329   -3.6050   -1.5268   H         1 RES1   0.0000
   319 H198     -1.5592   -5.8216   -2.7137   H         1 RES1   0.0000
   320 H199     -3.0673   -5.1545   -2.1032   H         1 RES1   0.0000
   321 H200     -0.8878   -5.5139   -0.0884   H         1 RES1   0.0000
   322 H201     -1.5700   -6.9448   -0.8058   H         1 RES1   0.0000
   323 H202     -3.5643   -6.7951    0.1936   H         1 RES1   0.0000
   324 H203     -3.6873   -5.0523    0.0448   H         1 RES1   0.0000
   325 H204     -2.9128   -4.6941    2.1758   H         1 RES1   0.0000
   326 H205     -1.6934   -5.9604    2.0563   H         1 RES1   0.0000
   327 H206     -3.2317   -7.6081    2.8021   H         1 RES1   0.0000
   328 H207     -4.6303   -6.6275    2.3617   H         1 RES1   0.0000
   329 H208     -4.4468   -6.6725    4.7293   H         1 RES1   0.0000
   330 H209     -4.1341   -5.0441    4.1777   H         1 RES1   0.0000
   331 H210     -1.8593   -6.9650    4.7553   H         1 RES1   0.0000
   332 H211     -2.6866   -6.1604    6.0768   H         1 RES1   0.0000
   333 H212     -1.1614   -4.7596    3.8603   H         1 RES1   0.0000
   334 H213     -0.6258   -5.0429    5.5083   H         1 RES1   0.0000
   335 H214     -2.9583   -3.2403    4.6971   H         1 RES1   0.0000
   336 H215     -1.3931   -2.7494    5.3613   H         1 RES1   0.0000
   337 H216     -2.5363   -3.6497    6.3546   H         1 RES1   0.0000
@<TRIPOS>BOND
     1     1    28    1
     2     1    30    1
     3     1    33    1
     4     1    36    1
     5     1   196    1
     6     1   198    1
     7     1   201    1
     8     1   204    1
     9     2     3    1
    10     2    62    1
    11     2    63    1
    12     2    64    1
    13     3     4    1
    14     3    65    1
    15     3    66    1
    16     4     5    1
    17     4    67    1
    18     4    68    1
    19     5     6    1
    20     5    69    1
    21     5    70    1
    22     6     7    1
    23     6    71    1
    24     6    72    1
    25     7     8    1
    26     7    73    1
    27     7    74    1
    28     8     9    1
    29     8    75    1
    30     8    76    1
    31     9    10    1
    32     9    77    1
    33     9    78    1
    34    10    11    1
    35    10    79    1
    36    10    80    1
    37    11    12    1
    38    11    81    1
    39    11    82    1
    40    12    13    1
    41    12    83    1
    42    12    84    1
    43    13    14    1
    44    13    85    1
    45    13    86    1
    46    14    15    1
    47    14    27    1
    48    15    16    1
    49    15    87    1
    50    15    88    1
    51    16    17    1
    52    16    89    1
    53    16    90    1
    54    17    18    1
    55    17    91    1
    56    17    92    1
    57    18    19    1
    58    18    93    1
    59    18    94    1
    60    19    20    1
    61    19    95    1
    62    19    96    1
    63    20    21    1
    64    20    97    1
    65    20    98    1
    66    21    22    1
    67    21    99    1
    68    21   100    1
    69    22    23    1
    70    22   101    1
    71    22   102    1
    72    23    24    1
    73    23   103    1
    74    23   104    1
    75    24    25    1
    76    24   105    1
    77    24   106    1
    78    25    26    1
    79    25   107    1
    80    25   108    1
    81    26   109    1
    82    26   110    1
    83    26   111    1
    84    27    28    2
    85    27    29    1
    86    29    30    1
    87    29   112    1
    88    29   113    1
    89    30    31    1
    90    31    32    1
    91    31   114    1
    92    31   115    1
    93    32    33    1
    94    32   116    1
    95    32   117    1
    96    33    34    1
    97    34    35    1
    98    34   118    1
    99    34   119    1
   100    35    36    2
   101    35    37    1
   102    37    38    1
   103    37    50    1
   104    38    39    1
   105    38   120    1
   106    38   121    1
   107    39    40    1
   108    39   122    1
   109    39   123    1
   110    40    41    1
   111    40   124    1
   112    40   125    1
   113    41    42    1
   114    41   126    1
   115    41   127    1
   116    42    43    1
   117    42   128    1
   118    42   129    1
   119    43    44    1
   120    43   130    1
   121    43   131    1
   122    44    45    1
   123    44   132    1
   124    44   133    1
   125    45    46    1
   126    45   134    1
   127    45   135    1
   128    46    47    1
   129    46   136    1
   130    46   137    1
   131    47    48    1
   132    47   138    1
   133    47   139    1
   134    48    49    1
   135    48   140    1
   136    48   141    1
   137    49   142    1
   138    49   143    1
   139    49   144    1
   140    50    51    1
   141    50   145    1
   142    50   146    1
   143    51    52    1
   144    51   147    1
   145    51   148    1
   146    52    53    1
   147    52   149    1
   148    52   150    1
   149    53    54    1
   150    53   151    1
   151    53   152    1
   152    54    55    1
   153    54   153    1
   154    54   154    1
   155    55    56    1
   156    55   155    1
   157    55   156    1
   158    56    57    1
   159    56   157    1
   160    56   158    1
   161    57    58    1
   162    57   159    1
   163    57   160    1
   164    58    59    1
   165    58   161    1
   166    58   162    1
   167    59    60    1
   168    59   163    1
   169    59   164    1
   170    60    61    1
   171    60   165    1
   172    60   166    1
   173    61   167    1
   174    61   168    1
   175    61   169    1
   176   170   171    1
   177   170   230    1
   178   170   231    1
   179   170   232    1
   180   171   172    1
   181   171   233    1
   182   171   234    1
   183   172   173    1
   184   172   235    1
   185   172   236    1
   186   173   174    1
   187   173   237    1
   188   173   238    1
   189   174   175    1
   190   174   239    1
   191   174   240    1
   192   175   176    1
   193   175   241    1
   194   175   242    1
   195   176   177    1
   196   176   243    1
   197   176   244    1
   198   177   178    1
   199   177   245    1
   200   177   246    1
   201   178   179    1
   202   178   247    1
   203   178   248    1
   204   179   180    1
   205   179   249    1
   206   179   250    1
   207   180   181    1
   208   180   251    1
   209   180   252    1
   210   181   182    1
   211   181   253    1
   212   181   254    1
   213   182   183    1
   214   182   195    1
   215   183   184    1
   216   183   255    1
   217   183   256    1
   218   184   185    1
   219   184   257    1
   220   184   258    1
   221   185   186    1
   222   185   259    1
   223   185   260    1
   224   186   187    1
   225   186   261    1
   226   186   262    1
   227   187   188    1
   228   187   263    1
   229   187   264    1
   230   188   189    1
   231   188   265    1
   232   188   266    1
   233   189   190    1
   234   189   267    1
   235   189   268    1
   236   190   191    1
   237   190   269    1
   238   190   270    1
   239   191   192    1
   240   191   271    1
   241   191   272    1
   242   192   193    1
   243   192   273    1
   244   192   274    1
   245   193   194    1
   246   193   275    1
   247   193   276    1
   248   194   277    1
   249   194   278    1
   250   194   279    1
   251   195   196    2
   252   195   197    1
   253   197   198    1
   254   197   280    1
   255   197   281    1
   256   198   199    1
   257   199   200    1
   258   199   282    1
   259   199   283    1
   260   200   201    1
   261   200   284    1
   262   200   285    1
   263   201   202    1
   264   202   203    1
   265   202   286    1
   266   202   287    1
   267   203   204    2
   268   203   205    1
   269   205   206    1
   270   205   218    1
   271   206   207    1
   272   206   288    1
   273   206   289    1
   274   207   208    1
   275   207   290    1
   276   207   291    1
   277   208   209    1
   278   208   292    1
   279   208   293    1
   280   209   210    1
   281   209   294    1
   282   209   295    1
   283   210   211    1
   284   210   296    1
   285   210   297    1
   286   211   212    1
   287   211   298    1
   288   211   299    1
   289   212   213    1
   290   212   300    1
   291   212   301    1
   292   213   214    1
   293   213   302    1
   294   213   303    1
   295   214   215    1
   296   214   304    1
   297   214   305    1
   298   215   216    1
   299   215   306    1
   300   215   307    1
   301   216   217    1
   302   216   308    1
   303   216   309    1
   304   217   310    1
   305   217   311    1
   306   217   312    1
   307   218   219    1
   308   218   313    1
   309   218   314    1
   310   219   220    1
   311   219   315    1
   312   219   316    1
   313   220   221    1
   314   220   317    1
   315   220   318    1
   316   221   222    1
   317   221   319    1
   318   221   320    1
   319   222   223    1
   320   222   321    1
   321   222   322    1
   322   223   224    1
   323   223   323    1
   324   223   324    1
   325   224   225    1
   326   224   325    1
   327   224   326    1
   328   225   226    1
   329   225   327    1
   330   225   328    1
   331   226   227    1
   332   226   329    1
   333   226   330    1
   334   227   228    1
   335   227   331    1
   336   227   332    1
   337   228   229    1
   338   228   333    1
   339   228   334    1
   340   229   335    1
   341   229   336    1
   342   229   337    1
@<TRIPOS>SUBSTRUCTURE
     1 RES1      337 GROUP             0 ****  ****    0  
