@<TRIPOS>MOLECULE
dodecahedral_0_nunpairedes_0_charge_3 Charge: 3 Unpaired_Electrons: 5 XTB_Unpaired_Electrons: 0 XTB_Charge: 3
   253   264     1     0     0
SMALL
NoCharges
****
Generated from Architector

@<TRIPOS>ATOM
     1 Dy1       0.0475    0.1270   -0.0188   Dy        1 RES1   0.0000
     2 C1        2.5709    6.0834    1.7620   C.3       1 RES1   0.0000
     3 C2        2.3716    5.6128    0.3235   C.3       1 RES1   0.0000
     4 C3        0.9662    5.5853   -0.2851   C.3       1 RES1   0.0000
     5 C4        0.1786    6.8971   -0.2160   C.3       1 RES1   0.0000
     6 C5       -0.6108    7.1546    1.0743   C.3       1 RES1   0.0000
     7 C6       -1.3931    5.9309    1.5522   C.3       1 RES1   0.0000
     8 C7       -0.5812    5.0548    2.5099   C.3       1 RES1   0.0000
     9 C8       -1.3359    3.7567    2.7762   C.3       1 RES1   0.0000
    10 N1       -0.5211    2.7144    3.4107   N.am      1 RES1   0.0000
    11 C9       -0.1363    3.0027    4.7740   C.3       1 RES1   0.0000
    12 C10      -1.3288    3.1623    5.7338   C.3       1 RES1   0.0000
    13 C11      -2.3664    2.0340    5.7049   C.3       1 RES1   0.0000
    14 C12      -3.3824    2.1813    4.5676   C.3       1 RES1   0.0000
    15 C13      -4.5898    1.2553    4.6549   C.3       1 RES1   0.0000
    16 C14      -5.6525    1.6283    3.6209   C.3       1 RES1   0.0000
    17 C15      -5.2030    1.4619    2.1587   C.3       1 RES1   0.0000
    18 C16      -4.9872    2.7798    1.4217   C.3       1 RES1   0.0000
    19 C17      -0.2489    1.6173    2.7148   C.2       1 RES1   0.0000
    20 O1       -0.6520    1.5395    1.5238   O.2       1 RES1   0.0000
    21 C18       0.5177    0.3922    3.2038   C.ar      1 RES1   0.0000
    22 C19       0.6796   -0.1383    4.4998   C.ar      1 RES1   0.0000
    23 C20       1.4126   -1.2962    4.6742   C.ar      1 RES1   0.0000
    24 C21       1.9647   -1.9776    3.5764   C.ar      1 RES1   0.0000
    25 C22       2.7675   -3.1581    3.6650   C.ar      1 RES1   0.0000
    26 C23       3.2140   -3.7920    2.5507   C.ar      1 RES1   0.0000
    27 C24       2.8359   -3.3338    1.2541   C.ar      1 RES1   0.0000
    28 C25       3.1998   -3.9677    0.0566   C.ar      1 RES1   0.0000
    29 C26       2.6682   -3.5474   -1.1449   C.ar      1 RES1   0.0000
    30 C27       1.7497   -2.4890   -1.1535   C.ar      1 RES1   0.0000
    31 C28       0.9599   -1.9392   -2.2977   C.2       1 RES1   0.0000
    32 O2        0.3646   -0.8520   -2.0726   O.2       1 RES1   0.0000
    33 N2        0.8476   -2.5056   -3.5000   N.am      1 RES1   0.0000
    34 C29       0.0342   -1.6959   -4.4188   C.3       1 RES1   0.0000
    35 C30       0.6811   -0.3825   -4.8874   C.3       1 RES1   0.0000
    36 C31       1.4662   -0.5148   -6.1945   C.3       1 RES1   0.0000
    37 C32       1.4291    0.7893   -6.9900   C.3       1 RES1   0.0000
    38 C33       2.1693    1.9667   -6.3363   C.3       1 RES1   0.0000
    39 C34       3.5516    2.2437   -6.9398   C.3       1 RES1   0.0000
    40 C35       4.6932    1.4347   -6.3223   C.3       1 RES1   0.0000
    41 C36       5.1021    1.9855   -4.9599   C.3       1 RES1   0.0000
    42 C37       0.9992   -3.9293   -3.8346   C.3       1 RES1   0.0000
    43 C38       2.2821   -4.4115   -4.5435   C.3       1 RES1   0.0000
    44 C39       1.9676   -5.5629   -5.5104   C.3       1 RES1   0.0000
    45 C40       1.1948   -6.7461   -4.9215   C.3       1 RES1   0.0000
    46 C41       2.0145   -7.5868   -3.9442   C.3       1 RES1   0.0000
    47 C42       1.2492   -8.7791   -3.3667   C.3       1 RES1   0.0000
    48 C43       0.1261   -8.3740   -2.4147   C.3       1 RES1   0.0000
    49 C44      -0.4138   -9.5388   -1.5885   C.3       1 RES1   0.0000
    50 N3        1.4823   -1.8105   -0.0392   N.ar      1 RES1   0.0000
    51 C45       2.0088   -2.1922    1.1267   C.ar      1 RES1   0.0000
    52 C46       1.6423   -1.4444    2.3071   C.ar      1 RES1   0.0000
    53 N4        0.9721   -0.2959    2.1555   N.ar      1 RES1   0.0000
    54 H1        3.6160    6.3566    1.8955   H         1 RES1   0.0000
    55 H2        2.3393    5.3029    2.4840   H         1 RES1   0.0000
    56 H3        1.9746    6.9596    1.9851   H         1 RES1   0.0000
    57 H4        2.7727    4.6004    0.2425   H         1 RES1   0.0000
    58 H5        2.9569    6.2708   -0.3117   H         1 RES1   0.0000
    59 H6        0.3721    4.7683    0.1231   H         1 RES1   0.0000
    60 H7        1.1028    5.3553   -1.3487   H         1 RES1   0.0000
    61 H8       -0.5437    6.8872   -1.0376   H         1 RES1   0.0000
    62 H9        0.8573    7.7343   -0.3990   H         1 RES1   0.0000
    63 H10      -1.3080    7.9667    0.8652   H         1 RES1   0.0000
    64 H11       0.0375    7.5068    1.8749   H         1 RES1   0.0000
    65 H12      -1.7029    5.3561    0.6759   H         1 RES1   0.0000
    66 H13      -2.2986    6.2523    2.0670   H         1 RES1   0.0000
    67 H14      -0.4251    5.6159    3.4350   H         1 RES1   0.0000
    68 H15       0.3879    4.8113    2.0877   H         1 RES1   0.0000
    69 H16      -1.7348    3.3487    1.8419   H         1 RES1   0.0000
    70 H17      -2.1651    3.9904    3.4377   H         1 RES1   0.0000
    71 H18       0.4077    3.9508    4.7839   H         1 RES1   0.0000
    72 H19       0.5475    2.2301    5.1181   H         1 RES1   0.0000
    73 H20      -1.8432    4.1096    5.5567   H         1 RES1   0.0000
    74 H21      -0.8984    3.2476    6.7327   H         1 RES1   0.0000
    75 H22      -2.8922    2.0818    6.6583   H         1 RES1   0.0000
    76 H23      -1.8771    1.0595    5.6386   H         1 RES1   0.0000
    77 H24      -2.8979    1.9833    3.6099   H         1 RES1   0.0000
    78 H25      -3.7580    3.2076    4.5789   H         1 RES1   0.0000
    79 H26      -5.0355    1.3136    5.6480   H         1 RES1   0.0000
    80 H27      -4.2658    0.2288    4.4876   H         1 RES1   0.0000
    81 H28      -5.9546    2.6609    3.7893   H         1 RES1   0.0000
    82 H29      -6.5318    1.0104    3.7986   H         1 RES1   0.0000
    83 H30      -5.9713    0.9099    1.6104   H         1 RES1   0.0000
    84 H31      -4.2769    0.8770    2.1178   H         1 RES1   0.0000
    85 H32      -5.9076    3.3571    1.4090   H         1 RES1   0.0000
    86 H33      -4.6908    2.5874    0.3900   H         1 RES1   0.0000
    87 H34      -4.2138    3.3783    1.8940   H         1 RES1   0.0000
    88 H35       0.2092    0.3073    5.3613   H         1 RES1   0.0000
    89 H36       1.5640   -1.7084    5.6612   H         1 RES1   0.0000
    90 H37       3.0159   -3.5365    4.6434   H         1 RES1   0.0000
    91 H38       3.8134   -4.6870    2.6116   H         1 RES1   0.0000
    92 H39       3.8794   -4.8025    0.0855   H         1 RES1   0.0000
    93 H40       2.9827   -4.0060   -2.0634   H         1 RES1   0.0000
    94 H41      -0.8887   -1.4437   -3.8775   H         1 RES1   0.0000
    95 H42      -0.2109   -2.2972   -5.2915   H         1 RES1   0.0000
    96 H43       1.3010    0.0279   -4.0883   H         1 RES1   0.0000
    97 H44      -0.1330    0.3267   -5.0623   H         1 RES1   0.0000
    98 H45       1.0020   -1.2897   -6.8063   H         1 RES1   0.0000
    99 H46       2.4957   -0.8119   -6.0091   H         1 RES1   0.0000
   100 H47       0.3784    1.0550   -7.1283   H         1 RES1   0.0000
   101 H48       1.8427    0.6082   -7.9819   H         1 RES1   0.0000
   102 H49       2.2579    1.7871   -5.2644   H         1 RES1   0.0000
   103 H50       1.5602    2.8649   -6.4533   H         1 RES1   0.0000
   104 H51       3.7834    3.3052   -6.8263   H         1 RES1   0.0000
   105 H52       3.5034    2.0413   -8.0096   H         1 RES1   0.0000
   106 H53       5.5554    1.4850   -6.9876   H         1 RES1   0.0000
   107 H54       4.4045    0.3854   -6.2393   H         1 RES1   0.0000
   108 H55       4.2885    1.8864   -4.2377   H         1 RES1   0.0000
   109 H56       5.3623    3.0391   -5.0546   H         1 RES1   0.0000
   110 H57       5.9738    1.4601   -4.5759   H         1 RES1   0.0000
   111 H58       0.1725   -4.1357   -4.5205   H         1 RES1   0.0000
   112 H59       0.8399   -4.5211   -2.9331   H         1 RES1   0.0000
   113 H60       3.0437   -4.7416   -3.8335   H         1 RES1   0.0000
   114 H61       2.7170   -3.6022   -5.1297   H         1 RES1   0.0000
   115 H62       2.9141   -5.9355   -5.8977   H         1 RES1   0.0000
   116 H63       1.4086   -5.1516   -6.3534   H         1 RES1   0.0000
   117 H64       0.8919   -7.3893   -5.7476   H         1 RES1   0.0000
   118 H65       0.2807   -6.3910   -4.4479   H         1 RES1   0.0000
   119 H66       2.3735   -6.9581   -3.1259   H         1 RES1   0.0000
   120 H67       2.8856   -7.9643   -4.4798   H         1 RES1   0.0000
   121 H68       1.9532   -9.4106   -2.8225   H         1 RES1   0.0000
   122 H69       0.8346   -9.3642   -4.1853   H         1 RES1   0.0000
   123 H70      -0.7006   -7.9357   -2.9817   H         1 RES1   0.0000
   124 H71       0.5175   -7.6107   -1.7353   H         1 RES1   0.0000
   125 H72      -0.7450  -10.3481   -2.2346   H         1 RES1   0.0000
   126 H73      -1.2693   -9.2163   -0.9958   H         1 RES1   0.0000
   127 H74       0.3392   -9.9215   -0.9013   H         1 RES1   0.0000
   128 C47      -2.7108   -5.2523   -1.1596   C.3       1 RES1   0.0000
   129 C48      -1.2232   -5.0038   -1.3971   C.3       1 RES1   0.0000
   130 C49      -0.2474   -4.9238   -0.2107   C.3       1 RES1   0.0000
   131 C50      -0.1939   -6.1066    0.7661   C.3       1 RES1   0.0000
   132 C51      -1.2736   -6.2228    1.8492   C.3       1 RES1   0.0000
   133 C52      -1.5609   -4.9307    2.6129   C.3       1 RES1   0.0000
   134 C53      -2.5688   -4.0782    1.8592   C.3       1 RES1   0.0000
   135 C54      -2.7721   -2.6936    2.4670   C.3       1 RES1   0.0000
   136 N5       -3.4987   -1.8517    1.5160   N.am      1 RES1   0.0000
   137 C55      -4.9489   -2.0249    1.3927   C.3       1 RES1   0.0000
   138 C56      -5.6847   -2.9172    2.4110   C.3       1 RES1   0.0000
   139 C57      -6.1361   -2.3187    3.7540   C.3       1 RES1   0.0000
   140 C58      -5.0840   -2.4073    4.8594   C.3       1 RES1   0.0000
   141 C59      -5.5329   -2.0026    6.2624   C.3       1 RES1   0.0000
   142 C60      -4.4232   -2.2970    7.2803   C.3       1 RES1   0.0000
   143 C61      -3.0569   -1.6658    6.9574   C.3       1 RES1   0.0000
   144 C62      -2.0286   -2.6887    6.4777   C.3       1 RES1   0.0000
   145 C63      -2.7355   -1.1837    0.6527   C.2       1 RES1   0.0000
   146 O3       -1.4833   -1.3165    0.7291   O.2       1 RES1   0.0000
   147 C64      -3.1934   -0.2045   -0.4119   C.ar      1 RES1   0.0000
   148 C65      -4.4367   -0.0664   -1.0505   C.ar      1 RES1   0.0000
   149 C66      -4.5690    0.8783   -2.0500   C.ar      1 RES1   0.0000
   150 C67      -3.4865    1.6853   -2.4432   C.ar      1 RES1   0.0000
   151 C68      -3.5342    2.6255   -3.5177   C.ar      1 RES1   0.0000
   152 C69      -2.4134    3.2709   -3.9310   C.ar      1 RES1   0.0000
   153 C70      -1.1527    3.0473   -3.2965   C.ar      1 RES1   0.0000
   154 C71       0.0742    3.5519   -3.7548   C.ar      1 RES1   0.0000
   155 C72       1.2541    3.2531   -3.0990   C.ar      1 RES1   0.0000
   156 C73       1.2241    2.4997   -1.9165   C.ar      1 RES1   0.0000
   157 C74       2.3419    2.0394   -0.9816   C.2       1 RES1   0.0000
   158 O4        1.9489    1.1394   -0.1864   O.2       1 RES1   0.0000
   159 N6        3.6201    2.4068   -0.8507   N.am      1 RES1   0.0000
   160 C75       4.3439    1.6822    0.2172   C.3       1 RES1   0.0000
   161 C76       4.8098    0.2762   -0.1706   C.3       1 RES1   0.0000
   162 C77       5.9953    0.2358   -1.1407   C.3       1 RES1   0.0000
   163 C78       6.7398   -1.1077   -1.1243   C.3       1 RES1   0.0000
   164 C79       5.9159   -2.3444   -1.5061   C.3       1 RES1   0.0000
   165 C80       5.9183   -2.7036   -2.9949   C.3       1 RES1   0.0000
   166 C81       5.3699   -1.6222   -3.9217   C.3       1 RES1   0.0000
   167 C82       3.9322   -1.2273   -3.6061   C.3       1 RES1   0.0000
   168 C83       4.5530    3.4085   -1.3850   C.3       1 RES1   0.0000
   169 C84       4.2080    4.4249   -2.4561   C.3       1 RES1   0.0000
   170 C85       5.3955    5.4009   -2.5661   C.3       1 RES1   0.0000
   171 C86       5.3145    6.6355   -1.6671   C.3       1 RES1   0.0000
   172 C87       4.3687    7.7031   -2.2155   C.3       1 RES1   0.0000
   173 C88       4.4465    9.0364   -1.4708   C.3       1 RES1   0.0000
   174 C89       3.8346    9.0064   -0.0735   C.3       1 RES1   0.0000
   175 C90       3.7789   10.3945    0.5526   C.3       1 RES1   0.0000
   176 N7        0.0606    1.9982   -1.4924   N.ar      1 RES1   0.0000
   177 C91      -1.0819    2.2082   -2.1571   C.ar      1 RES1   0.0000
   178 C92      -2.2706    1.4834   -1.7448   C.ar      1 RES1   0.0000
   179 N8       -2.1648    0.5654   -0.7765   N.ar      1 RES1   0.0000
   180 H75      -3.1605   -5.6145   -2.0813   H         1 RES1   0.0000
   181 H76      -3.2351   -4.3451   -0.8691   H         1 RES1   0.0000
   182 H77      -2.8722   -6.0057   -0.3997   H         1 RES1   0.0000
   183 H78      -1.1193   -4.0576   -1.9402   H         1 RES1   0.0000
   184 H79      -0.8665   -5.8078   -2.0394   H         1 RES1   0.0000
   185 H80      -0.3548   -3.9826    0.3372   H         1 RES1   0.0000
   186 H81       0.7486   -4.8915   -0.6649   H         1 RES1   0.0000
   187 H82       0.7753   -6.0406    1.2757   H         1 RES1   0.0000
   188 H83      -0.1885   -7.0360    0.1916   H         1 RES1   0.0000
   189 H84      -0.9317   -6.9812    2.5533   H         1 RES1   0.0000
   190 H85      -2.2019   -6.6045    1.4270   H         1 RES1   0.0000
   191 H86      -0.6310   -4.3742    2.7439   H         1 RES1   0.0000
   192 H87      -1.9636   -5.1746    3.5960   H         1 RES1   0.0000
   193 H88      -3.5158   -4.6182    1.8012   H         1 RES1   0.0000
   194 H89      -2.2181   -3.9221    0.8490   H         1 RES1   0.0000
   195 H90      -1.8048   -2.2173    2.6741   H         1 RES1   0.0000
   196 H91      -3.3303   -2.7609    3.3916   H         1 RES1   0.0000
   197 H92      -5.1262   -2.4817    0.4123   H         1 RES1   0.0000
   198 H93      -5.4040   -1.0336    1.3993   H         1 RES1   0.0000
   199 H94      -5.1347   -3.8345    2.6075   H         1 RES1   0.0000
   200 H95      -6.5858   -3.2333    1.8816   H         1 RES1   0.0000
   201 H96      -7.0085   -2.8947    4.0642   H         1 RES1   0.0000
   202 H97      -6.4626   -1.2885    3.6182   H         1 RES1   0.0000
   203 H98      -4.2478   -1.7523    4.6081   H         1 RES1   0.0000
   204 H99      -4.7352   -3.4417    4.9177   H         1 RES1   0.0000
   205 H100     -6.4236   -2.5595    6.5577   H         1 RES1   0.0000
   206 H101     -5.7801   -0.9402    6.2787   H         1 RES1   0.0000
   207 H102     -4.2998   -3.3781    7.3534   H         1 RES1   0.0000
   208 H103     -4.7555   -1.9465    8.2555   H         1 RES1   0.0000
   209 H104     -2.6589   -1.1765    7.8471   H         1 RES1   0.0000
   210 H105     -3.1721   -0.8839    6.2053   H         1 RES1   0.0000
   211 H106     -1.8410   -3.4230    7.2565   H         1 RES1   0.0000
   212 H107     -1.0849   -2.1997    6.2351   H         1 RES1   0.0000
   213 H108     -2.3718   -3.2191    5.5920   H         1 RES1   0.0000
   214 H109     -5.2818   -0.6888   -0.8132   H         1 RES1   0.0000
   215 H110     -5.5161    0.9912   -2.5544   H         1 RES1   0.0000
   216 H111     -4.4763    2.7898   -4.0181   H         1 RES1   0.0000
   217 H112     -2.4505    3.9625   -4.7576   H         1 RES1   0.0000
   218 H113      0.1021    4.1578   -4.6463   H         1 RES1   0.0000
   219 H114      2.1802    3.5860   -3.5248   H         1 RES1   0.0000
   220 H115      3.6691    1.6132    1.0752   H         1 RES1   0.0000
   221 H116      5.2107    2.2790    0.4987   H         1 RES1   0.0000
   222 H117      3.9471   -0.2612   -0.5683   H         1 RES1   0.0000
   223 H118      5.1145   -0.2156    0.7544   H         1 RES1   0.0000
   224 H119      6.7193    0.9966   -0.8386   H         1 RES1   0.0000
   225 H120      5.6667    0.4643   -2.1525   H         1 RES1   0.0000
   226 H121      7.1350   -1.2524   -0.1162   H         1 RES1   0.0000
   227 H122      7.5994   -1.0346   -1.7921   H         1 RES1   0.0000
   228 H123      4.8923   -2.2137   -1.1564   H         1 RES1   0.0000
   229 H124      6.3257   -3.2010   -0.9666   H         1 RES1   0.0000
   230 H125      5.3440   -3.6253   -3.1266   H         1 RES1   0.0000
   231 H126      6.9435   -2.9198   -3.2959   H         1 RES1   0.0000
   232 H127      5.4108   -1.9926   -4.9485   H         1 RES1   0.0000
   233 H128      6.0237   -0.7524   -3.8733   H         1 RES1   0.0000
   234 H129      3.7909   -0.9930   -2.5533   H         1 RES1   0.0000
   235 H130      3.2613   -2.0402   -3.8618   H         1 RES1   0.0000
   236 H131      3.6537   -0.3524   -4.1841   H         1 RES1   0.0000
   237 H132      5.4091    2.8276   -1.7463   H         1 RES1   0.0000
   238 H133      4.8945    3.9747   -0.5094   H         1 RES1   0.0000
   239 H134      3.2978    4.9670   -2.2168   H         1 RES1   0.0000
   240 H135      4.0953    3.9163   -3.4105   H         1 RES1   0.0000
   241 H136      5.4748    5.7387   -3.5982   H         1 RES1   0.0000
   242 H137      6.3093    4.8497   -2.3362   H         1 RES1   0.0000
   243 H138      6.3108    7.0690   -1.6083   H         1 RES1   0.0000
   244 H139      5.0371    6.3492   -0.6528   H         1 RES1   0.0000
   245 H140      3.3373    7.3410   -2.2025   H         1 RES1   0.0000
   246 H141      4.6369    7.8783   -3.2586   H         1 RES1   0.0000
   247 H142      3.9200    9.7867   -2.0615   H         1 RES1   0.0000
   248 H143      5.4884    9.3484   -1.3979   H         1 RES1   0.0000
   249 H144      4.4183    8.3453    0.5711   H         1 RES1   0.0000
   250 H145      2.8191    8.6077   -0.1365   H         1 RES1   0.0000
   251 H146      4.7743   10.8261    0.6131   H         1 RES1   0.0000
   252 H147      3.3642   10.3445    1.5573   H         1 RES1   0.0000
   253 H148      3.1560   11.0604   -0.0405   H         1 RES1   0.0000
@<TRIPOS>BOND
     1     1    20    1
     2     1    32    1
     3     1    50    1
     4     1    53    1
     5     1   146    1
     6     1   158    1
     7     1   176    1
     8     1   179    1
     9     2     3    1
    10     2    54    1
    11     2    55    1
    12     2    56    1
    13     3     4    1
    14     3    57    1
    15     3    58    1
    16     4     5    1
    17     4    59    1
    18     4    60    1
    19     5     6    1
    20     5    61    1
    21     5    62    1
    22     6     7    1
    23     6    63    1
    24     6    64    1
    25     7     8    1
    26     7    65    1
    27     7    66    1
    28     8     9    1
    29     8    67    1
    30     8    68    1
    31     9    10    1
    32     9    69    1
    33     9    70    1
    34    10    11    1
    35    10    19    1
    36    11    12    1
    37    11    71    1
    38    11    72    1
    39    12    13    1
    40    12    73    1
    41    12    74    1
    42    13    14    1
    43    13    75    1
    44    13    76    1
    45    14    15    1
    46    14    77    1
    47    14    78    1
    48    15    16    1
    49    15    79    1
    50    15    80    1
    51    16    17    1
    52    16    81    1
    53    16    82    1
    54    17    18    1
    55    17    83    1
    56    17    84    1
    57    18    85    1
    58    18    86    1
    59    18    87    1
    60    19    20    2
    61    19    21    1
    62    21    22    1
    63    21    53    2
    64    22    23    2
    65    22    88    1
    66    23    24    1
    67    23    89    1
    68    24    25    1
    69    24    52    2
    70    25    26    2
    71    25    90    1
    72    26    27    1
    73    26    91    1
    74    27    28    1
    75    27    51    2
    76    28    29    2
    77    28    92    1
    78    29    30    1
    79    29    93    1
    80    30    31    1
    81    30    50    2
    82    31    32    2
    83    31    33    1
    84    33    34    1
    85    33    42    1
    86    34    35    1
    87    34    94    1
    88    34    95    1
    89    35    36    1
    90    35    96    1
    91    35    97    1
    92    36    37    1
    93    36    98    1
    94    36    99    1
    95    37    38    1
    96    37   100    1
    97    37   101    1
    98    38    39    1
    99    38   102    1
   100    38   103    1
   101    39    40    1
   102    39   104    1
   103    39   105    1
   104    40    41    1
   105    40   106    1
   106    40   107    1
   107    41   108    1
   108    41   109    1
   109    41   110    1
   110    42    43    1
   111    42   111    1
   112    42   112    1
   113    43    44    1
   114    43   113    1
   115    43   114    1
   116    44    45    1
   117    44   115    1
   118    44   116    1
   119    45    46    1
   120    45   117    1
   121    45   118    1
   122    46    47    1
   123    46   119    1
   124    46   120    1
   125    47    48    1
   126    47   121    1
   127    47   122    1
   128    48    49    1
   129    48   123    1
   130    48   124    1
   131    49   125    1
   132    49   126    1
   133    49   127    1
   134    50    51    1
   135    51    52    1
   136    52    53    1
   137   128   129    1
   138   128   180    1
   139   128   181    1
   140   128   182    1
   141   129   130    1
   142   129   183    1
   143   129   184    1
   144   130   131    1
   145   130   185    1
   146   130   186    1
   147   131   132    1
   148   131   187    1
   149   131   188    1
   150   132   133    1
   151   132   189    1
   152   132   190    1
   153   133   134    1
   154   133   191    1
   155   133   192    1
   156   134   135    1
   157   134   193    1
   158   134   194    1
   159   135   136    1
   160   135   195    1
   161   135   196    1
   162   136   137    1
   163   136   145    1
   164   137   138    1
   165   137   197    1
   166   137   198    1
   167   138   139    1
   168   138   199    1
   169   138   200    1
   170   139   140    1
   171   139   201    1
   172   139   202    1
   173   140   141    1
   174   140   203    1
   175   140   204    1
   176   141   142    1
   177   141   205    1
   178   141   206    1
   179   142   143    1
   180   142   207    1
   181   142   208    1
   182   143   144    1
   183   143   209    1
   184   143   210    1
   185   144   211    1
   186   144   212    1
   187   144   213    1
   188   145   146    2
   189   145   147    1
   190   147   148    1
   191   147   179    2
   192   148   149    2
   193   148   214    1
   194   149   150    1
   195   149   215    1
   196   150   151    1
   197   150   178    2
   198   151   152    2
   199   151   216    1
   200   152   153    1
   201   152   217    1
   202   153   154    1
   203   153   177    2
   204   154   155    2
   205   154   218    1
   206   155   156    1
   207   155   219    1
   208   156   157    1
   209   156   176    2
   210   157   158    2
   211   157   159    1
   212   159   160    1
   213   159   168    1
   214   160   161    1
   215   160   220    1
   216   160   221    1
   217   161   162    1
   218   161   222    1
   219   161   223    1
   220   162   163    1
   221   162   224    1
   222   162   225    1
   223   163   164    1
   224   163   226    1
   225   163   227    1
   226   164   165    1
   227   164   228    1
   228   164   229    1
   229   165   166    1
   230   165   230    1
   231   165   231    1
   232   166   167    1
   233   166   232    1
   234   166   233    1
   235   167   234    1
   236   167   235    1
   237   167   236    1
   238   168   169    1
   239   168   237    1
   240   168   238    1
   241   169   170    1
   242   169   239    1
   243   169   240    1
   244   170   171    1
   245   170   241    1
   246   170   242    1
   247   171   172    1
   248   171   243    1
   249   171   244    1
   250   172   173    1
   251   172   245    1
   252   172   246    1
   253   173   174    1
   254   173   247    1
   255   173   248    1
   256   174   175    1
   257   174   249    1
   258   174   250    1
   259   175   251    1
   260   175   252    1
   261   175   253    1
   262   176   177    1
   263   177   178    1
   264   178   179    1
@<TRIPOS>SUBSTRUCTURE
     1 RES1      253 GROUP             0 ****  ****    0  
