@<TRIPOS>MOLECULE
ICIGOT_geomtry_0_nunpairedes_0_charge_3 Charge: 3 Unpaired_Electrons: 5 XTB_Unpaired_Electrons: 0 XTB_Charge: 3
    93   100     1     0     0
SMALL
NoCharges
****
Generated from Architector

@<TRIPOS>ATOM
     1 Dy1      -0.2270   -0.0974    0.3142   Dy        1 RES1   0.0000
     2 O1       -1.0794    1.8514    0.1774   O.2       1 RES1   0.0000
     3 C1       -0.7018    2.6761   -0.6893   C.2       1 RES1   0.0000
     4 C2       -0.1473    2.1160   -2.0148   C.3       1 RES1   0.0000
     5 O2       -0.2058    0.6812   -2.0122   O.3       1 RES1   0.0000
     6 C3       -1.2249    0.0781   -2.8324   C.3       1 RES1   0.0000
     7 C4       -2.2543   -0.6719   -1.9704   C.2       1 RES1   0.0000
     8 O3       -2.0690   -0.6872   -0.7256   O.2       1 RES1   0.0000
     9 N1       -3.2536   -1.3281   -2.5146   N.am      1 RES1   0.0000
    10 C5       -4.1779   -1.9748   -1.5751   C.3       1 RES1   0.0000
    11 C6       -5.1964   -2.8390   -2.2950   C.3       1 RES1   0.0000
    12 C7       -5.9793   -2.0038   -3.3098   C.3       1 RES1   0.0000
    13 C8       -5.0528   -1.0910   -4.1340   C.3       1 RES1   0.0000
    14 C9       -3.5809   -1.4579   -3.9285   C.3       1 RES1   0.0000
    15 N2       -0.7243    3.9759   -0.4875   N.am      1 RES1   0.0000
    16 C10      -1.3239    4.5043    0.7397   C.3       1 RES1   0.0000
    17 C11      -2.6462    5.1929    0.4145   C.3       1 RES1   0.0000
    18 C12      -2.4341    6.2504   -0.6595   C.3       1 RES1   0.0000
    19 C13      -1.7985    5.6245   -1.8953   C.3       1 RES1   0.0000
    20 C14      -0.4607    4.9937   -1.4955   C.3       1 RES1   0.0000
    21 H1        0.9180    2.3808   -2.0975   H         1 RES1   0.0000
    22 H2       -0.7052    2.5173   -2.8668   H         1 RES1   0.0000
    23 H3       -0.7198   -0.6423   -3.4906   H         1 RES1   0.0000
    24 H4       -1.7240    0.8296   -3.4496   H         1 RES1   0.0000
    25 H5       -4.6857   -1.1932   -0.9977   H         1 RES1   0.0000
    26 H6       -3.5845   -2.5702   -0.8740   H         1 RES1   0.0000
    27 H7       -5.8850   -3.2434   -1.5542   H         1 RES1   0.0000
    28 H8       -4.7116   -3.6924   -2.7751   H         1 RES1   0.0000
    29 H9       -6.7039   -1.3784   -2.7896   H         1 RES1   0.0000
    30 H10      -6.5335   -2.6779   -3.9611   H         1 RES1   0.0000
    31 H11      -5.1953   -0.0422   -3.8592   H         1 RES1   0.0000
    32 H12      -5.2811   -1.1828   -5.1934   H         1 RES1   0.0000
    33 H13      -2.9307   -0.8195   -4.5281   H         1 RES1   0.0000
    34 H14      -3.4085   -2.4981   -4.2301   H         1 RES1   0.0000
    35 H15      -0.6240    5.2149    1.1833   H         1 RES1   0.0000
    36 H16      -1.4835    3.6803    1.4349   H         1 RES1   0.0000
    37 H17      -3.0435    5.6488    1.3181   H         1 RES1   0.0000
    38 H18      -3.3692    4.4541    0.0701   H         1 RES1   0.0000
    39 H19      -1.7794    7.0339   -0.2788   H         1 RES1   0.0000
    40 H20      -3.3817    6.7077   -0.9286   H         1 RES1   0.0000
    41 H21      -1.6244    6.3739   -2.6648   H         1 RES1   0.0000
    42 H22      -2.4548    4.8551   -2.3115   H         1 RES1   0.0000
    43 H23       0.1861    5.7527   -1.0401   H         1 RES1   0.0000
    44 H24       0.0590    4.5645   -2.3534   H         1 RES1   0.0000
    45 O4        1.6192    1.1848    0.8685   O.2       1 RES1   0.0000
    46 C15       2.8551    1.0210    0.6644   C.2       1 RES1   0.0000
    47 C16       3.2680   -0.2514   -0.0964   C.3       1 RES1   0.0000
    48 O5        2.2016   -1.2033   -0.0675   O.3       1 RES1   0.0000
    49 C17       2.3704   -2.3279    0.8049   C.3       1 RES1   0.0000
    50 C18       1.2332   -2.3620    1.8232   C.2       1 RES1   0.0000
    51 O6        0.4306   -1.3922    1.8438   O.2       1 RES1   0.0000
    52 N3        1.0620   -3.3755    2.6354   N.am      1 RES1   0.0000
    53 C19      -0.0515   -3.2480    3.5816   C.3       1 RES1   0.0000
    54 C20      -0.0644   -4.4048    4.5660   C.3       1 RES1   0.0000
    55 C21       1.3161   -4.5473    5.2002   C.3       1 RES1   0.0000
    56 C22       2.3947   -4.7918    4.1307   C.3       1 RES1   0.0000
    57 C23       1.8539   -4.5910    2.7086   C.3       1 RES1   0.0000
    58 N4        3.7604    1.8922    1.0409   N.am      1 RES1   0.0000
    59 C24       5.1851    1.8295    0.7428   C.3       1 RES1   0.0000
    60 C25       5.9720    1.8153    2.0531   C.3       1 RES1   0.0000
    61 C26       5.6837    3.0868    2.8694   C.3       1 RES1   0.0000
    62 C27       4.5495    3.9048    2.2470   C.3       1 RES1   0.0000
    63 C28       3.3593    3.0204    1.8936   C.3       1 RES1   0.0000
    64 H25       4.1802   -0.6893    0.3145   H         1 RES1   0.0000
    65 H26       3.4266   -0.0070   -1.1561   H         1 RES1   0.0000
    66 H27       3.3238   -2.2964    1.3415   H         1 RES1   0.0000
    67 H28       2.3352   -3.2344    0.1881   H         1 RES1   0.0000
    68 H29      -0.9860   -3.2027    3.0088   H         1 RES1   0.0000
    69 H30       0.0673   -2.2942    4.1137   H         1 RES1   0.0000
    70 H31      -0.3627   -5.3318    4.0753   H         1 RES1   0.0000
    71 H32      -0.8058   -4.2014    5.3366   H         1 RES1   0.0000
    72 H33       1.3071   -5.3693    5.9125   H         1 RES1   0.0000
    73 H34       1.5526   -3.6357    5.7515   H         1 RES1   0.0000
    74 H35       2.7737   -5.8101    4.1888   H         1 RES1   0.0000
    75 H36       3.2408   -4.1232    4.2962   H         1 RES1   0.0000
    76 H37       1.2087   -5.4308    2.4220   H         1 RES1   0.0000
    77 H38       2.6801   -4.5436    1.9987   H         1 RES1   0.0000
    78 H39       5.4412    2.7225    0.1634   H         1 RES1   0.0000
    79 H40       5.4171    0.9595    0.1304   H         1 RES1   0.0000
    80 H41       7.0288    1.7489    1.8074   H         1 RES1   0.0000
    81 H42       5.7103    0.9193    2.6231   H         1 RES1   0.0000
    82 H43       6.5739    3.7115    2.9232   H         1 RES1   0.0000
    83 H44       5.4232    2.8021    3.8881   H         1 RES1   0.0000
    84 H45       4.9043    4.4504    1.3698   H         1 RES1   0.0000
    85 H46       4.2170    4.6539    2.9634   H         1 RES1   0.0000
    86 H47       2.5891    3.5988    1.3753   H         1 RES1   0.0000
    87 H48       2.9080    2.6213    2.8098   H         1 RES1   0.0000
    88 O7       -1.9488   -0.2159    2.1331   O.3       1 RES1   0.0000
    89 H49      -1.8710    0.1673    3.0174   H         1 RES1   0.0000
    90 H50      -2.6167   -0.9081    2.2191   H         1 RES1   0.0000
    91 O8        0.1024   -2.3379   -1.1927   O.3       1 RES1   0.0000
    92 H51       0.7064   -2.4531   -1.9415   H         1 RES1   0.0000
    93 H52      -0.2307   -3.2212   -0.9911   H         1 RES1   0.0000
@<TRIPOS>BOND
     1     1     2    1
     2     1     5    1
     3     1     8    1
     4     1    45    1
     5     1    48    1
     6     1    51    1
     7     1    88    1
     8     1    91    1
     9     2     3    2
    10     3     4    1
    11     3    15    1
    12     4     5    1
    13     4    21    1
    14     4    22    1
    15     5     6    1
    16     6     7    1
    17     6    23    1
    18     6    24    1
    19     7     8    2
    20     7     9    1
    21     9    10    1
    22     9    14    1
    23    10    11    1
    24    10    25    1
    25    10    26    1
    26    11    12    1
    27    11    27    1
    28    11    28    1
    29    12    13    1
    30    12    29    1
    31    12    30    1
    32    13    14    1
    33    13    31    1
    34    13    32    1
    35    14    33    1
    36    14    34    1
    37    15    16    1
    38    15    20    1
    39    16    17    1
    40    16    35    1
    41    16    36    1
    42    17    18    1
    43    17    37    1
    44    17    38    1
    45    18    19    1
    46    18    39    1
    47    18    40    1
    48    19    20    1
    49    19    41    1
    50    19    42    1
    51    20    43    1
    52    20    44    1
    53    45    46    2
    54    46    47    1
    55    46    58    1
    56    47    48    1
    57    47    64    1
    58    47    65    1
    59    48    49    1
    60    49    50    1
    61    49    66    1
    62    49    67    1
    63    50    51    2
    64    50    52    1
    65    52    53    1
    66    52    57    1
    67    53    54    1
    68    53    68    1
    69    53    69    1
    70    54    55    1
    71    54    70    1
    72    54    71    1
    73    55    56    1
    74    55    72    1
    75    55    73    1
    76    56    57    1
    77    56    74    1
    78    56    75    1
    79    57    76    1
    80    57    77    1
    81    58    59    1
    82    58    63    1
    83    59    60    1
    84    59    78    1
    85    59    79    1
    86    60    61    1
    87    60    80    1
    88    60    81    1
    89    61    62    1
    90    61    82    1
    91    61    83    1
    92    62    63    1
    93    62    84    1
    94    62    85    1
    95    63    86    1
    96    63    87    1
    97    88    89    1
    98    88    90    1
    99    91    92    1
   100    91    93    1
@<TRIPOS>SUBSTRUCTURE
     1 RES1       93 GROUP             0 ****  ****    0  
