@<TRIPOS>MOLECULE
ICIGOT_geomtry_0_nunpairedes_0_charge_3 Charge: 3 Unpaired_Electrons: 5 XTB_Unpaired_Electrons: 0 XTB_Charge: 3
   245   248     1     0     0
SMALL
NoCharges
****
Generated from Architector

@<TRIPOS>ATOM
     1 Dy1      -0.0994    0.0619    0.0909   Dy        1 RES1   0.0000
     2 C1       -6.4532   -0.2095   -2.7269   C.3       1 RES1   0.0000
     3 C2       -5.6896   -1.5040   -2.4596   C.3       1 RES1   0.0000
     4 C3       -4.2038   -1.3374   -2.7773   C.3       1 RES1   0.0000
     5 C4       -3.3332   -2.5875   -2.6175   C.3       1 RES1   0.0000
     6 N1       -3.2018   -3.0399   -1.2367   N.am      1 RES1   0.0000
     7 C5       -3.6028   -4.4076   -0.9641   C.3       1 RES1   0.0000
     8 C6       -5.1128   -4.6263   -0.9736   C.3       1 RES1   0.0000
     9 C7       -5.8362   -4.0403    0.2404   C.3       1 RES1   0.0000
    10 C8       -7.3410   -4.2557    0.1083   C.3       1 RES1   0.0000
    11 C9       -2.5022   -2.2825   -0.3976   C.2       1 RES1   0.0000
    12 O1       -1.8828   -1.2788   -0.7807   O.2       1 RES1   0.0000
    13 C10      -2.5101   -2.7067    1.0749   C.3       1 RES1   0.0000
    14 C11      -2.2531   -1.5115    1.9938   C.2       1 RES1   0.0000
    15 O2       -1.7040   -0.4770    1.5799   O.2       1 RES1   0.0000
    16 N2       -2.6217   -1.6140    3.2648   N.am      1 RES1   0.0000
    17 C12      -3.0106   -2.8561    3.8934   C.3       1 RES1   0.0000
    18 C13      -1.7734   -3.7035    4.2190   C.3       1 RES1   0.0000
    19 C14      -2.1201   -4.9813    4.9874   C.3       1 RES1   0.0000
    20 C15      -2.8952   -5.9956    4.1514   C.3       1 RES1   0.0000
    21 C16      -2.3824   -0.4468    4.1059   C.3       1 RES1   0.0000
    22 C17      -3.3467    0.7031    3.7908   C.3       1 RES1   0.0000
    23 C18      -4.8200    0.3703    4.0442   C.3       1 RES1   0.0000
    24 C19      -5.1402    0.1316    5.5170   C.3       1 RES1   0.0000
    25 H1       -7.5025   -0.3402   -2.4818   H         1 RES1   0.0000
    26 H2       -6.3822    0.0707   -3.7745   H         1 RES1   0.0000
    27 H3       -6.0593    0.6034   -2.1205   H         1 RES1   0.0000
    28 H4       -6.1088   -2.2943   -3.0860   H         1 RES1   0.0000
    29 H5       -5.8221   -1.7756   -1.4113   H         1 RES1   0.0000
    30 H6       -3.7921   -0.5526   -2.1403   H         1 RES1   0.0000
    31 H7       -4.1166   -1.0274   -3.8217   H         1 RES1   0.0000
    32 H8       -2.3329   -2.3504   -2.9909   H         1 RES1   0.0000
    33 H9       -3.7370   -3.4018   -3.2155   H         1 RES1   0.0000
    34 H10      -3.1865   -4.7394   -0.0173   H         1 RES1   0.0000
    35 H11      -3.1492   -5.0212   -1.7440   H         1 RES1   0.0000
    36 H12      -5.2973   -5.7006   -1.0125   H         1 RES1   0.0000
    37 H13      -5.5346   -4.1923   -1.8787   H         1 RES1   0.0000
    38 H14      -5.6283   -2.9667    0.3225   H         1 RES1   0.0000
    39 H15      -5.4825   -4.5281    1.1552   H         1 RES1   0.0000
    40 H16      -7.7211   -3.7553   -0.7789   H         1 RES1   0.0000
    41 H17      -7.8630   -3.8647    0.9765   H         1 RES1   0.0000
    42 H18      -7.5586   -5.3166    0.0221   H         1 RES1   0.0000
    43 H19      -1.7263   -3.4585    1.2203   H         1 RES1   0.0000
    44 H20      -3.4703   -3.1574    1.3220   H         1 RES1   0.0000
    45 H21      -3.6818   -3.4217    3.2500   H         1 RES1   0.0000
    46 H22      -3.5604   -2.6233    4.8034   H         1 RES1   0.0000
    47 H23      -1.0712   -3.1084    4.8091   H         1 RES1   0.0000
    48 H24      -1.2666   -3.9841    3.2911   H         1 RES1   0.0000
    49 H25      -2.6989   -4.7273    5.8762   H         1 RES1   0.0000
    50 H26      -1.1901   -5.4443    5.3241   H         1 RES1   0.0000
    51 H27      -3.8690   -5.6094    3.8616   H         1 RES1   0.0000
    52 H28      -3.0565   -6.8955    4.7368   H         1 RES1   0.0000
    53 H29      -2.3403   -6.2712    3.2555   H         1 RES1   0.0000
    54 H30      -1.3632   -0.0939    3.9185   H         1 RES1   0.0000
    55 H31      -2.4727   -0.7484    5.1467   H         1 RES1   0.0000
    56 H32      -3.2110    0.9884    2.7442   H         1 RES1   0.0000
    57 H33      -3.0626    1.5569    4.4120   H         1 RES1   0.0000
    58 H34      -5.1118   -0.5043    3.4558   H         1 RES1   0.0000
    59 H35      -5.4175    1.2138    3.6910   H         1 RES1   0.0000
    60 H36      -4.6309   -0.7465    5.9082   H         1 RES1   0.0000
    61 H37      -6.2085   -0.0193    5.6402   H         1 RES1   0.0000
    62 H38      -4.8479    0.9936    6.1112   H         1 RES1   0.0000
    63 C20       4.7289   -5.7230   -3.3090   C.3       1 RES1   0.0000
    64 C21       3.2830   -5.2367   -3.2699   C.3       1 RES1   0.0000
    65 C22       3.1646   -3.8141   -3.8258   C.3       1 RES1   0.0000
    66 C23       1.7451   -3.2543   -3.6662   C.3       1 RES1   0.0000
    67 N3        1.6840   -1.8213   -3.9576   N.am      1 RES1   0.0000
    68 C24       2.2274   -1.4047   -5.2459   C.3       1 RES1   0.0000
    69 C25       1.7438   -2.2303   -6.4427   C.3       1 RES1   0.0000
    70 C26       0.2898   -1.9862   -6.8544   C.3       1 RES1   0.0000
    71 C27      -0.7669   -2.4899   -5.8742   C.3       1 RES1   0.0000
    72 C28       1.2196   -1.0003   -3.0207   C.2       1 RES1   0.0000
    73 O3        0.6704   -1.4070   -1.9803   O.2       1 RES1   0.0000
    74 C29       1.4220    0.5163   -3.1627   C.3       1 RES1   0.0000
    75 C30       0.0473    1.1784   -3.1347   C.2       1 RES1   0.0000
    76 O4       -0.6431    0.9796   -2.1163   O.2       1 RES1   0.0000
    77 N4       -0.3939    1.9493   -4.1310   N.am      1 RES1   0.0000
    78 C31       0.4838    2.6618   -5.0534   C.3       1 RES1   0.0000
    79 C32       0.3730    2.2481   -6.5237   C.3       1 RES1   0.0000
    80 C33      -0.8432    2.7931   -7.2814   C.3       1 RES1   0.0000
    81 C34      -0.9172    4.3152   -7.3583   C.3       1 RES1   0.0000
    82 C35      -1.7271    2.5413   -3.9388   C.3       1 RES1   0.0000
    83 C36      -2.9090    1.5668   -3.9854   C.3       1 RES1   0.0000
    84 C37      -3.5576    1.3109   -5.3492   C.3       1 RES1   0.0000
    85 C38      -4.2796    2.5266   -5.9268   C.3       1 RES1   0.0000
    86 H39       4.8051   -6.7276   -2.9038   H         1 RES1   0.0000
    87 H40       5.3781   -5.0716   -2.7277   H         1 RES1   0.0000
    88 H41       5.0942   -5.7400   -4.3313   H         1 RES1   0.0000
    89 H42       2.9160   -5.2681   -2.2428   H         1 RES1   0.0000
    90 H43       2.6640   -5.9114   -3.8648   H         1 RES1   0.0000
    91 H44       3.4531   -3.8461   -4.8766   H         1 RES1   0.0000
    92 H45       3.8791   -3.1656   -3.3133   H         1 RES1   0.0000
    93 H46       1.3826   -3.3803   -2.6419   H         1 RES1   0.0000
    94 H47       1.0571   -3.8053   -4.3088   H         1 RES1   0.0000
    95 H48       3.3193   -1.4518   -5.2034   H         1 RES1   0.0000
    96 H49       1.9549   -0.3726   -5.4483   H         1 RES1   0.0000
    97 H50       1.9028   -3.2931   -6.2795   H         1 RES1   0.0000
    98 H51       2.3789   -1.9436   -7.2831   H         1 RES1   0.0000
    99 H52       0.1394   -2.4984   -7.8056   H         1 RES1   0.0000
   100 H53       0.1351   -0.9185   -7.0324   H         1 RES1   0.0000
   101 H54      -0.6635   -3.5609   -5.7146   H         1 RES1   0.0000
   102 H55      -1.7533   -2.3162   -6.2955   H         1 RES1   0.0000
   103 H56      -0.7133   -1.9777   -4.9148   H         1 RES1   0.0000
   104 H57       2.0552    0.7924   -3.9974   H         1 RES1   0.0000
   105 H58       1.9019    0.7863   -2.2073   H         1 RES1   0.0000
   106 H59       1.5173    2.5550   -4.7240   H         1 RES1   0.0000
   107 H60       0.2367    3.7210   -4.9639   H         1 RES1   0.0000
   108 H61       0.3565    1.1582   -6.5773   H         1 RES1   0.0000
   109 H62       1.2748    2.5968   -7.0289   H         1 RES1   0.0000
   110 H63      -1.7567    2.4072   -6.8365   H         1 RES1   0.0000
   111 H64      -0.7916    2.4080   -8.3015   H         1 RES1   0.0000
   112 H65      -1.0481    4.7772   -6.3810   H         1 RES1   0.0000
   113 H66      -1.7681    4.6047   -7.9685   H         1 RES1   0.0000
   114 H67      -0.0195    4.7236   -7.8130   H         1 RES1   0.0000
   115 H68      -1.8632    3.3254   -4.6785   H         1 RES1   0.0000
   116 H69      -1.7190    2.9819   -2.9389   H         1 RES1   0.0000
   117 H70      -3.6827    1.9710   -3.3291   H         1 RES1   0.0000
   118 H71      -2.5736    0.6243   -3.5598   H         1 RES1   0.0000
   119 H72      -4.2990    0.5178   -5.2175   H         1 RES1   0.0000
   120 H73      -2.8161    0.9339   -6.0562   H         1 RES1   0.0000
   121 H74      -5.0711    2.8571   -5.2588   H         1 RES1   0.0000
   122 H75      -4.7316    2.2565   -6.8769   H         1 RES1   0.0000
   123 H76      -3.6121    3.3672   -6.1003   H         1 RES1   0.0000
   124 C39      -0.3928    3.8472    5.4947   C.3       1 RES1   0.0000
   125 C40       0.5023    4.2645    4.3314   C.3       1 RES1   0.0000
   126 C41       1.3862    3.1093    3.8644   C.3       1 RES1   0.0000
   127 C42       2.4071    3.4273    2.7675   C.3       1 RES1   0.0000
   128 N5        1.8017    3.9512    1.5428   N.am      1 RES1   0.0000
   129 C43       2.3153    5.2560    1.1302   C.3       1 RES1   0.0000
   130 C44       2.0237    6.4074    2.0872   C.3       1 RES1   0.0000
   131 C45       0.5780    6.8994    2.0381   C.3       1 RES1   0.0000
   132 C46       0.3169    7.8783    3.1772   C.3       1 RES1   0.0000
   133 C47       1.2506    3.0799    0.7005   C.2       1 RES1   0.0000
   134 O5        1.3308    1.8400    0.8361   O.2       1 RES1   0.0000
   135 C48       0.4235    3.5804   -0.4686   C.3       1 RES1   0.0000
   136 C49      -1.0421    3.1945   -0.2033   C.2       1 RES1   0.0000
   137 O6       -1.3039    2.0672    0.2502   O.2       1 RES1   0.0000
   138 N6       -1.9851    4.0621   -0.5464   N.am      1 RES1   0.0000
   139 C50      -1.7115    5.4335   -0.9540   C.3       1 RES1   0.0000
   140 C51      -1.2593    5.5475   -2.4158   C.3       1 RES1   0.0000
   141 C52      -0.8215    6.9673   -2.7895   C.3       1 RES1   0.0000
   142 C53       0.4639    7.4295   -2.1092   C.3       1 RES1   0.0000
   143 C54      -3.3639    3.5876   -0.6405   C.3       1 RES1   0.0000
   144 C55      -4.2211    3.8393    0.6037   C.3       1 RES1   0.0000
   145 C56      -4.5883    5.3025    0.8829   C.3       1 RES1   0.0000
   146 C57      -5.4215    5.9513   -0.2207   C.3       1 RES1   0.0000
   147 H77      -1.0210    4.6784    5.8005   H         1 RES1   0.0000
   148 H78       0.2056    3.5461    6.3499   H         1 RES1   0.0000
   149 H79      -1.0382    3.0207    5.2073   H         1 RES1   0.0000
   150 H80       1.1282    5.0940    4.6634   H         1 RES1   0.0000
   151 H81      -0.1304    4.5971    3.5077   H         1 RES1   0.0000
   152 H82       0.7458    2.3024    3.5040   H         1 RES1   0.0000
   153 H83       1.9564    2.7663    4.7295   H         1 RES1   0.0000
   154 H84       2.9360    2.5051    2.5081   H         1 RES1   0.0000
   155 H85       3.1343    4.1468    3.1393   H         1 RES1   0.0000
   156 H86       1.9500    5.5171    0.1408   H         1 RES1   0.0000
   157 H87       3.3986    5.1311    1.0546   H         1 RES1   0.0000
   158 H88       2.6902    7.2332    1.8346   H         1 RES1   0.0000
   159 H89       2.2656    6.1199    3.1084   H         1 RES1   0.0000
   160 H90      -0.1000    6.0441    2.1178   H         1 RES1   0.0000
   161 H91       0.3865    7.4001    1.0838   H         1 RES1   0.0000
   162 H92       0.4583    7.3932    4.1393   H         1 RES1   0.0000
   163 H93      -0.6968    8.2631    3.1340   H         1 RES1   0.0000
   164 H94       1.0070    8.7144    3.1130   H         1 RES1   0.0000
   165 H95       0.7240    2.9833   -1.3386   H         1 RES1   0.0000
   166 H96       0.5440    4.6329   -0.6821   H         1 RES1   0.0000
   167 H97      -0.9669    5.8685   -0.2865   H         1 RES1   0.0000
   168 H98      -2.6218    6.0142   -0.8186   H         1 RES1   0.0000
   169 H99      -2.0858    5.2623   -3.0690   H         1 RES1   0.0000
   170 H100     -0.4296    4.8629   -2.6090   H         1 RES1   0.0000
   171 H101     -1.6244    7.6661   -2.5536   H         1 RES1   0.0000
   172 H102     -0.6667    6.9973   -3.8695   H         1 RES1   0.0000
   173 H103      0.3322    7.5392   -1.0352   H         1 RES1   0.0000
   174 H104      0.7438    8.4010   -2.5051   H         1 RES1   0.0000
   175 H105      1.2862    6.7410   -2.3029   H         1 RES1   0.0000
   176 H106     -3.3242    2.5088   -0.8222   H         1 RES1   0.0000
   177 H107     -3.8218    4.0728   -1.5025   H         1 RES1   0.0000
   178 H108     -3.7052    3.4251    1.4719   H         1 RES1   0.0000
   179 H109     -5.1466    3.2759    0.4630   H         1 RES1   0.0000
   180 H110     -3.6905    5.8952    1.0758   H         1 RES1   0.0000
   181 H111     -5.1762    5.3160    1.8032   H         1 RES1   0.0000
   182 H112     -4.8872    6.0210   -1.1670   H         1 RES1   0.0000
   183 H113     -5.6983    6.9584    0.0777   H         1 RES1   0.0000
   184 H114     -6.3350    5.3864   -0.3861   H         1 RES1   0.0000
   185 C58       5.1068   -3.6298    6.0842   C.3       1 RES1   0.0000
   186 C59       4.7153   -3.7466    4.6164   C.3       1 RES1   0.0000
   187 C60       3.9425   -2.5197    4.1336   C.3       1 RES1   0.0000
   188 C61       2.5623   -2.4131    4.7899   C.3       1 RES1   0.0000
   189 N7        1.8518   -1.2776    4.2351   N.am      1 RES1   0.0000
   190 C62       2.0984    0.0019    4.8907   C.3       1 RES1   0.0000
   191 C63       0.9174    0.4695    5.7452   C.3       1 RES1   0.0000
   192 C64       0.3755   -0.5865    6.7090   C.3       1 RES1   0.0000
   193 C65      -0.7296   -0.0045    7.5865   C.3       1 RES1   0.0000
   194 C66       1.2663   -1.2670    3.0423   C.2       1 RES1   0.0000
   195 O7        0.7701   -0.2458    2.5403   O.2       1 RES1   0.0000
   196 C67       1.1673   -2.5724    2.2565   C.3       1 RES1   0.0000
   197 C68       2.0069   -2.4064    0.9933   C.2       1 RES1   0.0000
   198 O8        1.8477   -1.3706    0.3174   O.2       1 RES1   0.0000
   199 N8        2.8929   -3.3430    0.6678   N.am      1 RES1   0.0000
   200 C69       2.9729   -4.6631    1.2866   C.3       1 RES1   0.0000
   201 C70       1.7025   -5.5234    1.2170   C.3       1 RES1   0.0000
   202 C71       1.1962   -5.8173   -0.1963   C.3       1 RES1   0.0000
   203 C72      -0.1326   -6.5709   -0.1624   C.3       1 RES1   0.0000
   204 C73       3.6774   -3.1132   -0.5456   C.3       1 RES1   0.0000
   205 C74       4.5921   -1.8858   -0.5215   C.3       1 RES1   0.0000
   206 C75       5.8469   -2.0161    0.3419   C.3       1 RES1   0.0000
   207 C76       6.7295   -0.7800    0.1792   C.3       1 RES1   0.0000
   208 H115      5.7139   -4.4790    6.3801   H         1 RES1   0.0000
   209 H116      4.2250   -3.6099    6.7185   H         1 RES1   0.0000
   210 H117      5.6798   -2.7210    6.2479   H         1 RES1   0.0000
   211 H118      4.1081   -4.6450    4.4741   H         1 RES1   0.0000
   212 H119      5.6162   -3.8574    4.0108   H         1 RES1   0.0000
   213 H120      3.8102   -2.5535    3.0485   H         1 RES1   0.0000
   214 H121      4.5237   -1.6226    4.3588   H         1 RES1   0.0000
   215 H122      2.6609   -2.2659    5.8639   H         1 RES1   0.0000
   216 H123      2.0022   -3.3425    4.6695   H         1 RES1   0.0000
   217 H124      2.2865    0.7336    4.1028   H         1 RES1   0.0000
   218 H125      2.9901   -0.0879    5.5108   H         1 RES1   0.0000
   219 H126      0.1119    0.7946    5.0851   H         1 RES1   0.0000
   220 H127      1.2447    1.3315    6.3296   H         1 RES1   0.0000
   221 H128      1.1796   -0.9475    7.3533   H         1 RES1   0.0000
   222 H129     -0.0159   -1.4397    6.1457   H         1 RES1   0.0000
   223 H130     -0.3349    0.8039    8.1943   H         1 RES1   0.0000
   224 H131     -1.1300   -0.7639    8.2516   H         1 RES1   0.0000
   225 H132     -1.5438    0.3926    6.9845   H         1 RES1   0.0000
   226 H133      0.1248   -2.6389    1.9245   H         1 RES1   0.0000
   227 H134      1.4627   -3.4287    2.8462   H         1 RES1   0.0000
   228 H135      3.2859   -4.5743    2.3272   H         1 RES1   0.0000
   229 H136      3.7675   -5.2016    0.7749   H         1 RES1   0.0000
   230 H137      0.8854   -5.0739    1.7822   H         1 RES1   0.0000
   231 H138      1.9434   -6.4731    1.6981   H         1 RES1   0.0000
   232 H139      1.9264   -6.4321   -0.7272   H         1 RES1   0.0000
   233 H140      1.0603   -4.8775   -0.7421   H         1 RES1   0.0000
   234 H141     -0.0156   -7.5147    0.3630   H         1 RES1   0.0000
   235 H142     -0.4732   -6.7845   -1.1723   H         1 RES1   0.0000
   236 H143     -0.9027   -5.9883    0.3428   H         1 RES1   0.0000
   237 H144      2.9699   -2.9774   -1.3623   H         1 RES1   0.0000
   238 H145      4.2756   -4.0004   -0.7402   H         1 RES1   0.0000
   239 H146      4.0139   -1.0192   -0.1984   H         1 RES1   0.0000
   240 H147      4.9079   -1.7087   -1.5544   H         1 RES1   0.0000
   241 H148      6.4128   -2.9015    0.0420   H         1 RES1   0.0000
   242 H149      5.5734   -2.1295    1.3942   H         1 RES1   0.0000
   243 H150      7.0208   -0.6543   -0.8614   H         1 RES1   0.0000
   244 H151      7.6328   -0.8778    0.7735   H         1 RES1   0.0000
   245 H152      6.1985    0.1157    0.4974   H         1 RES1   0.0000
@<TRIPOS>BOND
     1     1    12    1
     2     1    15    1
     3     1    73    1
     4     1    76    1
     5     1   134    1
     6     1   137    1
     7     1   195    1
     8     1   198    1
     9     2     3    1
    10     2    25    1
    11     2    26    1
    12     2    27    1
    13     3     4    1
    14     3    28    1
    15     3    29    1
    16     4     5    1
    17     4    30    1
    18     4    31    1
    19     5     6    1
    20     5    32    1
    21     5    33    1
    22     6     7    1
    23     6    11    1
    24     7     8    1
    25     7    34    1
    26     7    35    1
    27     8     9    1
    28     8    36    1
    29     8    37    1
    30     9    10    1
    31     9    38    1
    32     9    39    1
    33    10    40    1
    34    10    41    1
    35    10    42    1
    36    11    12    2
    37    11    13    1
    38    13    14    1
    39    13    43    1
    40    13    44    1
    41    14    15    2
    42    14    16    1
    43    16    17    1
    44    16    21    1
    45    17    18    1
    46    17    45    1
    47    17    46    1
    48    18    19    1
    49    18    47    1
    50    18    48    1
    51    19    20    1
    52    19    49    1
    53    19    50    1
    54    20    51    1
    55    20    52    1
    56    20    53    1
    57    21    22    1
    58    21    54    1
    59    21    55    1
    60    22    23    1
    61    22    56    1
    62    22    57    1
    63    23    24    1
    64    23    58    1
    65    23    59    1
    66    24    60    1
    67    24    61    1
    68    24    62    1
    69    63    64    1
    70    63    86    1
    71    63    87    1
    72    63    88    1
    73    64    65    1
    74    64    89    1
    75    64    90    1
    76    65    66    1
    77    65    91    1
    78    65    92    1
    79    66    67    1
    80    66    93    1
    81    66    94    1
    82    67    68    1
    83    67    72    1
    84    68    69    1
    85    68    95    1
    86    68    96    1
    87    69    70    1
    88    69    97    1
    89    69    98    1
    90    70    71    1
    91    70    99    1
    92    70   100    1
    93    71   101    1
    94    71   102    1
    95    71   103    1
    96    72    73    2
    97    72    74    1
    98    74    75    1
    99    74   104    1
   100    74   105    1
   101    75    76    2
   102    75    77    1
   103    77    78    1
   104    77    82    1
   105    78    79    1
   106    78   106    1
   107    78   107    1
   108    79    80    1
   109    79   108    1
   110    79   109    1
   111    80    81    1
   112    80   110    1
   113    80   111    1
   114    81   112    1
   115    81   113    1
   116    81   114    1
   117    82    83    1
   118    82   115    1
   119    82   116    1
   120    83    84    1
   121    83   117    1
   122    83   118    1
   123    84    85    1
   124    84   119    1
   125    84   120    1
   126    85   121    1
   127    85   122    1
   128    85   123    1
   129   124   125    1
   130   124   147    1
   131   124   148    1
   132   124   149    1
   133   125   126    1
   134   125   150    1
   135   125   151    1
   136   126   127    1
   137   126   152    1
   138   126   153    1
   139   127   128    1
   140   127   154    1
   141   127   155    1
   142   128   129    1
   143   128   133    1
   144   129   130    1
   145   129   156    1
   146   129   157    1
   147   130   131    1
   148   130   158    1
   149   130   159    1
   150   131   132    1
   151   131   160    1
   152   131   161    1
   153   132   162    1
   154   132   163    1
   155   132   164    1
   156   133   134    2
   157   133   135    1
   158   135   136    1
   159   135   165    1
   160   135   166    1
   161   136   137    2
   162   136   138    1
   163   138   139    1
   164   138   143    1
   165   139   140    1
   166   139   167    1
   167   139   168    1
   168   140   141    1
   169   140   169    1
   170   140   170    1
   171   141   142    1
   172   141   171    1
   173   141   172    1
   174   142   173    1
   175   142   174    1
   176   142   175    1
   177   143   144    1
   178   143   176    1
   179   143   177    1
   180   144   145    1
   181   144   178    1
   182   144   179    1
   183   145   146    1
   184   145   180    1
   185   145   181    1
   186   146   182    1
   187   146   183    1
   188   146   184    1
   189   185   186    1
   190   185   208    1
   191   185   209    1
   192   185   210    1
   193   186   187    1
   194   186   211    1
   195   186   212    1
   196   187   188    1
   197   187   213    1
   198   187   214    1
   199   188   189    1
   200   188   215    1
   201   188   216    1
   202   189   190    1
   203   189   194    1
   204   190   191    1
   205   190   217    1
   206   190   218    1
   207   191   192    1
   208   191   219    1
   209   191   220    1
   210   192   193    1
   211   192   221    1
   212   192   222    1
   213   193   223    1
   214   193   224    1
   215   193   225    1
   216   194   195    2
   217   194   196    1
   218   196   197    1
   219   196   226    1
   220   196   227    1
   221   197   198    2
   222   197   199    1
   223   199   200    1
   224   199   204    1
   225   200   201    1
   226   200   228    1
   227   200   229    1
   228   201   202    1
   229   201   230    1
   230   201   231    1
   231   202   203    1
   232   202   232    1
   233   202   233    1
   234   203   234    1
   235   203   235    1
   236   203   236    1
   237   204   205    1
   238   204   237    1
   239   204   238    1
   240   205   206    1
   241   205   239    1
   242   205   240    1
   243   206   207    1
   244   206   241    1
   245   206   242    1
   246   207   243    1
   247   207   244    1
   248   207   245    1
@<TRIPOS>SUBSTRUCTURE
     1 RES1      245 GROUP             0 ****  ****    0  
