@<TRIPOS>MOLECULE
ICIGOT_geomtry_0_nunpairedes_0_charge_2 Charge: 2 Unpaired_Electrons: 5 XTB_Unpaired_Electrons: 0 XTB_Charge: 2
   183   187     1     0     0
SMALL
NoCharges
****
Generated from Architector

@<TRIPOS>ATOM
     1 Dy1      -0.1713   -0.0750   -0.2784   Dy        1 RES1   0.0000
     2 C1       -1.0678    1.7985   -3.7699   C.3       1 RES1   0.0000
     3 C2       -0.9791    3.2694   -4.1621   C.3       1 RES1   0.0000
     4 C3       -1.7463    4.1986   -3.2274   C.3       1 RES1   0.0000
     5 C4       -3.2362    3.8671   -3.1512   C.3       1 RES1   0.0000
     6 C5       -3.5741    2.8540   -2.0609   C.3       1 RES1   0.0000
     7 C6       -3.4204    3.4814   -0.6784   C.3       1 RES1   0.0000
     8 N1       -3.5882    2.5159    0.4034   N.am      1 RES1   0.0000
     9 C7       -4.8643    2.5590    1.1022   C.3       1 RES1   0.0000
    10 C8       -6.0549    2.0417    0.2898   C.3       1 RES1   0.0000
    11 C9       -6.1270    0.5220    0.1269   C.3       1 RES1   0.0000
    12 C10      -5.2776   -0.0567   -1.0069   C.3       1 RES1   0.0000
    13 C11      -5.4829   -1.5648   -1.1496   C.3       1 RES1   0.0000
    14 C12      -4.7069   -2.1357   -2.3271   C.3       1 RES1   0.0000
    15 C13      -2.5981    1.6845    0.6600   C.2       1 RES1   0.0000
    16 O1       -1.5226    1.6878    0.0170   O.2       1 RES1   0.0000
    17 C14      -2.7515    0.6787    1.8109   C.3       1 RES1   0.0000
    18 O2       -1.5908   -0.1383    1.8994   O.3       1 RES1   0.0000
    19 C15      -0.9083   -0.1365    3.1475   C.3       1 RES1   0.0000
    20 C16       0.5094    0.4627    2.9861   C.2       1 RES1   0.0000
    21 O3        0.8654    0.7248    1.8195   O.2       1 RES1   0.0000
    22 N2        1.2558    0.6503    4.0737   N.am      1 RES1   0.0000
    23 C17       0.7260    0.4815    5.4361   C.3       1 RES1   0.0000
    24 C18       1.5430   -0.3963    6.3910   C.3       1 RES1   0.0000
    25 C19       1.3921   -1.8981    6.1692   C.3       1 RES1   0.0000
    26 C20      -0.0018   -2.4593    6.4677   C.3       1 RES1   0.0000
    27 C21      -0.0128   -3.9906    6.4791   C.3       1 RES1   0.0000
    28 C22      -1.4110   -4.5675    6.6515   C.3       1 RES1   0.0000
    29 C23       2.4974    1.4493    4.0654   C.3       1 RES1   0.0000
    30 C24       3.5195    1.2142    2.9533   C.3       1 RES1   0.0000
    31 C25       4.4326    0.0028    3.1561   C.3       1 RES1   0.0000
    32 C26       5.4411    0.1622    4.3033   C.3       1 RES1   0.0000
    33 C27       6.7562   -0.5802    4.0417   C.3       1 RES1   0.0000
    34 C28       6.5856   -2.0871    3.9071   C.3       1 RES1   0.0000
    35 H1       -0.3918    1.2176   -4.3853   H         1 RES1   0.0000
    36 H2       -2.0667    1.4098   -3.9444   H         1 RES1   0.0000
    37 H3       -0.8054    1.6588   -2.7098   H         1 RES1   0.0000
    38 H4       -1.3694    3.3795   -5.1742   H         1 RES1   0.0000
    39 H5        0.0684    3.5844   -4.1676   H         1 RES1   0.0000
    40 H6       -1.6241    5.2228   -3.5805   H         1 RES1   0.0000
    41 H7       -1.2893    4.1489   -2.2370   H         1 RES1   0.0000
    42 H8       -3.5666    3.4675   -4.1098   H         1 RES1   0.0000
    43 H9       -3.8105    4.7761   -2.9655   H         1 RES1   0.0000
    44 H10      -2.9238    1.9837   -2.1135   H         1 RES1   0.0000
    45 H11      -4.5973    2.5135   -2.2041   H         1 RES1   0.0000
    46 H12      -4.1510    4.2775   -0.5429   H         1 RES1   0.0000
    47 H13      -2.4180    3.9078   -0.5887   H         1 RES1   0.0000
    48 H14      -5.0531    3.6074    1.3466   H         1 RES1   0.0000
    49 H15      -4.7883    2.0098    2.0389   H         1 RES1   0.0000
    50 H16      -6.0859    2.5252   -0.6855   H         1 RES1   0.0000
    51 H17      -6.9442    2.3666    0.8288   H         1 RES1   0.0000
    52 H18      -7.1667    0.2629   -0.0809   H         1 RES1   0.0000
    53 H19      -5.8698    0.0437    1.0763   H         1 RES1   0.0000
    54 H20      -4.2120    0.1343   -0.8494   H         1 RES1   0.0000
    55 H21      -5.5710    0.4204   -1.9444   H         1 RES1   0.0000
    56 H22      -6.5471   -1.7700   -1.2775   H         1 RES1   0.0000
    57 H23      -5.1555   -2.0543   -0.2320   H         1 RES1   0.0000
    58 H24      -5.0387   -1.6935   -3.2608   H         1 RES1   0.0000
    59 H25      -4.8474   -3.2100   -2.3914   H         1 RES1   0.0000
    60 H26      -3.6473   -1.9320   -2.2141   H         1 RES1   0.0000
    61 H27      -3.6084    0.0269    1.6000   H         1 RES1   0.0000
    62 H28      -2.9109    1.2203    2.7498   H         1 RES1   0.0000
    63 H29      -0.8214   -1.1787    3.4811   H         1 RES1   0.0000
    64 H30      -1.4788    0.4459    3.8764   H         1 RES1   0.0000
    65 H31      -0.2772    0.0717    5.3967   H         1 RES1   0.0000
    66 H32       0.6598    1.4806    5.8754   H         1 RES1   0.0000
    67 H33       1.2063   -0.1540    7.3983   H         1 RES1   0.0000
    68 H34       2.6023   -0.1463    6.3509   H         1 RES1   0.0000
    69 H35       2.0991   -2.3998    6.8313   H         1 RES1   0.0000
    70 H36       1.6731   -2.1228    5.1424   H         1 RES1   0.0000
    71 H37      -0.7225   -2.1110    5.7220   H         1 RES1   0.0000
    72 H38      -0.3397   -2.0997    7.4419   H         1 RES1   0.0000
    73 H39       0.6331   -4.3470    7.2828   H         1 RES1   0.0000
    74 H40       0.4030   -4.3627    5.5394   H         1 RES1   0.0000
    75 H41      -1.8342   -4.2740    7.6061   H         1 RES1   0.0000
    76 H42      -1.3762   -5.6519    6.6166   H         1 RES1   0.0000
    77 H43      -2.0758   -4.2254    5.8614   H         1 RES1   0.0000
    78 H44       2.9859    1.2472    5.0162   H         1 RES1   0.0000
    79 H45       2.2100    2.5078    4.0540   H         1 RES1   0.0000
    80 H46       4.1413    2.1122    2.9239   H         1 RES1   0.0000
    81 H47       2.9984    1.1355    2.0007   H         1 RES1   0.0000
    82 H48       5.0006   -0.1380    2.2332   H         1 RES1   0.0000
    83 H49       3.8284   -0.8909    3.3195   H         1 RES1   0.0000
    84 H50       5.0191   -0.1992    5.2440   H         1 RES1   0.0000
    85 H51       5.6757    1.2208    4.4345   H         1 RES1   0.0000
    86 H52       7.4387   -0.3731    4.8679   H         1 RES1   0.0000
    87 H53       7.2171   -0.1874    3.1324   H         1 RES1   0.0000
    88 H54       6.1214   -2.4999    4.7979   H         1 RES1   0.0000
    89 H55       7.5511   -2.5671    3.7791   H         1 RES1   0.0000
    90 H56       5.9700   -2.3359    3.0462   H         1 RES1   0.0000
    91 C29      -1.7374    2.9415   -8.1314   C.3       1 RES1   0.0000
    92 C30      -0.9755    1.7488   -7.5686   C.3       1 RES1   0.0000
    93 C31       0.4854    2.0992   -7.2775   C.3       1 RES1   0.0000
    94 C32       1.2206    0.9603   -6.5536   C.3       1 RES1   0.0000
    95 C33       2.1219    1.4315   -5.4023   C.3       1 RES1   0.0000
    96 C34       2.3669    0.2589   -4.4545   C.3       1 RES1   0.0000
    97 N3        3.0653    0.4919   -3.1900   N.am      1 RES1   0.0000
    98 C35       4.4786    0.8097   -3.2371   C.3       1 RES1   0.0000
    99 C36       4.7160    2.3183   -3.3982   C.3       1 RES1   0.0000
   100 C37       4.1098    3.1916   -2.2917   C.3       1 RES1   0.0000
   101 C38       5.1384    3.8058   -1.3370   C.3       1 RES1   0.0000
   102 C39       5.7314    2.8377   -0.3072   C.3       1 RES1   0.0000
   103 C40       6.9636    2.0817   -0.7887   C.3       1 RES1   0.0000
   104 C41       2.4099    0.3768   -2.0399   C.2       1 RES1   0.0000
   105 O4        1.1866    0.5966   -1.9173   O.2       1 RES1   0.0000
   106 C42       3.1292   -0.2165   -0.8015   C.3       1 RES1   0.0000
   107 O5        2.1181   -0.8342    0.0032   O.3       1 RES1   0.0000
   108 C43       2.2958   -2.2138    0.3186   C.3       1 RES1   0.0000
   109 C44       0.9716   -2.6900    0.9524   C.2       1 RES1   0.0000
   110 O6       -0.0346   -1.9749    0.7977   O.2       1 RES1   0.0000
   111 N4        0.9020   -3.8344    1.6195   N.am      1 RES1   0.0000
   112 C45      -0.3920   -4.2442    2.1681   C.3       1 RES1   0.0000
   113 C46      -0.9177   -5.5340    1.5456   C.3       1 RES1   0.0000
   114 C47      -2.1614   -6.0391    2.2858   C.3       1 RES1   0.0000
   115 C48      -3.4905   -5.5115    1.7440   C.3       1 RES1   0.0000
   116 C49      -3.8399   -4.0732    2.1302   C.3       1 RES1   0.0000
   117 C50      -5.3268   -3.8128    1.9112   C.3       1 RES1   0.0000
   118 C51       2.0657   -4.5388    2.1277   C.3       1 RES1   0.0000
   119 C52       2.4919   -3.8370    3.4190   C.3       1 RES1   0.0000
   120 C53       3.8175   -4.2747    4.0304   C.3       1 RES1   0.0000
   121 C54       3.7616   -5.6028    4.7892   C.3       1 RES1   0.0000
   122 C55       4.0436   -6.8409    3.9389   C.3       1 RES1   0.0000
   123 C56       5.4487   -6.8428    3.3523   C.3       1 RES1   0.0000
   124 H57      -2.7882    2.6956   -8.2528   H         1 RES1   0.0000
   125 H58      -1.6622    3.7968   -7.4622   H         1 RES1   0.0000
   126 H59      -1.3406    3.2352   -9.0985   H         1 RES1   0.0000
   127 H60      -1.4581    1.4233   -6.6441   H         1 RES1   0.0000
   128 H61      -1.0236    0.9147   -8.2697   H         1 RES1   0.0000
   129 H62       0.9903    2.3510   -8.2108   H         1 RES1   0.0000
   130 H63       0.4981    2.9981   -6.6605   H         1 RES1   0.0000
   131 H64       0.4761    0.2740   -6.1467   H         1 RES1   0.0000
   132 H65       1.8126    0.3860   -7.2663   H         1 RES1   0.0000
   133 H66       3.0532    1.8168   -5.8128   H         1 RES1   0.0000
   134 H67       1.6391    2.2401   -4.8567   H         1 RES1   0.0000
   135 H68       1.4034   -0.1814   -4.1854   H         1 RES1   0.0000
   136 H69       2.9626   -0.4993   -4.9736   H         1 RES1   0.0000
   137 H70       4.9621    0.4596   -2.3260   H         1 RES1   0.0000
   138 H71       4.9269    0.2988   -4.0901   H         1 RES1   0.0000
   139 H72       5.7953    2.4587   -3.4352   H         1 RES1   0.0000
   140 H73       4.3225    2.6352   -4.3611   H         1 RES1   0.0000
   141 H74       3.5662    4.0151   -2.7599   H         1 RES1   0.0000
   142 H75       3.3729    2.6238   -1.7106   H         1 RES1   0.0000
   143 H76       5.9462    4.2556   -1.9183   H         1 RES1   0.0000
   144 H77       4.6386    4.6140   -0.7975   H         1 RES1   0.0000
   145 H78       6.0190    3.4181    0.5716   H         1 RES1   0.0000
   146 H79       4.9572    2.1320    0.0112   H         1 RES1   0.0000
   147 H80       7.7157    2.7844   -1.1334   H         1 RES1   0.0000
   148 H81       7.3937    1.5064    0.0268   H         1 RES1   0.0000
   149 H82       6.7448    1.3987   -1.6034   H         1 RES1   0.0000
   150 H83       3.8686   -0.9565   -1.1228   H         1 RES1   0.0000
   151 H84       3.6064    0.5682   -0.1947   H         1 RES1   0.0000
   152 H85       2.4545   -2.8035   -0.5956   H         1 RES1   0.0000
   153 H86       3.1467   -2.3198    1.0013   H         1 RES1   0.0000
   154 H87      -0.2920   -4.3855    3.2476   H         1 RES1   0.0000
   155 H88      -1.0913   -3.4297    1.9814   H         1 RES1   0.0000
   156 H89      -1.1487   -5.3639    0.4945   H         1 RES1   0.0000
   157 H90      -0.1443   -6.3023    1.5873   H         1 RES1   0.0000
   158 H91      -2.1837   -7.1258    2.2075   H         1 RES1   0.0000
   159 H92      -2.0815   -5.7937    3.3479   H         1 RES1   0.0000
   160 H93      -3.5026   -5.6051    0.6565   H         1 RES1   0.0000
   161 H94      -4.2805   -6.1566    2.1317   H         1 RES1   0.0000
   162 H95      -3.6010   -3.9101    3.1846   H         1 RES1   0.0000
   163 H96      -3.2554   -3.3639    1.5362   H         1 RES1   0.0000
   164 H97      -5.9224   -4.4507    2.5582   H         1 RES1   0.0000
   165 H98      -5.5853   -2.7788    2.1287   H         1 RES1   0.0000
   166 H99      -5.6027   -4.0297    0.8828   H         1 RES1   0.0000
   167 H100      1.7788   -5.5698    2.3271   H         1 RES1   0.0000
   168 H101      2.8591   -4.5466    1.3817   H         1 RES1   0.0000
   169 H102      2.5308   -2.7626    3.2035   H         1 RES1   0.0000
   170 H103      1.7133   -4.0014    4.1638   H         1 RES1   0.0000
   171 H104      4.5831   -4.3222    3.2589   H         1 RES1   0.0000
   172 H105      4.1107   -3.4945    4.7341   H         1 RES1   0.0000
   173 H106      4.5052   -5.5719    5.5878   H         1 RES1   0.0000
   174 H107      2.7847   -5.7080    5.2676   H         1 RES1   0.0000
   175 H108      3.9291   -7.7141    4.5825   H         1 RES1   0.0000
   176 H109      3.3112   -6.9316    3.1353   H         1 RES1   0.0000
   177 H110      6.1835   -6.6914    4.1377   H         1 RES1   0.0000
   178 H111      5.6542   -7.7923    2.8685   H         1 RES1   0.0000
   179 H112      5.5745   -6.0575    2.6109   H         1 RES1   0.0000
   180 N5       -1.0056   -1.3002   -2.1838   N.3       1 RES1   0.0000
   181 O7       -1.3237   -1.3816   -3.3270   O.2       1 RES1   0.0000
   182 O8        0.0933   -1.7027   -1.7875   O.co2     1 RES1   0.0000
   183 O9       -1.7741   -0.8095   -1.3271   O.co2     1 RES1   0.0000
@<TRIPOS>BOND
     1     1    16    1
     2     1    18    1
     3     1    21    1
     4     1   105    1
     5     1   107    1
     6     1   110    1
     7     1   182    1
     8     1   183    1
     9     2     3    1
    10     2    35    1
    11     2    36    1
    12     2    37    1
    13     3     4    1
    14     3    38    1
    15     3    39    1
    16     4     5    1
    17     4    40    1
    18     4    41    1
    19     5     6    1
    20     5    42    1
    21     5    43    1
    22     6     7    1
    23     6    44    1
    24     6    45    1
    25     7     8    1
    26     7    46    1
    27     7    47    1
    28     8     9    1
    29     8    15    1
    30     9    10    1
    31     9    48    1
    32     9    49    1
    33    10    11    1
    34    10    50    1
    35    10    51    1
    36    11    12    1
    37    11    52    1
    38    11    53    1
    39    12    13    1
    40    12    54    1
    41    12    55    1
    42    13    14    1
    43    13    56    1
    44    13    57    1
    45    14    58    1
    46    14    59    1
    47    14    60    1
    48    15    16    2
    49    15    17    1
    50    17    18    1
    51    17    61    1
    52    17    62    1
    53    18    19    1
    54    19    20    1
    55    19    63    1
    56    19    64    1
    57    20    21    2
    58    20    22    1
    59    22    23    1
    60    22    29    1
    61    23    24    1
    62    23    65    1
    63    23    66    1
    64    24    25    1
    65    24    67    1
    66    24    68    1
    67    25    26    1
    68    25    69    1
    69    25    70    1
    70    26    27    1
    71    26    71    1
    72    26    72    1
    73    27    28    1
    74    27    73    1
    75    27    74    1
    76    28    75    1
    77    28    76    1
    78    28    77    1
    79    29    30    1
    80    29    78    1
    81    29    79    1
    82    30    31    1
    83    30    80    1
    84    30    81    1
    85    31    32    1
    86    31    82    1
    87    31    83    1
    88    32    33    1
    89    32    84    1
    90    32    85    1
    91    33    34    1
    92    33    86    1
    93    33    87    1
    94    34    88    1
    95    34    89    1
    96    34    90    1
    97    91    92    1
    98    91   124    1
    99    91   125    1
   100    91   126    1
   101    92    93    1
   102    92   127    1
   103    92   128    1
   104    93    94    1
   105    93   129    1
   106    93   130    1
   107    94    95    1
   108    94   131    1
   109    94   132    1
   110    95    96    1
   111    95   133    1
   112    95   134    1
   113    96    97    1
   114    96   135    1
   115    96   136    1
   116    97    98    1
   117    97   104    1
   118    98    99    1
   119    98   137    1
   120    98   138    1
   121    99   100    1
   122    99   139    1
   123    99   140    1
   124   100   101    1
   125   100   141    1
   126   100   142    1
   127   101   102    1
   128   101   143    1
   129   101   144    1
   130   102   103    1
   131   102   145    1
   132   102   146    1
   133   103   147    1
   134   103   148    1
   135   103   149    1
   136   104   105    2
   137   104   106    1
   138   106   107    1
   139   106   150    1
   140   106   151    1
   141   107   108    1
   142   108   109    1
   143   108   152    1
   144   108   153    1
   145   109   110    2
   146   109   111    1
   147   111   112    1
   148   111   118    1
   149   112   113    1
   150   112   154    1
   151   112   155    1
   152   113   114    1
   153   113   156    1
   154   113   157    1
   155   114   115    1
   156   114   158    1
   157   114   159    1
   158   115   116    1
   159   115   160    1
   160   115   161    1
   161   116   117    1
   162   116   162    1
   163   116   163    1
   164   117   164    1
   165   117   165    1
   166   117   166    1
   167   118   119    1
   168   118   167    1
   169   118   168    1
   170   119   120    1
   171   119   169    1
   172   119   170    1
   173   120   121    1
   174   120   171    1
   175   120   172    1
   176   121   122    1
   177   121   173    1
   178   121   174    1
   179   122   123    1
   180   122   175    1
   181   122   176    1
   182   123   177    1
   183   123   178    1
   184   123   179    1
   185   180   181    2
   186   180   182    1
   187   180   183    1
@<TRIPOS>SUBSTRUCTURE
     1 RES1      183 GROUP             0 ****  ****    0  
