@<TRIPOS>MOLECULE
YEMSEP_geometry_0_nunpairedes_0_charge_3 Charge: 3 Unpaired_Electrons: 5 XTB_Unpaired_Electrons: 0 XTB_Charge: 3
   341   344     1     0     0
SMALL
NoCharges
****
Generated from Architector

@<TRIPOS>ATOM
     1 Dy1      -0.0336   -0.0741   -0.1836   Dy        1 RES1   0.0000
     2 C1        4.5453   -2.4306   -3.8780   C.3       1 RES1   0.0000
     3 C2        3.9938   -3.8507   -3.8150   C.3       1 RES1   0.0000
     4 C3        2.5203   -3.8291   -4.1980   C.3       1 RES1   0.0000
     5 C4        1.8126   -5.1742   -4.0863   C.3       1 RES1   0.0000
     6 C5        0.4107   -5.1609   -4.7021   C.3       1 RES1   0.0000
     7 C6       -0.6895   -4.5416   -3.8346   C.3       1 RES1   0.0000
     8 N1       -0.5205   -3.1362   -3.4995   N.am      1 RES1   0.0000
     9 C7       -0.8066   -2.1717   -4.5632   C.3       1 RES1   0.0000
    10 C8        0.3761   -1.7708   -5.4410   C.3       1 RES1   0.0000
    11 C9       -0.0550   -0.7856   -6.5316   C.3       1 RES1   0.0000
    12 C10      -0.7568   -1.4154   -7.7390   C.3       1 RES1   0.0000
    13 C11       0.1930   -1.8924   -8.8386   C.3       1 RES1   0.0000
    14 C12       0.9741   -3.1531   -8.4881   C.3       1 RES1   0.0000
    15 C13      -0.2260   -2.6565   -2.2908   C.2       1 RES1   0.0000
    16 O1       -0.0666   -1.4344   -2.1045   O.2       1 RES1   0.0000
    17 C14      -0.0769   -3.5865   -1.0858   C.3       1 RES1   0.0000
    18 C15      -1.1068   -3.2016   -0.0169   C.2       1 RES1   0.0000
    19 O2       -1.3370   -1.9968    0.2147   O.2       1 RES1   0.0000
    20 N2       -1.7350   -4.1562    0.6668   N.am      1 RES1   0.0000
    21 C16      -1.3505   -5.5614    0.7598   C.3       1 RES1   0.0000
    22 C17      -2.4268   -6.5162    0.2401   C.3       1 RES1   0.0000
    23 C18      -2.6298   -6.4016   -1.2675   C.3       1 RES1   0.0000
    24 C19      -3.8656   -7.1738   -1.7262   C.3       1 RES1   0.0000
    25 C20      -4.2054   -6.9329   -3.1968   C.3       1 RES1   0.0000
    26 C21      -3.1606   -7.5051   -4.1470   C.3       1 RES1   0.0000
    27 C22      -2.7311   -3.7313    1.6488   C.3       1 RES1   0.0000
    28 C23      -3.9868   -3.0580    1.0885   C.3       1 RES1   0.0000
    29 C24      -4.8025   -3.8784    0.0921   C.3       1 RES1   0.0000
    30 C25      -6.1304   -3.1746   -0.1937   C.3       1 RES1   0.0000
    31 C26      -6.8638   -3.7146   -1.4194   C.3       1 RES1   0.0000
    32 C27      -7.5454   -5.0488   -1.1589   C.3       1 RES1   0.0000
    33 H1        5.6124   -2.4052   -3.6828   H         1 RES1   0.0000
    34 H2        4.0454   -1.8088   -3.1377   H         1 RES1   0.0000
    35 H3        4.3727   -2.0009   -4.8622   H         1 RES1   0.0000
    36 H4        4.1161   -4.2556   -2.8081   H         1 RES1   0.0000
    37 H5        4.5448   -4.4895   -4.5057   H         1 RES1   0.0000
    38 H6        2.4703   -3.5055   -5.2370   H         1 RES1   0.0000
    39 H7        2.0091   -3.0892   -3.5782   H         1 RES1   0.0000
    40 H8        1.7631   -5.4971   -3.0432   H         1 RES1   0.0000
    41 H9        2.4028   -5.9165   -4.6236   H         1 RES1   0.0000
    42 H10       0.0963   -6.1910   -4.8792   H         1 RES1   0.0000
    43 H11       0.4416   -4.6684   -5.6723   H         1 RES1   0.0000
    44 H12      -0.7697   -5.1235   -2.9219   H         1 RES1   0.0000
    45 H13      -1.6425   -4.6458   -4.3621   H         1 RES1   0.0000
    46 H14      -1.1943   -1.2675   -4.0818   H         1 RES1   0.0000
    47 H15      -1.5822   -2.6094   -5.1919   H         1 RES1   0.0000
    48 H16       0.8046   -2.6450   -5.9187   H         1 RES1   0.0000
    49 H17       1.1358   -1.3031   -4.8097   H         1 RES1   0.0000
    50 H18       0.8360   -0.2645   -6.8880   H         1 RES1   0.0000
    51 H19      -0.7185   -0.0410   -6.0870   H         1 RES1   0.0000
    52 H20      -1.4131   -0.6572   -8.1706   H         1 RES1   0.0000
    53 H21      -1.3921   -2.2440   -7.4218   H         1 RES1   0.0000
    54 H22       0.8859   -1.0853   -9.0803   H         1 RES1   0.0000
    55 H23      -0.4015   -2.0846   -9.7321   H         1 RES1   0.0000
    56 H24       1.7615   -2.9468   -7.7656   H         1 RES1   0.0000
    57 H25       1.4429   -3.5572   -9.3806   H         1 RES1   0.0000
    58 H26       0.3035   -3.9132   -8.0893   H         1 RES1   0.0000
    59 H27       0.8950   -3.3322   -0.6521   H         1 RES1   0.0000
    60 H28      -0.0919   -4.6431   -1.3296   H         1 RES1   0.0000
    61 H29      -1.1591   -5.7802    1.8170   H         1 RES1   0.0000
    62 H30      -0.4137   -5.7346    0.2316   H         1 RES1   0.0000
    63 H31      -3.3697   -6.3299    0.7557   H         1 RES1   0.0000
    64 H32      -2.1235   -7.5331    0.4884   H         1 RES1   0.0000
    65 H33      -1.7442   -6.7917   -1.7749   H         1 RES1   0.0000
    66 H34      -2.7530   -5.3489   -1.5379   H         1 RES1   0.0000
    67 H35      -4.7172   -6.8660   -1.1138   H         1 RES1   0.0000
    68 H36      -3.7082   -8.2414   -1.5640   H         1 RES1   0.0000
    69 H37      -4.3233   -5.8596   -3.3723   H         1 RES1   0.0000
    70 H38      -5.1665   -7.4026   -3.4067   H         1 RES1   0.0000
    71 H39      -2.2008   -7.0077   -4.0264   H         1 RES1   0.0000
    72 H40      -3.4780   -7.3892   -5.1803   H         1 RES1   0.0000
    73 H41      -3.0223   -8.5653   -3.9534   H         1 RES1   0.0000
    74 H42      -2.2470   -3.0247    2.3315   H         1 RES1   0.0000
    75 H43      -3.0255   -4.6119    2.2130   H         1 RES1   0.0000
    76 H44      -3.7092   -2.1101    0.6235   H         1 RES1   0.0000
    77 H45      -4.6174   -2.8376    1.9543   H         1 RES1   0.0000
    78 H46      -4.9949   -4.8709    0.4984   H         1 RES1   0.0000
    79 H47      -4.2413   -3.9869   -0.8387   H         1 RES1   0.0000
    80 H48      -5.9226   -2.1128   -0.3376   H         1 RES1   0.0000
    81 H49      -6.7851   -3.2741    0.6741   H         1 RES1   0.0000
    82 H50      -6.1590   -3.8258   -2.2444   H         1 RES1   0.0000
    83 H51      -7.6144   -2.9839   -1.7250   H         1 RES1   0.0000
    84 H52      -6.8148   -5.8162   -0.9191   H         1 RES1   0.0000
    85 H53      -8.0971   -5.3723   -2.0372   H         1 RES1   0.0000
    86 H54      -8.2421   -4.9652   -0.3285   H         1 RES1   0.0000
    87 C28       9.1925   -3.5693   -0.6826   C.3       1 RES1   0.0000
    88 C29       8.3509   -3.5598   -1.9518   C.3       1 RES1   0.0000
    89 C30       6.9302   -4.0697   -1.7131   C.3       1 RES1   0.0000
    90 C31       6.0853   -3.0888   -0.8859   C.3       1 RES1   0.0000
    91 C32       5.9196   -3.5800    0.5463   C.3       1 RES1   0.0000
    92 C33       5.1230   -2.6032    1.4132   C.3       1 RES1   0.0000
    93 N3        3.6920   -2.5717    1.1254   N.am      1 RES1   0.0000
    94 C34       2.9690   -3.7892    1.5001   C.3       1 RES1   0.0000
    95 C35       1.9909   -3.5785    2.6589   C.3       1 RES1   0.0000
    96 C36       2.6843   -3.1727    3.9564   C.3       1 RES1   0.0000
    97 C37       1.7196   -3.0427    5.1376   C.3       1 RES1   0.0000
    98 C38       0.5793   -2.0363    4.9468   C.3       1 RES1   0.0000
    99 C39       0.1273   -1.4753    6.2912   C.3       1 RES1   0.0000
   100 C40       2.9792   -1.5634    0.6213   C.2       1 RES1   0.0000
   101 O3        1.7463   -1.6852    0.4460   O.2       1 RES1   0.0000
   102 C41       3.6188   -0.2134    0.2905   C.3       1 RES1   0.0000
   103 C42       3.1262    0.2323   -1.0819   C.2       1 RES1   0.0000
   104 O4        1.8975    0.3377   -1.2515   O.2       1 RES1   0.0000
   105 N4        3.9785    0.4730   -2.0756   N.am      1 RES1   0.0000
   106 C43       3.3866    0.8106   -3.3679   C.3       1 RES1   0.0000
   107 C44       2.7487    2.1942   -3.3774   C.3       1 RES1   0.0000
   108 C45       2.2305    2.5446   -4.7722   C.3       1 RES1   0.0000
   109 C46       0.8122    2.0360   -5.0320   C.3       1 RES1   0.0000
   110 C47      -0.2980    2.8889   -4.4216   C.3       1 RES1   0.0000
   111 C48      -1.6626    2.4601   -4.9464   C.3       1 RES1   0.0000
   112 C49       5.4188    0.6174   -1.9363   C.3       1 RES1   0.0000
   113 C50       5.8326    2.0579   -1.5933   C.3       1 RES1   0.0000
   114 C51       7.1141    2.1100   -0.7601   C.3       1 RES1   0.0000
   115 C52       6.9030    1.7078    0.6995   C.3       1 RES1   0.0000
   116 C53       8.1137    2.0433    1.5725   C.3       1 RES1   0.0000
   117 C54       9.2951    1.1184    1.3062   C.3       1 RES1   0.0000
   118 H55      10.2239   -3.3176   -0.9116   H         1 RES1   0.0000
   119 H56       9.1761   -4.5601   -0.2342   H         1 RES1   0.0000
   120 H57       8.8201   -2.8515    0.0464   H         1 RES1   0.0000
   121 H58       8.8245   -4.1925   -2.7018   H         1 RES1   0.0000
   122 H59       8.3113   -2.5494   -2.3667   H         1 RES1   0.0000
   123 H60       6.9826   -5.0303   -1.1957   H         1 RES1   0.0000
   124 H61       6.4535   -4.2549   -2.6750   H         1 RES1   0.0000
   125 H62       5.0940   -2.9583   -1.3243   H         1 RES1   0.0000
   126 H63       6.5752   -2.1111   -0.8874   H         1 RES1   0.0000
   127 H64       6.9019   -3.7066    1.0044   H         1 RES1   0.0000
   128 H65       5.4403   -4.5591    0.5340   H         1 RES1   0.0000
   129 H66       5.5537   -1.6137    1.2833   H         1 RES1   0.0000
   130 H67       5.2425   -2.8864    2.4632   H         1 RES1   0.0000
   131 H68       3.7079   -4.5413    1.7673   H         1 RES1   0.0000
   132 H69       2.4247   -4.1508    0.6249   H         1 RES1   0.0000
   133 H70       1.4502   -4.5132    2.8180   H         1 RES1   0.0000
   134 H71       1.2708   -2.8098    2.3730   H         1 RES1   0.0000
   135 H72       3.2027   -2.2227    3.8100   H         1 RES1   0.0000
   136 H73       3.4316   -3.9276    4.2155   H         1 RES1   0.0000
   137 H74       2.3122   -2.7437    6.0040   H         1 RES1   0.0000
   138 H75       1.2954   -4.0216    5.3650   H         1 RES1   0.0000
   139 H76      -0.2653   -2.5202    4.4505   H         1 RES1   0.0000
   140 H77       0.9026   -1.2127    4.3059   H         1 RES1   0.0000
   141 H78      -0.2278   -2.2685    6.9464   H         1 RES1   0.0000
   142 H79      -0.6743   -0.7519    6.1572   H         1 RES1   0.0000
   143 H80       0.9516   -0.9743    6.7954   H         1 RES1   0.0000
   144 H81       4.6933   -0.1620    0.4178   H         1 RES1   0.0000
   145 H82       3.1352    0.4873    0.9808   H         1 RES1   0.0000
   146 H83       2.6269    0.0581   -3.6010   H         1 RES1   0.0000
   147 H84       4.1746    0.7703   -4.1174   H         1 RES1   0.0000
   148 H85       3.5014    2.9181   -3.0608   H         1 RES1   0.0000
   149 H86       1.9260    2.1995   -2.6602   H         1 RES1   0.0000
   150 H87       2.9033    2.1061   -5.5148   H         1 RES1   0.0000
   151 H88       2.2575    3.6240   -4.9083   H         1 RES1   0.0000
   152 H89       0.7212    1.0175   -4.6504   H         1 RES1   0.0000
   153 H90       0.6567    2.0216   -6.1112   H         1 RES1   0.0000
   154 H91      -0.1361    3.9330   -4.6952   H         1 RES1   0.0000
   155 H92      -0.2775    2.8027   -3.3322   H         1 RES1   0.0000
   156 H93      -1.7072    2.5992   -6.0239   H         1 RES1   0.0000
   157 H94      -2.4606    3.0487   -4.4982   H         1 RES1   0.0000
   158 H95      -1.8442    1.4093   -4.7335   H         1 RES1   0.0000
   159 H96       5.8796    0.3164   -2.8770   H         1 RES1   0.0000
   160 H97       5.7870   -0.0648   -1.1718   H         1 RES1   0.0000
   161 H98       5.0264    2.5333   -1.0304   H         1 RES1   0.0000
   162 H99       5.9871    2.6286   -2.5106   H         1 RES1   0.0000
   163 H100      7.4885    3.1336   -0.7741   H         1 RES1   0.0000
   164 H101      7.8750    1.4800   -1.2202   H         1 RES1   0.0000
   165 H102      6.7149    0.6326    0.7790   H         1 RES1   0.0000
   166 H103      6.0244    2.2371    1.0815   H         1 RES1   0.0000
   167 H104      7.8281    1.9630    2.6240   H         1 RES1   0.0000
   168 H105      8.4071    3.0791    1.3952   H         1 RES1   0.0000
   169 H106      8.9991    0.0776    1.4341   H         1 RES1   0.0000
   170 H107     10.1054    1.3293    1.9988   H         1 RES1   0.0000
   171 H108      9.6736    1.2479    0.2959   H         1 RES1   0.0000
   172 C55      -7.5355   -0.7279    1.8985   C.3       1 RES1   0.0000
   173 C56      -7.3417    0.6474    1.2729   C.3       1 RES1   0.0000
   174 C57      -6.6705    0.5937   -0.1006   C.3       1 RES1   0.0000
   175 C58      -6.7720    1.9464   -0.8014   C.3       1 RES1   0.0000
   176 C59      -6.2688    1.9598   -2.2500   C.3       1 RES1   0.0000
   177 C60      -4.8048    2.3948   -2.3879   C.3       1 RES1   0.0000
   178 N5       -3.7973    1.3535   -2.2009   N.am      1 RES1   0.0000
   179 C61      -3.8239    0.2339   -3.1427   C.3       1 RES1   0.0000
   180 C62      -4.4929   -1.0624   -2.6931   C.3       1 RES1   0.0000
   181 C63      -4.2478   -2.1876   -3.7129   C.3       1 RES1   0.0000
   182 C64      -4.5460   -1.8874   -5.1892   C.3       1 RES1   0.0000
   183 C65      -6.0199   -1.9903   -5.5858   C.3       1 RES1   0.0000
   184 C66      -6.8969   -0.8506   -5.0883   C.3       1 RES1   0.0000
   185 C67      -2.6811    1.5020   -1.4786   C.2       1 RES1   0.0000
   186 O5       -1.8878    0.5551   -1.3326   O.2       1 RES1   0.0000
   187 C68      -2.3981    2.8879   -0.8906   C.3       1 RES1   0.0000
   188 C69      -0.9146    3.2325   -0.6894   C.2       1 RES1   0.0000
   189 O6       -0.0221    2.3685   -0.6646   O.2       1 RES1   0.0000
   190 N6       -0.6427    4.5371   -0.5428   N.am      1 RES1   0.0000
   191 C70      -1.6527    5.5554   -0.2576   C.3       1 RES1   0.0000
   192 C71      -1.8405    6.5775   -1.3767   C.3       1 RES1   0.0000
   193 C72      -2.3553    5.9637   -2.6746   C.3       1 RES1   0.0000
   194 C73      -2.4126    7.0153   -3.7805   C.3       1 RES1   0.0000
   195 C74      -2.8861    6.4489   -5.1177   C.3       1 RES1   0.0000
   196 C75      -4.3395    5.9914   -5.0845   C.3       1 RES1   0.0000
   197 C76       0.7401    4.9950   -0.3763   C.3       1 RES1   0.0000
   198 C77       1.6857    5.0624   -1.5852   C.3       1 RES1   0.0000
   199 C78       1.2934    5.8836   -2.8137   C.3       1 RES1   0.0000
   200 C79       2.5357    6.1029   -3.6911   C.3       1 RES1   0.0000
   201 C80       2.2268    6.3297   -5.1711   C.3       1 RES1   0.0000
   202 C81       1.5255    7.6519   -5.4405   C.3       1 RES1   0.0000
   203 H109     -7.9807   -0.6333    2.8857   H         1 RES1   0.0000
   204 H110     -6.5901   -1.2581    1.9977   H         1 RES1   0.0000
   205 H111     -8.2010   -1.3287    1.2834   H         1 RES1   0.0000
   206 H112     -6.7490    1.2770    1.9407   H         1 RES1   0.0000
   207 H113     -8.3226    1.1140    1.1640   H         1 RES1   0.0000
   208 H114     -7.1867   -0.1509   -0.7099   H         1 RES1   0.0000
   209 H115     -5.6236    0.2880    0.0004   H         1 RES1   0.0000
   210 H116     -6.2400    2.7066   -0.2216   H         1 RES1   0.0000
   211 H117     -7.8235    2.2353   -0.7995   H         1 RES1   0.0000
   212 H118     -6.8562    2.6904   -2.8090   H         1 RES1   0.0000
   213 H119     -6.4389    0.9966   -2.7232   H         1 RES1   0.0000
   214 H120     -4.6508    3.1704   -1.6419   H         1 RES1   0.0000
   215 H121     -4.6612    2.8402   -3.3802   H         1 RES1   0.0000
   216 H122     -2.7789   -0.0073   -3.3622   H         1 RES1   0.0000
   217 H123     -4.3100    0.6024   -4.0450   H         1 RES1   0.0000
   218 H124     -5.5605   -0.9172   -2.5388   H         1 RES1   0.0000
   219 H125     -4.0478   -1.3740   -1.7449   H         1 RES1   0.0000
   220 H126     -4.8609   -3.0446   -3.4284   H         1 RES1   0.0000
   221 H127     -3.2020   -2.4927   -3.6141   H         1 RES1   0.0000
   222 H128     -4.0022   -2.6273   -5.7819   H         1 RES1   0.0000
   223 H129     -4.1510   -0.9139   -5.4806   H         1 RES1   0.0000
   224 H130     -6.4177   -2.9394   -5.2261   H         1 RES1   0.0000
   225 H131     -6.0687   -2.0167   -6.6753   H         1 RES1   0.0000
   226 H132     -7.0477   -0.9037   -4.0134   H         1 RES1   0.0000
   227 H133     -7.8720   -0.9110   -5.5624   H         1 RES1   0.0000
   228 H134     -6.4546    0.1101   -5.3441   H         1 RES1   0.0000
   229 H135     -2.9269    2.9867    0.0657   H         1 RES1   0.0000
   230 H136     -2.7803    3.6260   -1.5949   H         1 RES1   0.0000
   231 H137     -1.3421    6.0803    0.6525   H         1 RES1   0.0000
   232 H138     -2.6038    5.0839   -0.0222   H         1 RES1   0.0000
   233 H139     -0.8973    7.0902   -1.5637   H         1 RES1   0.0000
   234 H140     -2.5546    7.3225   -1.0227   H         1 RES1   0.0000
   235 H141     -3.3554    5.5541   -2.5076   H         1 RES1   0.0000
   236 H142     -1.6954    5.1526   -2.9934   H         1 RES1   0.0000
   237 H143     -1.4136    7.4419   -3.9047   H         1 RES1   0.0000
   238 H144     -3.0818    7.8215   -3.4743   H         1 RES1   0.0000
   239 H145     -2.2393    5.6189   -5.4127   H         1 RES1   0.0000
   240 H146     -2.7818    7.2287   -5.8717   H         1 RES1   0.0000
   241 H147     -4.4732    5.1359   -4.4236   H         1 RES1   0.0000
   242 H148     -4.6688    5.7044   -6.0794   H         1 RES1   0.0000
   243 H149     -4.9786    6.7987   -4.7352   H         1 RES1   0.0000
   244 H150      1.2259    4.3207    0.3359   H         1 RES1   0.0000
   245 H151      0.6811    5.9837    0.0735   H         1 RES1   0.0000
   246 H152      1.9009    4.0479   -1.9123   H         1 RES1   0.0000
   247 H153      2.6041    5.4988   -1.1800   H         1 RES1   0.0000
   248 H154      0.8872    6.8526   -2.5253   H         1 RES1   0.0000
   249 H155      0.5319    5.3497   -3.3809   H         1 RES1   0.0000
   250 H156      3.1886    5.2303   -3.5986   H         1 RES1   0.0000
   251 H157      3.0918    6.9619   -3.3112   H         1 RES1   0.0000
   252 H158      1.6078    5.5126   -5.5500   H         1 RES1   0.0000
   253 H159      3.1691    6.2997   -5.7194   H         1 RES1   0.0000
   254 H160      0.5421    7.6636   -4.9776   H         1 RES1   0.0000
   255 H161      1.4013    7.7993   -6.5099   H         1 RES1   0.0000
   256 H162      2.1047    8.4831   -5.0464   H         1 RES1   0.0000
   257 C82       4.6079    4.9916    0.5871   C.3       1 RES1   0.0000
   258 C83       3.8263    5.4704    1.8039   C.3       1 RES1   0.0000
   259 C84       3.5119    4.3149    2.7522   C.3       1 RES1   0.0000
   260 C85       2.7377    4.7782    3.9855   C.3       1 RES1   0.0000
   261 C86       2.6879    3.7613    5.1282   C.3       1 RES1   0.0000
   262 C87       1.6460    2.6383    5.0208   C.3       1 RES1   0.0000
   263 N7        1.7839    1.7212    3.8939   N.am      1 RES1   0.0000
   264 C88       2.8140    0.6985    4.0697   C.3       1 RES1   0.0000
   265 C89       4.2501    1.1474    3.7967   C.3       1 RES1   0.0000
   266 C90       5.1940   -0.0530    3.7252   C.3       1 RES1   0.0000
   267 C91       5.4700   -0.7570    5.0604   C.3       1 RES1   0.0000
   268 C92       6.6903   -0.2201    5.8076   C.3       1 RES1   0.0000
   269 C93       6.5241    1.2048    6.3183   C.3       1 RES1   0.0000
   270 C94       0.9947    1.6553    2.8173   C.2       1 RES1   0.0000
   271 O7        1.2209    0.8660    1.8763   O.2       1 RES1   0.0000
   272 C95      -0.2284    2.5649    2.7181   C.3       1 RES1   0.0000
   273 C96      -1.4789    1.7137    2.4610   C.2       1 RES1   0.0000
   274 O8       -1.4236    0.7723    1.6477   O.2       1 RES1   0.0000
   275 N8       -2.6158    2.0281    3.0857   N.am      1 RES1   0.0000
   276 C97      -2.9157    3.2673    3.8066   C.3       1 RES1   0.0000
   277 C98      -3.3488    3.0570    5.2600   C.3       1 RES1   0.0000
   278 C99      -2.2502    2.4669    6.1371   C.3       1 RES1   0.0000
   279 C100     -2.7720    2.1855    7.5469   C.3       1 RES1   0.0000
   280 C101     -1.7665    1.4449    8.4290   C.3       1 RES1   0.0000
   281 C102     -0.4919    2.2419    8.6792   C.3       1 RES1   0.0000
   282 C103     -3.7971    1.2140    2.7924   C.3       1 RES1   0.0000
   283 C104     -3.7513   -0.2640    3.1818   C.3       1 RES1   0.0000
   284 C105     -3.6146   -0.5919    4.6702   C.3       1 RES1   0.0000
   285 C106     -4.0622   -2.0366    4.9280   C.3       1 RES1   0.0000
   286 C107     -3.5737   -2.6164    6.2554   C.3       1 RES1   0.0000
   287 C108     -4.1786   -1.9429    7.4790   C.3       1 RES1   0.0000
   288 H163      4.7779    5.8098   -0.1068   H         1 RES1   0.0000
   289 H164      4.0621    4.2058    0.0653   H         1 RES1   0.0000
   290 H165      5.5783    4.5987    0.8802   H         1 RES1   0.0000
   291 H166      2.8986    5.9480    1.4815   H         1 RES1   0.0000
   292 H167      4.4181    6.2163    2.3359   H         1 RES1   0.0000
   293 H168      4.4601    3.8852    3.0789   H         1 RES1   0.0000
   294 H169      2.9506    3.5435    2.2139   H         1 RES1   0.0000
   295 H170      1.7262    5.0835    3.7072   H         1 RES1   0.0000
   296 H171      3.2438    5.6628    4.3754   H         1 RES1   0.0000
   297 H172      2.4360    4.2918    6.0488   H         1 RES1   0.0000
   298 H173      3.6822    3.3466    5.2774   H         1 RES1   0.0000
   299 H174      0.6563    3.0895    5.0286   H         1 RES1   0.0000
   300 H175      1.7219    2.0364    5.9315   H         1 RES1   0.0000
   301 H176      2.5689   -0.1224    3.3890   H         1 RES1   0.0000
   302 H177      2.7350    0.3390    5.0973   H         1 RES1   0.0000
   303 H178      4.6062    1.8303    4.5643   H         1 RES1   0.0000
   304 H179      4.2662    1.6544    2.8314   H         1 RES1   0.0000
   305 H180      6.1460    0.2768    3.3032   H         1 RES1   0.0000
   306 H181      4.7435   -0.7634    3.0323   H         1 RES1   0.0000
   307 H182      5.6400   -1.8180    4.8612   H         1 RES1   0.0000
   308 H183      4.5943   -0.7001    5.7081   H         1 RES1   0.0000
   309 H184      7.5585   -0.2736    5.1493   H         1 RES1   0.0000
   310 H185      6.8826   -0.8838    6.6517   H         1 RES1   0.0000
   311 H186      6.5485    1.9245    5.5026   H         1 RES1   0.0000
   312 H187      7.3355    1.4471    6.9970   H         1 RES1   0.0000
   313 H188      5.5872    1.3081    6.8625   H         1 RES1   0.0000
   314 H189     -0.0913    3.1777    1.8240   H         1 RES1   0.0000
   315 H190     -0.3404    3.2224    3.5719   H         1 RES1   0.0000
   316 H191     -3.7324    3.7684    3.2719   H         1 RES1   0.0000
   317 H192     -2.0649    3.9462    3.7752   H         1 RES1   0.0000
   318 H193     -4.2342    2.4212    5.3055   H         1 RES1   0.0000
   319 H194     -3.6418    4.0300    5.6565   H         1 RES1   0.0000
   320 H195     -1.4171    3.1710    6.1912   H         1 RES1   0.0000
   321 H196     -1.8881    1.5372    5.6918   H         1 RES1   0.0000
   322 H197     -3.6824    1.5839    7.4723   H         1 RES1   0.0000
   323 H198     -3.0400    3.1295    8.0262   H         1 RES1   0.0000
   324 H199     -1.5173    0.4835    7.9736   H         1 RES1   0.0000
   325 H200     -2.2451    1.2358    9.3864   H         1 RES1   0.0000
   326 H201      0.0777    2.3731    7.7606   H         1 RES1   0.0000
   327 H202      0.1400    1.7284    9.3991   H         1 RES1   0.0000
   328 H203     -0.7339    3.2230    9.0805   H         1 RES1   0.0000
   329 H204     -3.9755    1.2518    1.7122   H         1 RES1   0.0000
   330 H205     -4.6362    1.6838    3.2973   H         1 RES1   0.0000
   331 H206     -2.9496   -0.7553    2.6277   H         1 RES1   0.0000
   332 H207     -4.7043   -0.6687    2.8323   H         1 RES1   0.0000
   333 H208     -4.2260    0.0834    5.2697   H         1 RES1   0.0000
   334 H209     -2.5725   -0.4748    4.9776   H         1 RES1   0.0000
   335 H210     -3.6767   -2.6641    4.1198   H         1 RES1   0.0000
   336 H211     -5.1537   -2.0826    4.8941   H         1 RES1   0.0000
   337 H212     -2.4862   -2.5467    6.2951   H         1 RES1   0.0000
   338 H213     -3.8285   -3.6767    6.2727   H         1 RES1   0.0000
   339 H214     -3.8779   -0.9004    7.5419   H         1 RES1   0.0000
   340 H215     -3.8488   -2.4460    8.3846   H         1 RES1   0.0000
   341 H216     -5.2639   -1.9913    7.4404   H         1 RES1   0.0000
@<TRIPOS>BOND
     1     1    16    1
     2     1    19    1
     3     1   101    1
     4     1   104    1
     5     1   186    1
     6     1   189    1
     7     1   271    1
     8     1   274    1
     9     2     3    1
    10     2    33    1
    11     2    34    1
    12     2    35    1
    13     3     4    1
    14     3    36    1
    15     3    37    1
    16     4     5    1
    17     4    38    1
    18     4    39    1
    19     5     6    1
    20     5    40    1
    21     5    41    1
    22     6     7    1
    23     6    42    1
    24     6    43    1
    25     7     8    1
    26     7    44    1
    27     7    45    1
    28     8     9    1
    29     8    15    1
    30     9    10    1
    31     9    46    1
    32     9    47    1
    33    10    11    1
    34    10    48    1
    35    10    49    1
    36    11    12    1
    37    11    50    1
    38    11    51    1
    39    12    13    1
    40    12    52    1
    41    12    53    1
    42    13    14    1
    43    13    54    1
    44    13    55    1
    45    14    56    1
    46    14    57    1
    47    14    58    1
    48    15    16    2
    49    15    17    1
    50    17    18    1
    51    17    59    1
    52    17    60    1
    53    18    19    2
    54    18    20    1
    55    20    21    1
    56    20    27    1
    57    21    22    1
    58    21    61    1
    59    21    62    1
    60    22    23    1
    61    22    63    1
    62    22    64    1
    63    23    24    1
    64    23    65    1
    65    23    66    1
    66    24    25    1
    67    24    67    1
    68    24    68    1
    69    25    26    1
    70    25    69    1
    71    25    70    1
    72    26    71    1
    73    26    72    1
    74    26    73    1
    75    27    28    1
    76    27    74    1
    77    27    75    1
    78    28    29    1
    79    28    76    1
    80    28    77    1
    81    29    30    1
    82    29    78    1
    83    29    79    1
    84    30    31    1
    85    30    80    1
    86    30    81    1
    87    31    32    1
    88    31    82    1
    89    31    83    1
    90    32    84    1
    91    32    85    1
    92    32    86    1
    93    87    88    1
    94    87   118    1
    95    87   119    1
    96    87   120    1
    97    88    89    1
    98    88   121    1
    99    88   122    1
   100    89    90    1
   101    89   123    1
   102    89   124    1
   103    90    91    1
   104    90   125    1
   105    90   126    1
   106    91    92    1
   107    91   127    1
   108    91   128    1
   109    92    93    1
   110    92   129    1
   111    92   130    1
   112    93    94    1
   113    93   100    1
   114    94    95    1
   115    94   131    1
   116    94   132    1
   117    95    96    1
   118    95   133    1
   119    95   134    1
   120    96    97    1
   121    96   135    1
   122    96   136    1
   123    97    98    1
   124    97   137    1
   125    97   138    1
   126    98    99    1
   127    98   139    1
   128    98   140    1
   129    99   141    1
   130    99   142    1
   131    99   143    1
   132   100   101    2
   133   100   102    1
   134   102   103    1
   135   102   144    1
   136   102   145    1
   137   103   104    2
   138   103   105    1
   139   105   106    1
   140   105   112    1
   141   106   107    1
   142   106   146    1
   143   106   147    1
   144   107   108    1
   145   107   148    1
   146   107   149    1
   147   108   109    1
   148   108   150    1
   149   108   151    1
   150   109   110    1
   151   109   152    1
   152   109   153    1
   153   110   111    1
   154   110   154    1
   155   110   155    1
   156   111   156    1
   157   111   157    1
   158   111   158    1
   159   112   113    1
   160   112   159    1
   161   112   160    1
   162   113   114    1
   163   113   161    1
   164   113   162    1
   165   114   115    1
   166   114   163    1
   167   114   164    1
   168   115   116    1
   169   115   165    1
   170   115   166    1
   171   116   117    1
   172   116   167    1
   173   116   168    1
   174   117   169    1
   175   117   170    1
   176   117   171    1
   177   172   173    1
   178   172   203    1
   179   172   204    1
   180   172   205    1
   181   173   174    1
   182   173   206    1
   183   173   207    1
   184   174   175    1
   185   174   208    1
   186   174   209    1
   187   175   176    1
   188   175   210    1
   189   175   211    1
   190   176   177    1
   191   176   212    1
   192   176   213    1
   193   177   178    1
   194   177   214    1
   195   177   215    1
   196   178   179    1
   197   178   185    1
   198   179   180    1
   199   179   216    1
   200   179   217    1
   201   180   181    1
   202   180   218    1
   203   180   219    1
   204   181   182    1
   205   181   220    1
   206   181   221    1
   207   182   183    1
   208   182   222    1
   209   182   223    1
   210   183   184    1
   211   183   224    1
   212   183   225    1
   213   184   226    1
   214   184   227    1
   215   184   228    1
   216   185   186    2
   217   185   187    1
   218   187   188    1
   219   187   229    1
   220   187   230    1
   221   188   189    2
   222   188   190    1
   223   190   191    1
   224   190   197    1
   225   191   192    1
   226   191   231    1
   227   191   232    1
   228   192   193    1
   229   192   233    1
   230   192   234    1
   231   193   194    1
   232   193   235    1
   233   193   236    1
   234   194   195    1
   235   194   237    1
   236   194   238    1
   237   195   196    1
   238   195   239    1
   239   195   240    1
   240   196   241    1
   241   196   242    1
   242   196   243    1
   243   197   198    1
   244   197   244    1
   245   197   245    1
   246   198   199    1
   247   198   246    1
   248   198   247    1
   249   199   200    1
   250   199   248    1
   251   199   249    1
   252   200   201    1
   253   200   250    1
   254   200   251    1
   255   201   202    1
   256   201   252    1
   257   201   253    1
   258   202   254    1
   259   202   255    1
   260   202   256    1
   261   257   258    1
   262   257   288    1
   263   257   289    1
   264   257   290    1
   265   258   259    1
   266   258   291    1
   267   258   292    1
   268   259   260    1
   269   259   293    1
   270   259   294    1
   271   260   261    1
   272   260   295    1
   273   260   296    1
   274   261   262    1
   275   261   297    1
   276   261   298    1
   277   262   263    1
   278   262   299    1
   279   262   300    1
   280   263   264    1
   281   263   270    1
   282   264   265    1
   283   264   301    1
   284   264   302    1
   285   265   266    1
   286   265   303    1
   287   265   304    1
   288   266   267    1
   289   266   305    1
   290   266   306    1
   291   267   268    1
   292   267   307    1
   293   267   308    1
   294   268   269    1
   295   268   309    1
   296   268   310    1
   297   269   311    1
   298   269   312    1
   299   269   313    1
   300   270   271    2
   301   270   272    1
   302   272   273    1
   303   272   314    1
   304   272   315    1
   305   273   274    2
   306   273   275    1
   307   275   276    1
   308   275   282    1
   309   276   277    1
   310   276   316    1
   311   276   317    1
   312   277   278    1
   313   277   318    1
   314   277   319    1
   315   278   279    1
   316   278   320    1
   317   278   321    1
   318   279   280    1
   319   279   322    1
   320   279   323    1
   321   280   281    1
   322   280   324    1
   323   280   325    1
   324   281   326    1
   325   281   327    1
   326   281   328    1
   327   282   283    1
   328   282   329    1
   329   282   330    1
   330   283   284    1
   331   283   331    1
   332   283   332    1
   333   284   285    1
   334   284   333    1
   335   284   334    1
   336   285   286    1
   337   285   335    1
   338   285   336    1
   339   286   287    1
   340   286   337    1
   341   286   338    1
   342   287   339    1
   343   287   340    1
   344   287   341    1
@<TRIPOS>SUBSTRUCTURE
     1 RES1      341 GROUP             0 ****  ****    0  
