@<TRIPOS>MOLECULE
YEMSEP_geometry_0_nunpairedes_0_charge_2 Charge: 2 Unpaired_Electrons: 5 XTB_Unpaired_Electrons: 0 XTB_Charge: 2
    95   105     1     0     0
SMALL
NoCharges
****
Generated from Architector

@<TRIPOS>ATOM
     1 Dy1      -0.1562    0.1841    0.0646   Dy        1 RES1   0.0000
     2 C1        3.1386   -3.7738    0.5199   C.3       1 RES1   0.0000
     3 N1        2.6368   -3.4090   -0.7976   N.am      1 RES1   0.0000
     4 C2        1.6865   -2.4601   -0.8684   C.2       1 RES1   0.0000
     5 O1        1.4631   -1.6952    0.0838   O.2       1 RES1   0.0000
     6 C3        0.7883   -2.3415   -2.0729   C.ar      1 RES1   0.0000
     7 C4        0.7329   -3.2048   -3.1666   C.ar      1 RES1   0.0000
     8 C5       -0.1458   -2.9093   -4.1959   C.ar      1 RES1   0.0000
     9 C6       -0.9696   -1.7963   -4.1032   C.ar      1 RES1   0.0000
    10 C7       -0.9310   -1.0362   -2.9360   C.ar      1 RES1   0.0000
    11 C8       -1.6796    0.2404   -2.6298   C.2       1 RES1   0.0000
    12 O2       -1.1703    0.9583   -1.7345   O.2       1 RES1   0.0000
    13 N2       -2.7524    0.6551   -3.2970   N.am      1 RES1   0.0000
    14 C9       -3.2408    2.0011   -3.0233   C.3       1 RES1   0.0000
    15 C10      -3.5974   -0.1186   -4.1415   C.ar      1 RES1   0.0000
    16 C11      -3.9339   -1.4339   -3.8231   C.ar      1 RES1   0.0000
    17 C12      -4.8038   -2.1445   -4.6341   C.ar      1 RES1   0.0000
    18 C13      -5.3822   -1.5394   -5.7393   C.ar      1 RES1   0.0000
    19 C14      -5.0868   -0.2194   -6.0330   C.ar      1 RES1   0.0000
    20 C15      -4.1897    0.4836   -5.2497   C.ar      1 RES1   0.0000
    21 N3       -0.0595   -1.3122   -1.9565   N.ar      1 RES1   0.0000
    22 C16       3.4009   -3.8773   -1.8981   C.ar      1 RES1   0.0000
    23 C17       3.9359   -5.1623   -1.8892   C.ar      1 RES1   0.0000
    24 C18       4.7549   -5.5812   -2.9232   C.ar      1 RES1   0.0000
    25 C19       5.0285   -4.7284   -3.9790   C.ar      1 RES1   0.0000
    26 C20       4.5213   -3.4385   -3.9808   C.ar      1 RES1   0.0000
    27 C21       3.7289   -3.0025   -2.9354   C.ar      1 RES1   0.0000
    28 H1        2.6061   -3.1997    1.2738   H         1 RES1   0.0000
    29 H2        4.2052   -3.5657    0.5917   H         1 RES1   0.0000
    30 H3        2.9634   -4.8371    0.6932   H         1 RES1   0.0000
    31 H4        1.3577   -4.0799   -3.2256   H         1 RES1   0.0000
    32 H5       -0.1670   -3.5338   -5.0765   H         1 RES1   0.0000
    33 H6       -1.6267   -1.5326   -4.9166   H         1 RES1   0.0000
    34 H7       -2.6537    2.4576   -2.2309   H         1 RES1   0.0000
    35 H8       -4.2872    1.9516   -2.7300   H         1 RES1   0.0000
    36 H9       -3.1508    2.6210   -3.9135   H         1 RES1   0.0000
    37 H10      -3.5376   -1.8965   -2.9324   H         1 RES1   0.0000
    38 H11      -5.0525   -3.1646   -4.3851   H         1 RES1   0.0000
    39 H12      -6.0740   -2.0828   -6.3595   H         1 RES1   0.0000
    40 H13      -5.5662    0.2731   -6.8651   H         1 RES1   0.0000
    41 H14      -3.9610    1.5030   -5.5066   H         1 RES1   0.0000
    42 H15       3.7215   -5.8409   -1.0815   H         1 RES1   0.0000
    43 H16       5.1842   -6.5707   -2.8888   H         1 RES1   0.0000
    44 H17       5.6556   -5.0549   -4.7884   H         1 RES1   0.0000
    45 H18       4.7688   -2.7602   -4.7835   H         1 RES1   0.0000
    46 H19       3.3724   -1.9832   -2.9060   H         1 RES1   0.0000
    47 C22      -2.2680   -3.0030    2.9907   C.3       1 RES1   0.0000
    48 N4       -1.4861   -1.8954    3.5283   N.am      1 RES1   0.0000
    49 C23      -0.6658   -1.2723    2.6766   C.2       1 RES1   0.0000
    50 O3       -0.7313   -1.5161    1.4499   O.2       1 RES1   0.0000
    51 C24       0.4707   -0.3669    3.1132   C.ar      1 RES1   0.0000
    52 C25       1.0397   -0.2083    4.3773   C.ar      1 RES1   0.0000
    53 C26       2.1402    0.6312    4.4864   C.ar      1 RES1   0.0000
    54 C27       2.7092    1.2215    3.3640   C.ar      1 RES1   0.0000
    55 C28       2.1426    0.9427    2.1210   C.ar      1 RES1   0.0000
    56 C29       2.5700    1.3806    0.7314   C.2       1 RES1   0.0000
    57 O4        1.8316    1.0505   -0.2241   O.2       1 RES1   0.0000
    58 N5        3.6491    2.1366    0.5004   N.am      1 RES1   0.0000
    59 C30       3.7612    2.7665   -0.8099   C.3       1 RES1   0.0000
    60 C31       4.8477    2.1493    1.2599   C.ar      1 RES1   0.0000
    61 C32       5.3012    0.9738    1.8582   C.ar      1 RES1   0.0000
    62 C33       6.5219    0.9496    2.5091   C.ar      1 RES1   0.0000
    63 C34       7.3227    2.0812    2.5270   C.ar      1 RES1   0.0000
    64 C35       6.8969    3.2376    1.8960   C.ar      1 RES1   0.0000
    65 C36       5.6594    3.2802    1.2790   C.ar      1 RES1   0.0000
    66 N6        1.0279    0.2129    2.0488   N.ar      1 RES1   0.0000
    67 C37      -1.8952   -1.4296    4.8044   C.ar      1 RES1   0.0000
    68 C38      -2.4008   -2.3424    5.7280   C.ar      1 RES1   0.0000
    69 C39      -2.9406   -1.9070    6.9234   C.ar      1 RES1   0.0000
    70 C40      -2.9522   -0.5561    7.2256   C.ar      1 RES1   0.0000
    71 C41      -2.4492    0.3589    6.3142   C.ar      1 RES1   0.0000
    72 C42      -1.9423   -0.0666    5.0985   C.ar      1 RES1   0.0000
    73 H20      -2.0107   -3.1456    1.9449   H         1 RES1   0.0000
    74 H21      -3.3309   -2.7894    3.0793   H         1 RES1   0.0000
    75 H22      -2.0312   -3.9155    3.5352   H         1 RES1   0.0000
    76 H23       0.6425   -0.7103    5.2454   H         1 RES1   0.0000
    77 H24       2.5775    0.8050    5.4565   H         1 RES1   0.0000
    78 H25       3.5664    1.8724    3.4563   H         1 RES1   0.0000
    79 H26       2.8484    2.5949   -1.3730   H         1 RES1   0.0000
    80 H27       4.6109    2.3512   -1.3504   H         1 RES1   0.0000
    81 H28       3.9056    3.8394   -0.6918   H         1 RES1   0.0000
    82 H29       4.7081    0.0752    1.7843   H         1 RES1   0.0000
    83 H30       6.8620    0.0345    2.9687   H         1 RES1   0.0000
    84 H31       8.2823    2.0604    3.0126   H         1 RES1   0.0000
    85 H32       7.5377    4.1053    1.8629   H         1 RES1   0.0000
    86 H33       5.3391    4.1902    0.8020   H         1 RES1   0.0000
    87 H34      -2.3941   -3.3964    5.5160   H         1 RES1   0.0000
    88 H35      -3.3679   -2.6302    7.5997   H         1 RES1   0.0000
    89 H36      -3.3722   -0.2142    8.1547   H         1 RES1   0.0000
    90 H37      -2.4888    1.4144    6.5373   H         1 RES1   0.0000
    91 H38      -1.6241    0.6608    4.3667   H         1 RES1   0.0000
    92 N7       -1.5346    1.9910    1.1348   N.3       1 RES1   0.0000
    93 O5       -2.2307    2.8344    1.5945   O.2       1 RES1   0.0000
    94 O6       -1.9340    0.8132    1.0080   O.co2     1 RES1   0.0000
    95 O7       -0.3677    2.2188    0.7769   O.co2     1 RES1   0.0000
@<TRIPOS>BOND
     1     1     5    1
     2     1    12    1
     3     1    21    1
     4     1    50    1
     5     1    57    1
     6     1    66    1
     7     1    94    1
     8     1    95    1
     9     2     3    1
    10     2    28    1
    11     2    29    1
    12     2    30    1
    13     3     4    1
    14     3    22    1
    15     4     5    2
    16     4     6    1
    17     6     7    1
    18     6    21    2
    19     7     8    2
    20     7    31    1
    21     8     9    1
    22     8    32    1
    23     9    10    2
    24     9    33    1
    25    10    11    1
    26    10    21    1
    27    11    12    2
    28    11    13    1
    29    13    14    1
    30    13    15    1
    31    14    34    1
    32    14    35    1
    33    14    36    1
    34    15    16    1
    35    15    20    2
    36    16    17    2
    37    16    37    1
    38    17    18    1
    39    17    38    1
    40    18    19    2
    41    18    39    1
    42    19    20    1
    43    19    40    1
    44    20    41    1
    45    22    23    1
    46    22    27    2
    47    23    24    2
    48    23    42    1
    49    24    25    1
    50    24    43    1
    51    25    26    2
    52    25    44    1
    53    26    27    1
    54    26    45    1
    55    27    46    1
    56    47    48    1
    57    47    73    1
    58    47    74    1
    59    47    75    1
    60    48    49    1
    61    48    67    1
    62    49    50    2
    63    49    51    1
    64    51    52    1
    65    51    66    2
    66    52    53    2
    67    52    76    1
    68    53    54    1
    69    53    77    1
    70    54    55    2
    71    54    78    1
    72    55    56    1
    73    55    66    1
    74    56    57    2
    75    56    58    1
    76    58    59    1
    77    58    60    1
    78    59    79    1
    79    59    80    1
    80    59    81    1
    81    60    61    1
    82    60    65    2
    83    61    62    2
    84    61    82    1
    85    62    63    1
    86    62    83    1
    87    63    64    2
    88    63    84    1
    89    64    65    1
    90    64    85    1
    91    65    86    1
    92    67    68    1
    93    67    72    2
    94    68    69    2
    95    68    87    1
    96    69    70    1
    97    69    88    1
    98    70    71    2
    99    70    89    1
   100    71    72    1
   101    71    90    1
   102    72    91    1
   103    92    93    2
   104    92    94    1
   105    92    95    1
@<TRIPOS>SUBSTRUCTURE
     1 RES1       95 GROUP             0 ****  ****    0  
