@<TRIPOS>MOLECULE
YEMSEP_geometry_0_nunpairedes_0_charge_2 Charge: 2 Unpaired_Electrons: 5 XTB_Unpaired_Electrons: 0 XTB_Charge: 2
   243   247     1     0     0
SMALL
NoCharges
****
Generated from Architector

@<TRIPOS>ATOM
     1 Dy1      -0.0030    0.2824   -0.0722   Dy        1 RES1   0.0000
     2 C1        3.2080   -1.4252   -4.7756   C.3       1 RES1   0.0000
     3 C2        2.2513   -0.5787   -5.6081   C.3       1 RES1   0.0000
     4 C3        2.2676    0.8702   -5.1256   C.3       1 RES1   0.0000
     5 C4        1.3728    1.8366   -5.9063   C.3       1 RES1   0.0000
     6 C5       -0.0932    1.8329   -5.4505   C.3       1 RES1   0.0000
     7 C6       -1.0437    1.0240   -6.3390   C.3       1 RES1   0.0000
     8 C7       -2.5189    1.3367   -6.0665   C.3       1 RES1   0.0000
     9 C8       -3.1211    0.7055   -4.8022   C.3       1 RES1   0.0000
    10 N1       -2.4363    1.0565   -3.5731   N.am      1 RES1   0.0000
    11 C9       -2.6742    2.4253   -3.0978   C.3       1 RES1   0.0000
    12 C10      -3.4112    2.5093   -1.7583   C.3       1 RES1   0.0000
    13 C11      -4.8616    2.0052   -1.7797   C.3       1 RES1   0.0000
    14 C12      -5.0236    0.6176   -1.1554   C.3       1 RES1   0.0000
    15 C13      -4.9712    0.6963    0.3704   C.3       1 RES1   0.0000
    16 C14      -5.3149   -0.6025    1.0973   C.3       1 RES1   0.0000
    17 C15      -4.2691   -1.7127    0.9371   C.3       1 RES1   0.0000
    18 C16      -4.6125   -2.7106   -0.1664   C.3       1 RES1   0.0000
    19 C17      -1.4974    0.3806   -2.9295   C.2       1 RES1   0.0000
    20 O1       -0.9191    0.9210   -1.9545   O.2       1 RES1   0.0000
    21 C18      -0.9767   -1.0414   -3.2819   C.3       1 RES1   0.0000
    22 C19      -2.0229   -2.1058   -3.6264   C.3       1 RES1   0.0000
    23 O2       -0.1833   -1.3377   -2.1064   O.3       1 RES1   0.0000
    24 C20       0.3073   -2.6653   -1.9191   C.3       1 RES1   0.0000
    25 C21      -0.7843   -3.5286   -1.2673   C.3       1 RES1   0.0000
    26 C22       1.3848   -2.5452   -0.8158   C.2       1 RES1   0.0000
    27 O3        1.3662   -1.4935   -0.1591   O.2       1 RES1   0.0000
    28 N2        2.1658   -3.5709   -0.4923   N.am      1 RES1   0.0000
    29 C23       2.9715   -3.6591    0.7508   C.3       1 RES1   0.0000
    30 C24       3.1965   -2.3710    1.5449   C.3       1 RES1   0.0000
    31 C25       4.4152   -2.3642    2.5002   C.3       1 RES1   0.0000
    32 C26       4.1060   -2.4376    4.0053   C.3       1 RES1   0.0000
    33 C27       5.0189   -1.5577    4.8831   C.3       1 RES1   0.0000
    34 C28       4.3551   -0.2753    5.4084   C.3       1 RES1   0.0000
    35 C29       3.3264   -0.5111    6.5151   C.3       1 RES1   0.0000
    36 C30       2.8133    0.7854    7.1344   C.3       1 RES1   0.0000
    37 C31       2.3629   -4.7295   -1.3591   C.3       1 RES1   0.0000
    38 C32       3.6135   -4.5293   -2.2210   C.3       1 RES1   0.0000
    39 C33       4.2225   -5.7818   -2.8599   C.3       1 RES1   0.0000
    40 C34       3.5774   -6.2355   -4.1777   C.3       1 RES1   0.0000
    41 C35       2.7717   -7.5335   -4.0782   C.3       1 RES1   0.0000
    42 C36       2.7240   -8.3321   -5.3871   C.3       1 RES1   0.0000
    43 C37       1.7416   -7.8705   -6.4657   C.3       1 RES1   0.0000
    44 C38       1.9979   -6.4788   -7.0353   C.3       1 RES1   0.0000
    45 H1        3.1987   -2.4630   -5.1007   H         1 RES1   0.0000
    46 H2        2.9375   -1.3739   -3.7195   H         1 RES1   0.0000
    47 H3        4.2219   -1.0464   -4.8827   H         1 RES1   0.0000
    48 H4        1.2425   -0.9981   -5.5519   H         1 RES1   0.0000
    49 H5        2.5543   -0.6113   -6.6556   H         1 RES1   0.0000
    50 H6        3.2956    1.2248   -5.2001   H         1 RES1   0.0000
    51 H7        1.9922    0.9049   -4.0657   H         1 RES1   0.0000
    52 H8        1.4384    1.6271   -6.9743   H         1 RES1   0.0000
    53 H9        1.7634    2.8438   -5.7537   H         1 RES1   0.0000
    54 H10      -0.4611    2.8614   -5.4463   H         1 RES1   0.0000
    55 H11      -0.1171    1.4810   -4.4187   H         1 RES1   0.0000
    56 H12      -0.8728   -0.0519   -6.2557   H         1 RES1   0.0000
    57 H13      -0.8398    1.3053   -7.3746   H         1 RES1   0.0000
    58 H14      -3.1189    0.9639   -6.8991   H         1 RES1   0.0000
    59 H15      -2.6447    2.4194   -6.0387   H         1 RES1   0.0000
    60 H16      -3.1556   -0.3694   -4.9286   H         1 RES1   0.0000
    61 H17      -4.1552    1.0473   -4.7082   H         1 RES1   0.0000
    62 H18      -3.2448    2.9468   -3.8648   H         1 RES1   0.0000
    63 H19      -1.7025    2.9164   -2.9795   H         1 RES1   0.0000
    64 H20      -3.3911    3.5624   -1.4780   H         1 RES1   0.0000
    65 H21      -2.8502    1.9587   -1.0003   H         1 RES1   0.0000
    66 H22      -5.2448    2.0022   -2.8013   H         1 RES1   0.0000
    67 H23      -5.4886    2.6961   -1.2156   H         1 RES1   0.0000
    68 H24      -4.2363   -0.0381   -1.5359   H         1 RES1   0.0000
    69 H25      -5.9889    0.2019   -1.4523   H         1 RES1   0.0000
    70 H26      -5.6838    1.4591    0.6910   H         1 RES1   0.0000
    71 H27      -3.9776    1.0131    0.6919   H         1 RES1   0.0000
    72 H28      -6.2881   -0.9704    0.7679   H         1 RES1   0.0000
    73 H29      -5.4055   -0.3590    2.1573   H         1 RES1   0.0000
    74 H30      -4.2151   -2.2682    1.8758   H         1 RES1   0.0000
    75 H31      -3.2844   -1.2603    0.7589   H         1 RES1   0.0000
    76 H32      -5.5943   -3.1404    0.0209   H         1 RES1   0.0000
    77 H33      -3.8874   -3.5250   -0.1944   H         1 RES1   0.0000
    78 H34      -4.6410   -2.2334   -1.1430   H         1 RES1   0.0000
    79 H35      -0.2899   -0.9462   -4.1415   H         1 RES1   0.0000
    80 H36      -2.8562   -2.0956   -2.9270   H         1 RES1   0.0000
    81 H37      -1.5692   -3.0935   -3.6226   H         1 RES1   0.0000
    82 H38      -2.4098   -1.9747   -4.6338   H         1 RES1   0.0000
    83 H39       0.7072   -3.0585   -2.8599   H         1 RES1   0.0000
    84 H40      -0.5245   -3.7015   -0.2276   H         1 RES1   0.0000
    85 H41      -0.9250   -4.4829   -1.7539   H         1 RES1   0.0000
    86 H42      -1.7236   -2.9819   -1.2685   H         1 RES1   0.0000
    87 H43       3.9463   -4.0540    0.4591   H         1 RES1   0.0000
    88 H44       2.4858   -4.4136    1.3791   H         1 RES1   0.0000
    89 H45       2.2802   -2.1441    2.0893   H         1 RES1   0.0000
    90 H46       3.3642   -1.5773    0.8228   H         1 RES1   0.0000
    91 H47       4.9425   -1.4245    2.3336   H         1 RES1   0.0000
    92 H48       5.0972   -3.1728    2.2435   H         1 RES1   0.0000
    93 H49       4.1748   -3.4728    4.3434   H         1 RES1   0.0000
    94 H50       3.0805   -2.1084    4.1771   H         1 RES1   0.0000
    95 H51       5.9089   -1.2830    4.3130   H         1 RES1   0.0000
    96 H52       5.3694   -2.1272    5.7460   H         1 RES1   0.0000
    97 H53       3.8788    0.2677    4.5871   H         1 RES1   0.0000
    98 H54       5.1425    0.3672    5.8045   H         1 RES1   0.0000
    99 H55       3.7868   -1.1101    7.3004   H         1 RES1   0.0000
   100 H56       2.4752   -1.0765    6.1307   H         1 RES1   0.0000
   101 H57       3.6336    1.3531    7.5672   H         1 RES1   0.0000
   102 H58       2.1029    0.5651    7.9287   H         1 RES1   0.0000
   103 H59       2.3156    1.4166    6.3995   H         1 RES1   0.0000
   104 H60       1.4923   -4.8823   -1.9903   H         1 RES1   0.0000
   105 H61       2.4754   -5.6053   -0.7176   H         1 RES1   0.0000
   106 H62       4.3865   -4.0949   -1.5908   H         1 RES1   0.0000
   107 H63       3.3968   -3.7983   -3.0010   H         1 RES1   0.0000
   108 H64       4.2382   -6.6023   -2.1414   H         1 RES1   0.0000
   109 H65       5.2637   -5.5362   -3.0706   H         1 RES1   0.0000
   110 H66       4.3723   -6.4087   -4.9035   H         1 RES1   0.0000
   111 H67       2.9645   -5.4228   -4.5666   H         1 RES1   0.0000
   112 H68       1.7578   -7.3433   -3.7222   H         1 RES1   0.0000
   113 H69       3.2630   -8.1731   -3.3410   H         1 RES1   0.0000
   114 H70       2.4597   -9.3612   -5.1363   H         1 RES1   0.0000
   115 H71       3.7278   -8.3602   -5.8136   H         1 RES1   0.0000
   116 H72       0.7220   -7.9275   -6.0791   H         1 RES1   0.0000
   117 H73       1.8106   -8.5891   -7.2844   H         1 RES1   0.0000
   118 H74       1.7466   -5.7017   -6.3161   H         1 RES1   0.0000
   119 H75       1.3855   -6.3184   -7.9213   H         1 RES1   0.0000
   120 H76       3.0433   -6.3707   -7.3192   H         1 RES1   0.0000
   121 C39       6.6915   -6.2894    3.3243   C.3       1 RES1   0.0000
   122 C40       6.4265   -5.8309    1.8948   C.3       1 RES1   0.0000
   123 C41       7.4141   -4.7508    1.4394   C.3       1 RES1   0.0000
   124 C42       7.0029   -4.0785    0.1205   C.3       1 RES1   0.0000
   125 C43       7.2055   -2.5592    0.1318   C.3       1 RES1   0.0000
   126 C44       6.1378   -1.8064   -0.6686   C.3       1 RES1   0.0000
   127 C45       6.1477   -0.3119   -0.3296   C.3       1 RES1   0.0000
   128 C46       4.7770    0.3713   -0.4765   C.3       1 RES1   0.0000
   129 N3        4.2299    0.8803    0.7955   N.am      1 RES1   0.0000
   130 C47       5.0736    1.7440    1.6063   C.3       1 RES1   0.0000
   131 C48       5.0205    3.2051    1.1264   C.3       1 RES1   0.0000
   132 C49       5.6589    3.4777   -0.2462   C.3       1 RES1   0.0000
   133 C50       4.6877    3.5626   -1.4356   C.3       1 RES1   0.0000
   134 C51       4.1120    4.9572   -1.6930   C.3       1 RES1   0.0000
   135 C52       3.0332    5.4110   -0.7093   C.3       1 RES1   0.0000
   136 C53       1.8174    4.4904   -0.6047   C.3       1 RES1   0.0000
   137 C54       1.0043    4.3695   -1.8888   C.3       1 RES1   0.0000
   138 C55       2.8918    0.9336    0.9211   C.2       1 RES1   0.0000
   139 O4        2.1518    0.8688   -0.0771   O.2       1 RES1   0.0000
   140 C56       2.2356    0.9525    2.3300   C.3       1 RES1   0.0000
   141 C57       2.0024    2.3753    2.8465   C.3       1 RES1   0.0000
   142 O5        0.9658    0.2679    2.1647   O.3       1 RES1   0.0000
   143 C58       0.4514   -0.5776    3.2254   C.3       1 RES1   0.0000
   144 C59      -0.4774    0.2148    4.1522   C.3       1 RES1   0.0000
   145 C60      -0.3672   -1.6773    2.4927   C.2       1 RES1   0.0000
   146 O6       -0.7223   -1.4278    1.3228   O.2       1 RES1   0.0000
   147 N4       -0.6886   -2.8285    3.0802   N.am      1 RES1   0.0000
   148 C61      -0.4278   -3.1790    4.4698   C.3       1 RES1   0.0000
   149 C62       0.8832   -3.9357    4.6909   C.3       1 RES1   0.0000
   150 C63       0.9969   -4.5156    6.1044   C.3       1 RES1   0.0000
   151 C64       0.9276   -3.4637    7.2258   C.3       1 RES1   0.0000
   152 C65      -0.1233   -3.7963    8.2890   C.3       1 RES1   0.0000
   153 C66      -1.5760   -3.7425    7.8099   C.3       1 RES1   0.0000
   154 C67      -2.1197   -2.3239    7.6400   C.3       1 RES1   0.0000
   155 C68      -3.5526   -2.3314    7.1200   C.3       1 RES1   0.0000
   156 C69      -1.6669   -3.6893    2.3968   C.3       1 RES1   0.0000
   157 C70      -1.4623   -5.2110    2.3760   C.3       1 RES1   0.0000
   158 C71      -0.2665   -5.7679    1.5858   C.3       1 RES1   0.0000
   159 C72      -0.6195   -7.0559    0.8247   C.3       1 RES1   0.0000
   160 C73      -1.5991   -6.8773   -0.3502   C.3       1 RES1   0.0000
   161 C74      -0.9439   -7.0277   -1.7265   C.3       1 RES1   0.0000
   162 C75      -1.8478   -6.5369   -2.8672   C.3       1 RES1   0.0000
   163 C76      -1.0534   -6.1104   -4.0990   C.3       1 RES1   0.0000
   164 H77       5.9070   -6.9669    3.6571   H         1 RES1   0.0000
   165 H78       6.7126   -5.4315    3.9946   H         1 RES1   0.0000
   166 H79       7.6445   -6.8069    3.3944   H         1 RES1   0.0000
   167 H80       5.4044   -5.4354    1.8475   H         1 RES1   0.0000
   168 H81       6.4779   -6.6876    1.2187   H         1 RES1   0.0000
   169 H82       8.4045   -5.1920    1.3399   H         1 RES1   0.0000
   170 H83       7.4873   -3.9950    2.2260   H         1 RES1   0.0000
   171 H84       5.9474   -4.2859   -0.0685   H         1 RES1   0.0000
   172 H85       7.5493   -4.5189   -0.7090   H         1 RES1   0.0000
   173 H86       8.1982   -2.2958   -0.2354   H         1 RES1   0.0000
   174 H87       7.1535   -2.2145    1.1671   H         1 RES1   0.0000
   175 H88       5.1590   -2.2090   -0.4062   H         1 RES1   0.0000
   176 H89       6.2921   -1.9508   -1.7380   H         1 RES1   0.0000
   177 H90       6.8816    0.1953   -0.9563   H         1 RES1   0.0000
   178 H91       6.4947   -0.2254    0.6974   H         1 RES1   0.0000
   179 H92       4.0464   -0.3461   -0.8587   H         1 RES1   0.0000
   180 H93       4.8523    1.1662   -1.2127   H         1 RES1   0.0000
   181 H94       6.1008    1.3846    1.5655   H         1 RES1   0.0000
   182 H95       4.7450    1.6904    2.6454   H         1 RES1   0.0000
   183 H96       5.5448    3.7900    1.8824   H         1 RES1   0.0000
   184 H97       3.9831    3.5339    1.1233   H         1 RES1   0.0000
   185 H98       6.4098    2.7085   -0.4387   H         1 RES1   0.0000
   186 H99       6.1938    4.4261   -0.1894   H         1 RES1   0.0000
   187 H100      3.8560    2.8662   -1.3222   H         1 RES1   0.0000
   188 H101      5.2388    3.2752   -2.3338   H         1 RES1   0.0000
   189 H102      3.6986    4.9704   -2.7027   H         1 RES1   0.0000
   190 H103      4.9234    5.6868   -1.6729   H         1 RES1   0.0000
   191 H104      2.6935    6.3994   -1.0198   H         1 RES1   0.0000
   192 H105      3.4756    5.5248    0.2812   H         1 RES1   0.0000
   193 H106      1.1626    4.8790    0.1763   H         1 RES1   0.0000
   194 H107      2.1181    3.4844   -0.3048   H         1 RES1   0.0000
   195 H108      0.5625    5.3265   -2.1590   H         1 RES1   0.0000
   196 H109      0.2052    3.6423   -1.7346   H         1 RES1   0.0000
   197 H110      1.6221    4.0271   -2.7157   H         1 RES1   0.0000
   198 H111      2.8672    0.3763    3.0190   H         1 RES1   0.0000
   199 H112      1.5150    2.9792    2.0843   H         1 RES1   0.0000
   200 H113      2.9333    2.8555    3.1291   H         1 RES1   0.0000
   201 H114      1.3536    2.3584    3.7181   H         1 RES1   0.0000
   202 H115      1.2823   -1.0140    3.7948   H         1 RES1   0.0000
   203 H116     -1.1905    0.7920    3.5690   H         1 RES1   0.0000
   204 H117      0.0948    0.9006    4.7721   H         1 RES1   0.0000
   205 H118     -1.0553   -0.4362    4.7998   H         1 RES1   0.0000
   206 H119     -1.2483   -3.8239    4.7877   H         1 RES1   0.0000
   207 H120     -0.4531   -2.2804    5.0821   H         1 RES1   0.0000
   208 H121      1.7353   -3.2838    4.5230   H         1 RES1   0.0000
   209 H122      0.9475   -4.7471    3.9661   H         1 RES1   0.0000
   210 H123      1.9508   -5.0432    6.1624   H         1 RES1   0.0000
   211 H124      0.2153   -5.2610    6.2547   H         1 RES1   0.0000
   212 H125      0.7226   -2.4736    6.8155   H         1 RES1   0.0000
   213 H126      1.8987   -3.4050    7.7208   H         1 RES1   0.0000
   214 H127     -0.0051   -3.0980    9.1176   H         1 RES1   0.0000
   215 H128      0.0826   -4.7976    8.6701   H         1 RES1   0.0000
   216 H129     -2.2026   -4.2506    8.5448   H         1 RES1   0.0000
   217 H130     -1.6769   -4.2943    6.8725   H         1 RES1   0.0000
   218 H131     -1.4913   -1.7486    6.9550   H         1 RES1   0.0000
   219 H132     -2.0938   -1.8157    8.6048   H         1 RES1   0.0000
   220 H133     -3.6062   -2.8201    6.1483   H         1 RES1   0.0000
   221 H134     -3.9346   -1.3185    7.0185   H         1 RES1   0.0000
   222 H135     -4.1998   -2.8692    7.8078   H         1 RES1   0.0000
   223 H136     -1.7375   -3.3156    1.3766   H         1 RES1   0.0000
   224 H137     -2.6326   -3.5157    2.8848   H         1 RES1   0.0000
   225 H138     -2.3772   -5.5820    1.9076   H         1 RES1   0.0000
   226 H139     -1.4455   -5.6192    3.3870   H         1 RES1   0.0000
   227 H140      0.5573   -5.9950    2.2681   H         1 RES1   0.0000
   228 H141      0.1029   -5.0195    0.8867   H         1 RES1   0.0000
   229 H142     -1.0405   -7.7595    1.5400   H         1 RES1   0.0000
   230 H143      0.3046   -7.4992    0.4537   H         1 RES1   0.0000
   231 H144     -2.0736   -5.8957   -0.2885   H         1 RES1   0.0000
   232 H145     -2.3913   -7.6200   -0.2786   H         1 RES1   0.0000
   233 H146     -0.6981   -8.0761   -1.8963   H         1 RES1   0.0000
   234 H147     -0.0043   -6.4690   -1.7385   H         1 RES1   0.0000
   235 H148     -2.4654   -5.6992   -2.5308   H         1 RES1   0.0000
   236 H149     -2.5388   -7.3269   -3.1573   H         1 RES1   0.0000
   237 H150     -1.7191   -5.7424   -4.8780   H         1 RES1   0.0000
   238 H151     -0.4999   -6.9540   -4.5022   H         1 RES1   0.0000
   239 H152     -0.3340   -5.3240   -3.8571   H         1 RES1   0.0000
   240 N5       -1.0137    1.9531    1.2540   N.3       1 RES1   0.0000
   241 O7       -1.1520    2.4725    2.3201   O.2       1 RES1   0.0000
   242 O8       -1.7235    0.9952    0.9014   O.co2     1 RES1   0.0000
   243 O9       -0.1583    2.3355    0.4535   O.co2     1 RES1   0.0000
@<TRIPOS>BOND
     1     1    20    1
     2     1    23    1
     3     1    27    1
     4     1   139    1
     5     1   142    1
     6     1   146    1
     7     1   242    1
     8     1   243    1
     9     2     3    1
    10     2    45    1
    11     2    46    1
    12     2    47    1
    13     3     4    1
    14     3    48    1
    15     3    49    1
    16     4     5    1
    17     4    50    1
    18     4    51    1
    19     5     6    1
    20     5    52    1
    21     5    53    1
    22     6     7    1
    23     6    54    1
    24     6    55    1
    25     7     8    1
    26     7    56    1
    27     7    57    1
    28     8     9    1
    29     8    58    1
    30     8    59    1
    31     9    10    1
    32     9    60    1
    33     9    61    1
    34    10    11    1
    35    10    19    1
    36    11    12    1
    37    11    62    1
    38    11    63    1
    39    12    13    1
    40    12    64    1
    41    12    65    1
    42    13    14    1
    43    13    66    1
    44    13    67    1
    45    14    15    1
    46    14    68    1
    47    14    69    1
    48    15    16    1
    49    15    70    1
    50    15    71    1
    51    16    17    1
    52    16    72    1
    53    16    73    1
    54    17    18    1
    55    17    74    1
    56    17    75    1
    57    18    76    1
    58    18    77    1
    59    18    78    1
    60    19    20    2
    61    19    21    1
    62    21    22    1
    63    21    23    1
    64    21    79    1
    65    22    80    1
    66    22    81    1
    67    22    82    1
    68    23    24    1
    69    24    25    1
    70    24    26    1
    71    24    83    1
    72    25    84    1
    73    25    85    1
    74    25    86    1
    75    26    27    2
    76    26    28    1
    77    28    29    1
    78    28    37    1
    79    29    30    1
    80    29    87    1
    81    29    88    1
    82    30    31    1
    83    30    89    1
    84    30    90    1
    85    31    32    1
    86    31    91    1
    87    31    92    1
    88    32    33    1
    89    32    93    1
    90    32    94    1
    91    33    34    1
    92    33    95    1
    93    33    96    1
    94    34    35    1
    95    34    97    1
    96    34    98    1
    97    35    36    1
    98    35    99    1
    99    35   100    1
   100    36   101    1
   101    36   102    1
   102    36   103    1
   103    37    38    1
   104    37   104    1
   105    37   105    1
   106    38    39    1
   107    38   106    1
   108    38   107    1
   109    39    40    1
   110    39   108    1
   111    39   109    1
   112    40    41    1
   113    40   110    1
   114    40   111    1
   115    41    42    1
   116    41   112    1
   117    41   113    1
   118    42    43    1
   119    42   114    1
   120    42   115    1
   121    43    44    1
   122    43   116    1
   123    43   117    1
   124    44   118    1
   125    44   119    1
   126    44   120    1
   127   121   122    1
   128   121   164    1
   129   121   165    1
   130   121   166    1
   131   122   123    1
   132   122   167    1
   133   122   168    1
   134   123   124    1
   135   123   169    1
   136   123   170    1
   137   124   125    1
   138   124   171    1
   139   124   172    1
   140   125   126    1
   141   125   173    1
   142   125   174    1
   143   126   127    1
   144   126   175    1
   145   126   176    1
   146   127   128    1
   147   127   177    1
   148   127   178    1
   149   128   129    1
   150   128   179    1
   151   128   180    1
   152   129   130    1
   153   129   138    1
   154   130   131    1
   155   130   181    1
   156   130   182    1
   157   131   132    1
   158   131   183    1
   159   131   184    1
   160   132   133    1
   161   132   185    1
   162   132   186    1
   163   133   134    1
   164   133   187    1
   165   133   188    1
   166   134   135    1
   167   134   189    1
   168   134   190    1
   169   135   136    1
   170   135   191    1
   171   135   192    1
   172   136   137    1
   173   136   193    1
   174   136   194    1
   175   137   195    1
   176   137   196    1
   177   137   197    1
   178   138   139    2
   179   138   140    1
   180   140   141    1
   181   140   142    1
   182   140   198    1
   183   141   199    1
   184   141   200    1
   185   141   201    1
   186   142   143    1
   187   143   144    1
   188   143   145    1
   189   143   202    1
   190   144   203    1
   191   144   204    1
   192   144   205    1
   193   145   146    2
   194   145   147    1
   195   147   148    1
   196   147   156    1
   197   148   149    1
   198   148   206    1
   199   148   207    1
   200   149   150    1
   201   149   208    1
   202   149   209    1
   203   150   151    1
   204   150   210    1
   205   150   211    1
   206   151   152    1
   207   151   212    1
   208   151   213    1
   209   152   153    1
   210   152   214    1
   211   152   215    1
   212   153   154    1
   213   153   216    1
   214   153   217    1
   215   154   155    1
   216   154   218    1
   217   154   219    1
   218   155   220    1
   219   155   221    1
   220   155   222    1
   221   156   157    1
   222   156   223    1
   223   156   224    1
   224   157   158    1
   225   157   225    1
   226   157   226    1
   227   158   159    1
   228   158   227    1
   229   158   228    1
   230   159   160    1
   231   159   229    1
   232   159   230    1
   233   160   161    1
   234   160   231    1
   235   160   232    1
   236   161   162    1
   237   161   233    1
   238   161   234    1
   239   162   163    1
   240   162   235    1
   241   162   236    1
   242   163   237    1
   243   163   238    1
   244   163   239    1
   245   240   241    2
   246   240   242    1
   247   240   243    1
@<TRIPOS>SUBSTRUCTURE
     1 RES1      243 GROUP             0 ****  ****    0  
