@<TRIPOS>MOLECULE
YEMSEP_geometry_0_nunpairedes_0_charge_2 Charge: 2 Unpaired_Electrons: 5 XTB_Unpaired_Electrons: 0 XTB_Charge: 2
   297   301     1     0     0
SMALL
NoCharges
****
Generated from Architector

@<TRIPOS>ATOM
     1 Dy1      -0.2486    0.0061    0.1638   Dy        1 RES1   0.0000
     2 C1        2.7193    6.5046    3.2394   C.3       1 RES1   0.0000
     3 C2        1.8265    7.4140    4.0764   C.3       1 RES1   0.0000
     4 C3        0.3342    7.1629    3.8508   C.3       1 RES1   0.0000
     5 C4       -0.1810    5.8457    4.4373   C.3       1 RES1   0.0000
     6 C5       -0.1228    5.7978    5.9738   C.3       1 RES1   0.0000
     7 C6        0.9392    4.8487    6.5332   C.3       1 RES1   0.0000
     8 C7        0.5269    3.3884    6.3430   C.3       1 RES1   0.0000
     9 C8        1.6854    2.4155    6.5873   C.3       1 RES1   0.0000
    10 C9        1.4317    1.0531    5.9250   C.3       1 RES1   0.0000
    11 C10       2.6270    0.5466    5.0972   C.3       1 RES1   0.0000
    12 N1        2.1470   -0.2932    4.0106   N.am      1 RES1   0.0000
    13 C11       1.8526   -1.6948    4.3247   C.3       1 RES1   0.0000
    14 C12       3.1044   -2.3591    4.9159   C.3       1 RES1   0.0000
    15 C13       3.3275   -3.8328    4.5752   C.3       1 RES1   0.0000
    16 C14       4.7714   -4.2495    4.8857   C.3       1 RES1   0.0000
    17 C15       5.7957   -3.6906    3.8900   C.3       1 RES1   0.0000
    18 C16       7.2015   -3.5176    4.4714   C.3       1 RES1   0.0000
    19 C17       7.3499   -2.4420    5.5491   C.3       1 RES1   0.0000
    20 C18       6.9119   -1.0587    5.0691   C.3       1 RES1   0.0000
    21 C19       7.4139    0.0651    5.9774   C.3       1 RES1   0.0000
    22 C20       6.6894    1.3812    5.7045   C.3       1 RES1   0.0000
    23 C21       1.6517    0.2662    2.9088   C.2       1 RES1   0.0000
    24 O1        0.7466   -0.2653    2.2312   O.2       1 RES1   0.0000
    25 C22       2.3426    1.5332    2.3545   C.3       1 RES1   0.0000
    26 C23       1.7516    2.8614    2.8083   C.3       1 RES1   0.0000
    27 O2        2.2494    1.4617    0.9258   O.3       1 RES1   0.0000
    28 C24       3.2965    0.6874    0.3436   C.3       1 RES1   0.0000
    29 C25       4.5017    1.4990   -0.1395   C.3       1 RES1   0.0000
    30 C26       4.1444    2.8724   -0.6875   C.3       1 RES1   0.0000
    31 C27       2.6055   -0.3078   -0.5731   C.2       1 RES1   0.0000
    32 O3        1.6766   -0.9340   -0.0185   O.2       1 RES1   0.0000
    33 N2        3.0759   -0.7397   -1.7443   N.am      1 RES1   0.0000
    34 C28       2.6181   -2.1016   -2.0498   C.3       1 RES1   0.0000
    35 C29       3.1424   -3.1460   -1.0471   C.3       1 RES1   0.0000
    36 C30       2.4161   -4.4861   -1.2644   C.3       1 RES1   0.0000
    37 C31       2.1354   -5.3513   -0.0271   C.3       1 RES1   0.0000
    38 C32       1.0754   -4.8259    0.9783   C.3       1 RES1   0.0000
    39 C33       0.2550   -3.6416    0.4705   C.3       1 RES1   0.0000
    40 C34      -0.7104   -3.0076    1.4797   C.3       1 RES1   0.0000
    41 C35      -2.0995   -3.6314    1.5294   C.3       1 RES1   0.0000
    42 C36      -2.8119   -3.5938    0.1821   C.3       1 RES1   0.0000
    43 C37      -4.2821   -3.9785    0.3201   C.3       1 RES1   0.0000
    44 C38       3.2621    0.1719   -2.8633   C.3       1 RES1   0.0000
    45 C39       1.8987    0.6881   -3.3586   C.3       1 RES1   0.0000
    46 C40       1.9248    1.1308   -4.8238   C.3       1 RES1   0.0000
    47 C41       0.5718    0.9816   -5.5389   C.3       1 RES1   0.0000
    48 C42      -0.3438    2.2100   -5.4947   C.3       1 RES1   0.0000
    49 C43      -1.7848    1.8490   -5.8663   C.3       1 RES1   0.0000
    50 C44      -2.6920    3.0661   -6.0593   C.3       1 RES1   0.0000
    51 C45      -4.1636    2.6653   -6.1990   C.3       1 RES1   0.0000
    52 C46      -4.9161    2.5773   -4.8682   C.3       1 RES1   0.0000
    53 C47      -5.4346    3.9277   -4.3792   C.3       1 RES1   0.0000
    54 H1        3.7606    6.7965    3.3465   H         1 RES1   0.0000
    55 H2        2.4514    6.5748    2.1857   H         1 RES1   0.0000
    56 H3        2.6252    5.4708    3.5602   H         1 RES1   0.0000
    57 H4        2.0420    8.4521    3.8189   H         1 RES1   0.0000
    58 H5        2.0681    7.2839    5.1316   H         1 RES1   0.0000
    59 H6        0.1371    7.1700    2.7739   H         1 RES1   0.0000
    60 H7       -0.2367    7.9837    4.2909   H         1 RES1   0.0000
    61 H8        0.3877    5.0200    4.0096   H         1 RES1   0.0000
    62 H9       -1.2175    5.7192    4.1184   H         1 RES1   0.0000
    63 H10      -1.0893    5.4795    6.3677   H         1 RES1   0.0000
    64 H11       0.0648    6.8028    6.3488   H         1 RES1   0.0000
    65 H12       1.0834    5.0442    7.5985   H         1 RES1   0.0000
    66 H13       1.8956    5.0224    6.0317   H         1 RES1   0.0000
    67 H14       0.1587    3.2551    5.3221   H         1 RES1   0.0000
    68 H15      -0.2999    3.1446    7.0131   H         1 RES1   0.0000
    69 H16       1.8394    2.2852    7.6575   H         1 RES1   0.0000
    70 H17       2.6047    2.8518    6.1863   H         1 RES1   0.0000
    71 H18       0.5706    1.1459    5.2590   H         1 RES1   0.0000
    72 H19       1.1733    0.3085    6.6764   H         1 RES1   0.0000
    73 H20       3.3110   -0.0267    5.7193   H         1 RES1   0.0000
    74 H21       3.1781    1.3903    4.6824   H         1 RES1   0.0000
    75 H22       1.5738   -2.1660    3.3797   H         1 RES1   0.0000
    76 H23       1.0029   -1.7541    5.0095   H         1 RES1   0.0000
    77 H24       3.0897   -2.2579    5.9997   H         1 RES1   0.0000
    78 H25       3.9674   -1.8175    4.5320   H         1 RES1   0.0000
    79 H26       3.1388   -4.0051    3.5157   H         1 RES1   0.0000
    80 H27       2.6421   -4.4539    5.1521   H         1 RES1   0.0000
    81 H28       4.8340   -5.3381    4.8768   H         1 RES1   0.0000
    82 H29       5.0177   -3.9243    5.8948   H         1 RES1   0.0000
    83 H30       5.4582   -2.7344    3.4884   H         1 RES1   0.0000
    84 H31       5.8653   -4.3696    3.0381   H         1 RES1   0.0000
    85 H32       7.8761   -3.2623    3.6513   H         1 RES1   0.0000
    86 H33       7.5343   -4.4705    4.8804   H         1 RES1   0.0000
    87 H34       8.4036   -2.4000    5.8308   H         1 RES1   0.0000
    88 H35       6.7924   -2.7106    6.4483   H         1 RES1   0.0000
    89 H36       5.8201   -1.0159    5.0324   H         1 RES1   0.0000
    90 H37       7.2870   -0.8948    4.0539   H         1 RES1   0.0000
    91 H38       8.4855    0.2038    5.8177   H         1 RES1   0.0000
    92 H39       7.2666   -0.2162    7.0231   H         1 RES1   0.0000
    93 H40       6.7755    1.6550    4.6527   H         1 RES1   0.0000
    94 H41       7.1219    2.1792    6.3034   H         1 RES1   0.0000
    95 H42       5.6321    1.2972    5.9596   H         1 RES1   0.0000
    96 H43       3.4045    1.4939    2.6356   H         1 RES1   0.0000
    97 H44       0.6882    2.8986    2.5901   H         1 RES1   0.0000
    98 H45       2.2557    3.6545    2.2591   H         1 RES1   0.0000
    99 H46       1.9004    3.0048    3.8741   H         1 RES1   0.0000
   100 H47       3.6707   -0.0139    1.1113   H         1 RES1   0.0000
   101 H48       5.1995    1.6144    0.6927   H         1 RES1   0.0000
   102 H49       5.0295    0.8991   -0.8775   H         1 RES1   0.0000
   103 H50       3.3562    2.8134   -1.4312   H         1 RES1   0.0000
   104 H51       5.0138    3.3242   -1.1523   H         1 RES1   0.0000
   105 H52       3.8118    3.5194    0.1169   H         1 RES1   0.0000
   106 H53       2.9425   -2.3518   -3.0538   H         1 RES1   0.0000
   107 H54       1.5307   -2.1062   -2.0058   H         1 RES1   0.0000
   108 H55       2.9806   -2.8001   -0.0276   H         1 RES1   0.0000
   109 H56       4.2166   -3.2690   -1.1680   H         1 RES1   0.0000
   110 H57       3.0026   -5.0822   -1.9637   H         1 RES1   0.0000
   111 H58       1.4561   -4.2957   -1.7389   H         1 RES1   0.0000
   112 H59       3.0713   -5.5472    0.4990   H         1 RES1   0.0000
   113 H60       1.7928   -6.3191   -0.4018   H         1 RES1   0.0000
   114 H61       1.5703   -4.5293    1.9044   H         1 RES1   0.0000
   115 H62       0.4263   -5.6636    1.2329   H         1 RES1   0.0000
   116 H63      -0.2982   -3.9247   -0.4229   H         1 RES1   0.0000
   117 H64       0.9652   -2.8732    0.1954   H         1 RES1   0.0000
   118 H65      -0.8430   -1.9401    1.1831   H         1 RES1   0.0000
   119 H66      -0.2737   -3.0367    2.4808   H         1 RES1   0.0000
   120 H67      -2.6983   -3.0758    2.2515   H         1 RES1   0.0000
   121 H68      -2.0257   -4.6613    1.8696   H         1 RES1   0.0000
   122 H69      -2.3346   -4.3143   -0.4829   H         1 RES1   0.0000
   123 H70      -2.7008   -2.5890   -0.2492   H         1 RES1   0.0000
   124 H71      -4.3464   -4.8955    0.9002   H         1 RES1   0.0000
   125 H72      -4.7261   -4.1645   -0.6574   H         1 RES1   0.0000
   126 H73      -4.8521   -3.2122    0.8413   H         1 RES1   0.0000
   127 H74       3.7726   -0.3745   -3.6571   H         1 RES1   0.0000
   128 H75       3.8811    1.0136   -2.5709   H         1 RES1   0.0000
   129 H76       1.5686    1.5124   -2.7252   H         1 RES1   0.0000
   130 H77       1.1623   -0.1084   -3.2394   H         1 RES1   0.0000
   131 H78       2.6556    0.5253   -5.3592   H         1 RES1   0.0000
   132 H79       2.2731    2.1591   -4.8955   H         1 RES1   0.0000
   133 H80       0.0294    0.1405   -5.1010   H         1 RES1   0.0000
   134 H81       0.7584    0.7249   -6.5827   H         1 RES1   0.0000
   135 H82       0.0090    2.9696   -6.1942   H         1 RES1   0.0000
   136 H83      -0.3312    2.6503   -4.4944   H         1 RES1   0.0000
   137 H84      -2.2062    1.2016   -5.0902   H         1 RES1   0.0000
   138 H85      -1.7814    1.2639   -6.7881   H         1 RES1   0.0000
   139 H86      -2.3829    3.5906   -6.9619   H         1 RES1   0.0000
   140 H87      -2.5709    3.7608   -5.2276   H         1 RES1   0.0000
   141 H88      -4.2044    1.6976   -6.7006   H         1 RES1   0.0000
   142 H89      -4.6819    3.3804   -6.8360   H         1 RES1   0.0000
   143 H90      -4.2687    2.1392   -4.1018   H         1 RES1   0.0000
   144 H91      -5.7710    1.9086   -4.9859   H         1 RES1   0.0000
   145 H92      -6.1569    4.3324   -5.0851   H         1 RES1   0.0000
   146 H93      -4.6304    4.6533   -4.2693   H         1 RES1   0.0000
   147 H94      -5.9399    3.8178   -3.4193   H         1 RES1   0.0000
   148 C48      -7.0081    2.0025    0.9542   C.3       1 RES1   0.0000
   149 C49      -7.9539    2.6001    1.9910   C.3       1 RES1   0.0000
   150 C50      -7.4752    2.4000    3.4302   C.3       1 RES1   0.0000
   151 C51      -6.1306    3.0381    3.7912   C.3       1 RES1   0.0000
   152 C52      -6.1186    4.5722    3.7985   C.3       1 RES1   0.0000
   153 C53      -5.7130    5.2244    2.4722   C.3       1 RES1   0.0000
   154 C54      -4.2216    5.0368    2.1863   C.3       1 RES1   0.0000
   155 C55      -3.8370    5.3309    0.7333   C.3       1 RES1   0.0000
   156 C56      -2.3948    4.8889    0.4516   C.3       1 RES1   0.0000
   157 C57      -2.0768    4.6483   -1.0392   C.3       1 RES1   0.0000
   158 N3       -1.0040    3.6783   -1.1633   N.am      1 RES1   0.0000
   159 C58       0.3182    4.0772   -0.6505   C.3       1 RES1   0.0000
   160 C59       0.7687    5.5265   -0.8159   C.3       1 RES1   0.0000
   161 C60       1.4704    5.8738   -2.1394   C.3       1 RES1   0.0000
   162 C61       0.6345    6.6593   -3.1549   C.3       1 RES1   0.0000
   163 C62      -0.3158    5.8089   -4.0048   C.3       1 RES1   0.0000
   164 C63      -0.5628    6.4027   -5.3939   C.3       1 RES1   0.0000
   165 C64      -1.5123    7.6002   -5.4223   C.3       1 RES1   0.0000
   166 C65      -2.9724    7.2083   -5.1914   C.3       1 RES1   0.0000
   167 C66      -3.9404    8.3337   -5.5523   C.3       1 RES1   0.0000
   168 C67      -5.3866    7.9469   -5.2699   C.3       1 RES1   0.0000
   169 C68      -1.1623    2.3732   -1.3407   C.2       1 RES1   0.0000
   170 O4       -0.1672    1.6058   -1.2661   O.2       1 RES1   0.0000
   171 C69      -2.5091    1.6934   -1.7231   C.3       1 RES1   0.0000
   172 C70      -3.7018    2.0218   -0.8090   C.3       1 RES1   0.0000
   173 O5       -2.2466    0.2812   -1.6244   O.3       1 RES1   0.0000
   174 C71      -2.5833   -0.6160   -2.6893   C.3       1 RES1   0.0000
   175 C72      -3.9772   -1.2857   -2.5005   C.3       1 RES1   0.0000
   176 C73      -4.7487   -0.9301   -1.2284   C.3       1 RES1   0.0000
   177 C74      -1.3663   -1.5854   -2.7654   C.2       1 RES1   0.0000
   178 O6       -0.4353   -1.3721   -1.9548   O.2       1 RES1   0.0000
   179 N4       -1.2772   -2.5336   -3.7024   N.am      1 RES1   0.0000
   180 C75      -0.0289   -3.2714   -3.9186   C.3       1 RES1   0.0000
   181 C76       0.8826   -2.6177   -4.9685   C.3       1 RES1   0.0000
   182 C77       2.1668   -3.4318   -5.2291   C.3       1 RES1   0.0000
   183 C78       3.3253   -2.5458   -5.7273   C.3       1 RES1   0.0000
   184 C79       4.7260   -3.1516   -5.5557   C.3       1 RES1   0.0000
   185 C80       5.3509   -2.9842   -4.1532   C.3       1 RES1   0.0000
   186 C81       6.7484   -2.3465   -4.1550   C.3       1 RES1   0.0000
   187 C82       7.7184   -2.8194   -3.0544   C.3       1 RES1   0.0000
   188 C83       7.7906   -1.9455   -1.7949   C.3       1 RES1   0.0000
   189 C84       6.5829   -2.0538   -0.8679   C.3       1 RES1   0.0000
   190 C85      -2.4057   -3.1249   -4.4059   C.3       1 RES1   0.0000
   191 C86      -2.9913   -4.3181   -3.6098   C.3       1 RES1   0.0000
   192 C87      -2.3791   -5.7078   -3.8916   C.3       1 RES1   0.0000
   193 C88      -1.5706   -6.2829   -2.7101   C.3       1 RES1   0.0000
   194 C89      -2.5013   -6.9589   -1.6978   C.3       1 RES1   0.0000
   195 C90      -1.8582   -7.3595   -0.3626   C.3       1 RES1   0.0000
   196 C91      -2.9470   -7.6499    0.6783   C.3       1 RES1   0.0000
   197 C92      -2.4853   -8.2636    2.0043   C.3       1 RES1   0.0000
   198 C93      -1.7520   -7.3147    2.9560   C.3       1 RES1   0.0000
   199 C94      -2.6868   -6.3968    3.7430   C.3       1 RES1   0.0000
   200 H95      -7.4209    2.1335   -0.0441   H         1 RES1   0.0000
   201 H96      -6.8733    0.9376    1.1356   H         1 RES1   0.0000
   202 H97      -6.0354    2.4874    0.9910   H         1 RES1   0.0000
   203 H98      -8.9288    2.1178    1.8926   H         1 RES1   0.0000
   204 H99      -8.1014    3.6623    1.7918   H         1 RES1   0.0000
   205 H100     -7.3940    1.3253    3.6171   H         1 RES1   0.0000
   206 H101     -8.2369    2.7921    4.1077   H         1 RES1   0.0000
   207 H102     -5.3577    2.6535    3.1256   H         1 RES1   0.0000
   208 H103     -5.8746    2.6939    4.7953   H         1 RES1   0.0000
   209 H104     -5.4194    4.9151    4.5640   H         1 RES1   0.0000
   210 H105     -7.1090    4.9239    4.0883   H         1 RES1   0.0000
   211 H106     -5.9415    6.2912    2.5126   H         1 RES1   0.0000
   212 H107     -6.2941    4.7985    1.6553   H         1 RES1   0.0000
   213 H108     -3.9501    4.0035    2.4153   H         1 RES1   0.0000
   214 H109     -3.6406    5.6792    2.8499   H         1 RES1   0.0000
   215 H110     -3.9422    6.3975    0.5350   H         1 RES1   0.0000
   216 H111     -4.5375    4.8111    0.0734   H         1 RES1   0.0000
   217 H112     -2.1935    3.9621    0.9986   H         1 RES1   0.0000
   218 H113     -1.7141    5.6396    0.8548   H         1 RES1   0.0000
   219 H114     -1.7471    5.5713   -1.5134   H         1 RES1   0.0000
   220 H115     -2.9479    4.2938   -1.5895   H         1 RES1   0.0000
   221 H116      1.0493    3.4322   -1.1421   H         1 RES1   0.0000
   222 H117      0.3199    3.8147    0.4136   H         1 RES1   0.0000
   223 H118      1.4965    5.6679   -0.0169   H         1 RES1   0.0000
   224 H119     -0.0380    6.2307   -0.6217   H         1 RES1   0.0000
   225 H120      1.8490    4.9653   -2.6121   H         1 RES1   0.0000
   226 H121      2.3457    6.4792   -1.8937   H         1 RES1   0.0000
   227 H122      1.3365    7.1544   -3.8276   H         1 RES1   0.0000
   228 H123      0.0849    7.4431   -2.6324   H         1 RES1   0.0000
   229 H124     -1.2747    5.6734   -3.5044   H         1 RES1   0.0000
   230 H125      0.1268    4.8190   -4.1364   H         1 RES1   0.0000
   231 H126     -0.9793    5.6262   -6.0376   H         1 RES1   0.0000
   232 H127      0.3988    6.6915   -5.8218   H         1 RES1   0.0000
   233 H128     -1.4326    8.0624   -6.4072   H         1 RES1   0.0000
   234 H129     -1.2039    8.3420   -4.6849   H         1 RES1   0.0000
   235 H130     -3.1258    6.9273   -4.1453   H         1 RES1   0.0000
   236 H131     -3.2078    6.3367   -5.8089   H         1 RES1   0.0000
   237 H132     -3.8288    8.5684   -6.6128   H         1 RES1   0.0000
   238 H133     -3.6864    9.2323   -4.9873   H         1 RES1   0.0000
   239 H134     -5.6436    7.0297   -5.7948   H         1 RES1   0.0000
   240 H135     -6.0592    8.7340   -5.5965   H         1 RES1   0.0000
   241 H136     -5.5457    7.7888   -4.2055   H         1 RES1   0.0000
   242 H137     -2.7285    1.9792   -2.7636   H         1 RES1   0.0000
   243 H138     -3.7248    1.3154    0.0187   H         1 RES1   0.0000
   244 H139     -4.6375    1.9410   -1.3577   H         1 RES1   0.0000
   245 H140     -3.6531    3.0100   -0.3861   H         1 RES1   0.0000
   246 H141     -2.5693   -0.0692   -3.6433   H         1 RES1   0.0000
   247 H142     -4.5965   -1.0314   -3.3611   H         1 RES1   0.0000
   248 H143     -3.8393   -2.3581   -2.4839   H         1 RES1   0.0000
   249 H144     -5.3473   -0.0371   -1.3635   H         1 RES1   0.0000
   250 H145     -4.0844   -0.8024   -0.3782   H         1 RES1   0.0000
   251 H146     -5.4305   -1.7429   -0.9961   H         1 RES1   0.0000
   252 H147     -0.2703   -4.2764   -4.2529   H         1 RES1   0.0000
   253 H148      0.4928   -3.3624   -2.9698   H         1 RES1   0.0000
   254 H149      1.1653   -1.6255   -4.6231   H         1 RES1   0.0000
   255 H150      0.3377   -2.4995   -5.9087   H         1 RES1   0.0000
   256 H151      1.9657   -4.2031   -5.9749   H         1 RES1   0.0000
   257 H152      2.4622   -3.9523   -4.3177   H         1 RES1   0.0000
   258 H153      3.2890   -1.5799   -5.2211   H         1 RES1   0.0000
   259 H154      3.1657   -2.3439   -6.7852   H         1 RES1   0.0000
   260 H155      5.3905   -2.6986   -6.2923   H         1 RES1   0.0000
   261 H156      4.6751   -4.2119   -5.7972   H         1 RES1   0.0000
   262 H157      5.4148   -3.9588   -3.6741   H         1 RES1   0.0000
   263 H158      4.7160   -2.3616   -3.5303   H         1 RES1   0.0000
   264 H159      6.6322   -1.2640   -4.0792   H         1 RES1   0.0000
   265 H160      7.2109   -2.5565   -5.1169   H         1 RES1   0.0000
   266 H161      8.7170   -2.8543   -3.4983   H         1 RES1   0.0000
   267 H162      7.4795   -3.8397   -2.7514   H         1 RES1   0.0000
   268 H163      7.9063   -0.8964   -2.0758   H         1 RES1   0.0000
   269 H164      8.6928   -2.2250   -1.2459   H         1 RES1   0.0000
   270 H165      6.4412   -3.0747   -0.5209   H         1 RES1   0.0000
   271 H166      5.6782   -1.7306   -1.3788   H         1 RES1   0.0000
   272 H167      6.7258   -1.4192    0.0054   H         1 RES1   0.0000
   273 H168     -2.0707   -3.4656   -5.3874   H         1 RES1   0.0000
   274 H169     -3.1698   -2.3686   -4.5656   H         1 RES1   0.0000
   275 H170     -4.0622   -4.3402   -3.8127   H         1 RES1   0.0000
   276 H171     -2.8665   -4.1189   -2.5463   H         1 RES1   0.0000
   277 H172     -1.7621   -5.6647   -4.7911   H         1 RES1   0.0000
   278 H173     -3.1837   -6.4126   -4.1090   H         1 RES1   0.0000
   279 H174     -0.9937   -5.4905   -2.2235   H         1 RES1   0.0000
   280 H175     -0.8550   -7.0171   -3.0831   H         1 RES1   0.0000
   281 H176     -2.9110   -7.8557   -2.1654   H         1 RES1   0.0000
   282 H177     -3.3336   -6.2796   -1.5039   H         1 RES1   0.0000
   283 H178     -1.2098   -6.5572   -0.0080   H         1 RES1   0.0000
   284 H179     -1.2403   -8.2482   -0.5100   H         1 RES1   0.0000
   285 H180     -3.6515   -8.3490    0.2272   H         1 RES1   0.0000
   286 H181     -3.4906   -6.7279    0.8883   H         1 RES1   0.0000
   287 H182     -1.8398   -9.1174    1.7951   H         1 RES1   0.0000
   288 H183     -3.3654   -8.6427    2.5300   H         1 RES1   0.0000
   289 H184     -1.0275   -6.7199    2.3957   H         1 RES1   0.0000
   290 H185     -1.1882   -7.9171    3.6714   H         1 RES1   0.0000
   291 H186     -3.4129   -5.9091    3.0965   H         1 RES1   0.0000
   292 H187     -2.1177   -5.6227    4.2557   H         1 RES1   0.0000
   293 H188     -3.2361   -6.9615    4.4929   H         1 RES1   0.0000
   294 N5       -1.5345    0.8907    1.9563   N.3       1 RES1   0.0000
   295 O7       -1.7247    0.9608    3.1255   O.2       1 RES1   0.0000
   296 O8       -0.8930    1.7638    1.3559   O.co2     1 RES1   0.0000
   297 O9       -2.0086   -0.0207    1.2581   O.co2     1 RES1   0.0000
@<TRIPOS>BOND
     1     1    24    1
     2     1    27    1
     3     1    32    1
     4     1   170    1
     5     1   173    1
     6     1   178    1
     7     1   296    1
     8     1   297    1
     9     2     3    1
    10     2    54    1
    11     2    55    1
    12     2    56    1
    13     3     4    1
    14     3    57    1
    15     3    58    1
    16     4     5    1
    17     4    59    1
    18     4    60    1
    19     5     6    1
    20     5    61    1
    21     5    62    1
    22     6     7    1
    23     6    63    1
    24     6    64    1
    25     7     8    1
    26     7    65    1
    27     7    66    1
    28     8     9    1
    29     8    67    1
    30     8    68    1
    31     9    10    1
    32     9    69    1
    33     9    70    1
    34    10    11    1
    35    10    71    1
    36    10    72    1
    37    11    12    1
    38    11    73    1
    39    11    74    1
    40    12    13    1
    41    12    23    1
    42    13    14    1
    43    13    75    1
    44    13    76    1
    45    14    15    1
    46    14    77    1
    47    14    78    1
    48    15    16    1
    49    15    79    1
    50    15    80    1
    51    16    17    1
    52    16    81    1
    53    16    82    1
    54    17    18    1
    55    17    83    1
    56    17    84    1
    57    18    19    1
    58    18    85    1
    59    18    86    1
    60    19    20    1
    61    19    87    1
    62    19    88    1
    63    20    21    1
    64    20    89    1
    65    20    90    1
    66    21    22    1
    67    21    91    1
    68    21    92    1
    69    22    93    1
    70    22    94    1
    71    22    95    1
    72    23    24    2
    73    23    25    1
    74    25    26    1
    75    25    27    1
    76    25    96    1
    77    26    97    1
    78    26    98    1
    79    26    99    1
    80    27    28    1
    81    28    29    1
    82    28    31    1
    83    28   100    1
    84    29    30    1
    85    29   101    1
    86    29   102    1
    87    30   103    1
    88    30   104    1
    89    30   105    1
    90    31    32    2
    91    31    33    1
    92    33    34    1
    93    33    44    1
    94    34    35    1
    95    34   106    1
    96    34   107    1
    97    35    36    1
    98    35   108    1
    99    35   109    1
   100    36    37    1
   101    36   110    1
   102    36   111    1
   103    37    38    1
   104    37   112    1
   105    37   113    1
   106    38    39    1
   107    38   114    1
   108    38   115    1
   109    39    40    1
   110    39   116    1
   111    39   117    1
   112    40    41    1
   113    40   118    1
   114    40   119    1
   115    41    42    1
   116    41   120    1
   117    41   121    1
   118    42    43    1
   119    42   122    1
   120    42   123    1
   121    43   124    1
   122    43   125    1
   123    43   126    1
   124    44    45    1
   125    44   127    1
   126    44   128    1
   127    45    46    1
   128    45   129    1
   129    45   130    1
   130    46    47    1
   131    46   131    1
   132    46   132    1
   133    47    48    1
   134    47   133    1
   135    47   134    1
   136    48    49    1
   137    48   135    1
   138    48   136    1
   139    49    50    1
   140    49   137    1
   141    49   138    1
   142    50    51    1
   143    50   139    1
   144    50   140    1
   145    51    52    1
   146    51   141    1
   147    51   142    1
   148    52    53    1
   149    52   143    1
   150    52   144    1
   151    53   145    1
   152    53   146    1
   153    53   147    1
   154   148   149    1
   155   148   200    1
   156   148   201    1
   157   148   202    1
   158   149   150    1
   159   149   203    1
   160   149   204    1
   161   150   151    1
   162   150   205    1
   163   150   206    1
   164   151   152    1
   165   151   207    1
   166   151   208    1
   167   152   153    1
   168   152   209    1
   169   152   210    1
   170   153   154    1
   171   153   211    1
   172   153   212    1
   173   154   155    1
   174   154   213    1
   175   154   214    1
   176   155   156    1
   177   155   215    1
   178   155   216    1
   179   156   157    1
   180   156   217    1
   181   156   218    1
   182   157   158    1
   183   157   219    1
   184   157   220    1
   185   158   159    1
   186   158   169    1
   187   159   160    1
   188   159   221    1
   189   159   222    1
   190   160   161    1
   191   160   223    1
   192   160   224    1
   193   161   162    1
   194   161   225    1
   195   161   226    1
   196   162   163    1
   197   162   227    1
   198   162   228    1
   199   163   164    1
   200   163   229    1
   201   163   230    1
   202   164   165    1
   203   164   231    1
   204   164   232    1
   205   165   166    1
   206   165   233    1
   207   165   234    1
   208   166   167    1
   209   166   235    1
   210   166   236    1
   211   167   168    1
   212   167   237    1
   213   167   238    1
   214   168   239    1
   215   168   240    1
   216   168   241    1
   217   169   170    2
   218   169   171    1
   219   171   172    1
   220   171   173    1
   221   171   242    1
   222   172   243    1
   223   172   244    1
   224   172   245    1
   225   173   174    1
   226   174   175    1
   227   174   177    1
   228   174   246    1
   229   175   176    1
   230   175   247    1
   231   175   248    1
   232   176   249    1
   233   176   250    1
   234   176   251    1
   235   177   178    2
   236   177   179    1
   237   179   180    1
   238   179   190    1
   239   180   181    1
   240   180   252    1
   241   180   253    1
   242   181   182    1
   243   181   254    1
   244   181   255    1
   245   182   183    1
   246   182   256    1
   247   182   257    1
   248   183   184    1
   249   183   258    1
   250   183   259    1
   251   184   185    1
   252   184   260    1
   253   184   261    1
   254   185   186    1
   255   185   262    1
   256   185   263    1
   257   186   187    1
   258   186   264    1
   259   186   265    1
   260   187   188    1
   261   187   266    1
   262   187   267    1
   263   188   189    1
   264   188   268    1
   265   188   269    1
   266   189   270    1
   267   189   271    1
   268   189   272    1
   269   190   191    1
   270   190   273    1
   271   190   274    1
   272   191   192    1
   273   191   275    1
   274   191   276    1
   275   192   193    1
   276   192   277    1
   277   192   278    1
   278   193   194    1
   279   193   279    1
   280   193   280    1
   281   194   195    1
   282   194   281    1
   283   194   282    1
   284   195   196    1
   285   195   283    1
   286   195   284    1
   287   196   197    1
   288   196   285    1
   289   196   286    1
   290   197   198    1
   291   197   287    1
   292   197   288    1
   293   198   199    1
   294   198   289    1
   295   198   290    1
   296   199   291    1
   297   199   292    1
   298   199   293    1
   299   294   295    2
   300   294   296    1
   301   294   297    1
@<TRIPOS>SUBSTRUCTURE
     1 RES1      297 GROUP             0 ****  ****    0  
