@<TRIPOS>MOLECULE
YEMSEP_geometry_0_nunpairedes_0_charge_3 Charge: 3 Unpaired_Electrons: 5 XTB_Unpaired_Electrons: 0 XTB_Charge: 3
   247   252     1     0     0
SMALL
NoCharges
****
Generated from Architector

@<TRIPOS>ATOM
     1 Dy1      -0.0578   -0.0143   -0.0548   Dy        1 RES1   0.0000
     2 C1       -6.3007   -4.3580    4.8005   C.3       1 RES1   0.0000
     3 C2       -7.6012   -3.9805    4.0995   C.3       1 RES1   0.0000
     4 C3       -7.5580   -2.5826    3.4789   C.3       1 RES1   0.0000
     5 C4       -7.4748   -1.4728    4.5253   C.3       1 RES1   0.0000
     6 C5       -7.5670   -0.0626    3.9426   C.3       1 RES1   0.0000
     7 C6       -6.4829    0.2944    2.9234   C.3       1 RES1   0.0000
     8 C7       -5.0659    0.2651    3.5050   C.3       1 RES1   0.0000
     9 C8       -4.0302    0.5031    2.4062   C.3       1 RES1   0.0000
    10 P1       -2.2946    0.0714    2.8333   P.3       1 RES1   0.0000
    11 O1       -1.5347   -0.2919    1.5916   O.2       1 RES1   0.0000
    12 C9       -2.2989   -1.3517    3.9721   C.3       1 RES1   0.0000
    13 C10      -0.9005   -1.9489    4.1162   C.3       1 RES1   0.0000
    14 C11      -0.9280   -3.2878    4.8633   C.3       1 RES1   0.0000
    15 C12      -0.7568   -3.1265    6.3752   C.3       1 RES1   0.0000
    16 C13      -1.7861   -2.2423    7.0796   C.3       1 RES1   0.0000
    17 C14      -3.2522   -2.6727    6.9335   C.3       1 RES1   0.0000
    18 C15      -3.7097   -3.6671    8.0011   C.3       1 RES1   0.0000
    19 C16      -3.1545   -5.0702    7.7977   C.3       1 RES1   0.0000
    20 C17      -1.4158    1.5376    3.5556   C.3       1 RES1   0.0000
    21 C18       0.0224    1.2917    3.8746   C.ar      1 RES1   0.0000
    22 C19       0.4336    1.1379    5.1903   C.ar      1 RES1   0.0000
    23 C20       1.7745    0.9976    5.4985   C.ar      1 RES1   0.0000
    24 C21       2.6958    1.0455    4.4659   C.ar      1 RES1   0.0000
    25 C22       2.2723    1.2196    3.1517   C.ar      1 RES1   0.0000
    26 C23       3.3016    1.4273    2.0792   C.3       1 RES1   0.0000
    27 P2        3.2044    1.0430    0.2395   P.3       1 RES1   0.0000
    28 O2        2.2300   -0.0432   -0.1473   O.2       1 RES1   0.0000
    29 C24       2.9479    2.4705   -0.8756   C.3       1 RES1   0.0000
    30 C25       3.9495    3.6200   -0.7945   C.3       1 RES1   0.0000
    31 C26       3.4281    4.8290   -1.5787   C.3       1 RES1   0.0000
    32 C27       2.1781    5.4753   -0.9801   C.3       1 RES1   0.0000
    33 C28       2.3756    5.9157    0.4692   C.3       1 RES1   0.0000
    34 C29       1.2270    6.7527    1.0388   C.3       1 RES1   0.0000
    35 C30       0.0438    5.9252    1.5540   C.3       1 RES1   0.0000
    36 C31      -1.0025    5.6390    0.4810   C.3       1 RES1   0.0000
    37 C32       4.9700    0.6030   -0.0362   C.3       1 RES1   0.0000
    38 C33       5.3131   -0.8144    0.4299   C.3       1 RES1   0.0000
    39 C34       6.7306   -0.9489    1.0014   C.3       1 RES1   0.0000
    40 C35       6.9376   -0.3852    2.4098   C.3       1 RES1   0.0000
    41 C36       6.6261   -1.3713    3.5375   C.3       1 RES1   0.0000
    42 C37       5.1635   -1.8016    3.6149   C.3       1 RES1   0.0000
    43 C38       4.8284   -2.5889    4.8794   C.3       1 RES1   0.0000
    44 C39       3.3572   -2.9878    4.9144   C.3       1 RES1   0.0000
    45 N1        0.9512    1.2907    2.8807   N.ar      1 RES1   0.0000
    46 O3        0.5880    1.4632    1.6367   O.co2     1 RES1   0.0000
    47 H1       -6.3403   -5.3876    5.1450   H         1 RES1   0.0000
    48 H2       -5.4570   -4.2584    4.1167   H         1 RES1   0.0000
    49 H3       -6.1248   -3.7258    5.6663   H         1 RES1   0.0000
    50 H4       -7.8022   -4.7081    3.3096   H         1 RES1   0.0000
    51 H5       -8.4236   -4.0338    4.8130   H         1 RES1   0.0000
    52 H6       -6.7007   -2.5362    2.8016   H         1 RES1   0.0000
    53 H7       -8.4597   -2.4353    2.8812   H         1 RES1   0.0000
    54 H8       -8.3069   -1.5961    5.2180   H         1 RES1   0.0000
    55 H9       -6.5583   -1.5765    5.1068   H         1 RES1   0.0000
    56 H10      -8.5318    0.0495    3.4475   H         1 RES1   0.0000
    57 H11      -7.5335    0.6542    4.7632   H         1 RES1   0.0000
    58 H12      -6.5346   -0.4075    2.0887   H         1 RES1   0.0000
    59 H13      -6.6887    1.2918    2.5282   H         1 RES1   0.0000
    60 H14      -4.9731    1.0215    4.2854   H         1 RES1   0.0000
    61 H15      -4.8995   -0.7131    3.9560   H         1 RES1   0.0000
    62 H16      -4.2613   -0.1433    1.5526   H         1 RES1   0.0000
    63 H17      -4.0671    1.5321    2.0418   H         1 RES1   0.0000
    64 H18      -2.7276   -1.0802    4.9326   H         1 RES1   0.0000
    65 H19      -2.9569   -2.0953    3.5078   H         1 RES1   0.0000
    66 H20      -0.4632   -2.0706    3.1179   H         1 RES1   0.0000
    67 H21      -0.2536   -1.2673    4.6704   H         1 RES1   0.0000
    68 H22      -1.8535   -3.8210    4.6399   H         1 RES1   0.0000
    69 H23      -0.1060   -3.9100    4.5055   H         1 RES1   0.0000
    70 H24      -0.7680   -4.1182    6.8203   H         1 RES1   0.0000
    71 H25       0.2311   -2.6978    6.5591   H         1 RES1   0.0000
    72 H26      -1.5328   -2.2298    8.1398   H         1 RES1   0.0000
    73 H27      -1.6654   -1.2125    6.7307   H         1 RES1   0.0000
    74 H28      -3.8810   -1.7804    7.0137   H         1 RES1   0.0000
    75 H29      -3.4370   -3.1141    5.9514   H         1 RES1   0.0000
    76 H30      -3.4193   -3.2962    8.9843   H         1 RES1   0.0000
    77 H31      -4.8001   -3.7121    7.9813   H         1 RES1   0.0000
    78 H32      -2.0950   -5.1170    8.0329   H         1 RES1   0.0000
    79 H33      -3.6677   -5.7692    8.4504   H         1 RES1   0.0000
    80 H34      -3.3015   -5.3901    6.7676   H         1 RES1   0.0000
    81 H35      -1.5014    2.3078    2.7815   H         1 RES1   0.0000
    82 H36      -1.9428    1.8722    4.4450   H         1 RES1   0.0000
    83 H37      -0.3136    1.1430    5.9675   H         1 RES1   0.0000
    84 H38       2.1016    0.8789    6.5213   H         1 RES1   0.0000
    85 H39       3.7502    0.9936    4.6921   H         1 RES1   0.0000
    86 H40       3.6234    2.4754    2.1212   H         1 RES1   0.0000
    87 H41       4.1771    0.8444    2.3818   H         1 RES1   0.0000
    88 H42       3.0048    2.0052   -1.8680   H         1 RES1   0.0000
    89 H43       1.9312    2.8395   -0.7584   H         1 RES1   0.0000
    90 H44       4.1344    3.9100    0.2402   H         1 RES1   0.0000
    91 H45       4.9076    3.3165   -1.2198   H         1 RES1   0.0000
    92 H46       4.2215    5.5729   -1.6275   H         1 RES1   0.0000
    93 H47       3.2082    4.5133   -2.6007   H         1 RES1   0.0000
    94 H48       1.9404    6.3522   -1.5819   H         1 RES1   0.0000
    95 H49       1.3378    4.7867   -1.0716   H         1 RES1   0.0000
    96 H50       2.5143    5.0451    1.1171   H         1 RES1   0.0000
    97 H51       3.2935    6.5044    0.5142   H         1 RES1   0.0000
    98 H52       1.6244    7.3370    1.8687   H         1 RES1   0.0000
    99 H53       0.8751    7.4581    0.2853   H         1 RES1   0.0000
   100 H54       0.4199    4.9902    1.9863   H         1 RES1   0.0000
   101 H55      -0.4425    6.4720    2.3633   H         1 RES1   0.0000
   102 H56      -0.5813    5.1045   -0.3658   H         1 RES1   0.0000
   103 H57      -1.8352    5.0690    0.8935   H         1 RES1   0.0000
   104 H58      -1.3946    6.5790    0.1047   H         1 RES1   0.0000
   105 H59       5.2137    0.7258   -1.0923   H         1 RES1   0.0000
   106 H60       5.5617    1.3344    0.5171   H         1 RES1   0.0000
   107 H61       4.5781   -1.1256    1.1732   H         1 RES1   0.0000
   108 H62       5.2427   -1.4851   -0.4290   H         1 RES1   0.0000
   109 H63       6.9973   -2.0070    1.0130   H         1 RES1   0.0000
   110 H64       7.4158   -0.4531    0.3129   H         1 RES1   0.0000
   111 H65       7.9872   -0.1105    2.5049   H         1 RES1   0.0000
   112 H66       6.3569    0.5305    2.5470   H         1 RES1   0.0000
   113 H67       7.2484   -2.2578    3.4134   H         1 RES1   0.0000
   114 H68       6.9099   -0.9094    4.4841   H         1 RES1   0.0000
   115 H69       4.5167   -0.9196    3.5813   H         1 RES1   0.0000
   116 H70       4.9303   -2.4282    2.7538   H         1 RES1   0.0000
   117 H71       5.4496   -3.4836    4.9240   H         1 RES1   0.0000
   118 H72       5.0585   -1.9819    5.7555   H         1 RES1   0.0000
   119 H73       3.1094   -3.6220    4.0653   H         1 RES1   0.0000
   120 H74       3.1356   -3.5388    5.8232   H         1 RES1   0.0000
   121 H75       2.7155   -2.1079    4.8767   H         1 RES1   0.0000
   122 C40       2.7257   -7.5748    4.1819   C.3       1 RES1   0.0000
   123 C41       4.2148   -7.3815    4.4510   C.3       1 RES1   0.0000
   124 C42       4.8969   -6.4885    3.4123   C.3       1 RES1   0.0000
   125 C43       4.9494   -7.1223    2.0232   C.3       1 RES1   0.0000
   126 C44       5.6550   -6.2639    0.9722   C.3       1 RES1   0.0000
   127 C45       5.0898   -4.8509    0.8033   C.3       1 RES1   0.0000
   128 C46       3.6125   -4.8093    0.3905   C.3       1 RES1   0.0000
   129 C47       3.0465   -3.3972    0.5683   C.3       1 RES1   0.0000
   130 P3        1.2648   -3.1725    0.2129   P.3       1 RES1   0.0000
   131 O4        0.6548   -1.9921    0.9249   O.2       1 RES1   0.0000
   132 C48       0.4513   -4.7311    0.7285   C.3       1 RES1   0.0000
   133 C49      -1.0465   -4.6216    0.9879   C.3       1 RES1   0.0000
   134 C50      -1.6076   -5.8446    1.7276   C.3       1 RES1   0.0000
   135 C51      -2.0300   -6.9974    0.8164   C.3       1 RES1   0.0000
   136 C52      -0.9085   -7.7315    0.0784   C.3       1 RES1   0.0000
   137 C53       0.2482   -8.2512    0.9396   C.3       1 RES1   0.0000
   138 C54      -0.0349   -9.5749    1.6538   C.3       1 RES1   0.0000
   139 C55      -0.9480   -9.4543    2.8675   C.3       1 RES1   0.0000
   140 C56       1.2405   -2.8444   -1.6376   C.3       1 RES1   0.0000
   141 C57      -0.0911   -2.8721   -2.2964   C.ar      1 RES1   0.0000
   142 C58      -0.6562   -4.0781   -2.6775   C.ar      1 RES1   0.0000
   143 C59      -1.8985   -4.1133   -3.2889   C.ar      1 RES1   0.0000
   144 C60      -2.5615   -2.9119   -3.4798   C.ar      1 RES1   0.0000
   145 C61      -1.9720   -1.7124   -3.1007   C.ar      1 RES1   0.0000
   146 C62      -2.6916   -0.4234   -3.3301   C.3       1 RES1   0.0000
   147 P4       -2.4375    1.0831   -2.2602   P.3       1 RES1   0.0000
   148 O5       -2.0655    0.8079   -0.8203   O.2       1 RES1   0.0000
   149 C63      -1.2847    2.2319   -3.0847   C.3       1 RES1   0.0000
   150 C64      -1.7990    2.8394   -4.3873   C.3       1 RES1   0.0000
   151 C65      -0.6925    3.6749   -5.0401   C.3       1 RES1   0.0000
   152 C66       0.5579    2.8721   -5.4053   C.3       1 RES1   0.0000
   153 C67       0.2561    1.6589   -6.2828   C.3       1 RES1   0.0000
   154 C68       1.5086    0.8981   -6.7290   C.3       1 RES1   0.0000
   155 C69       1.9334   -0.2237   -5.7779   C.3       1 RES1   0.0000
   156 C70       2.5517    0.2601   -4.4676   C.3       1 RES1   0.0000
   157 C71      -4.0965    1.8698   -2.2553   C.3       1 RES1   0.0000
   158 C72      -4.9480    1.3043   -1.1104   C.3       1 RES1   0.0000
   159 C73      -6.4425    1.2424   -1.4388   C.3       1 RES1   0.0000
   160 C74      -6.8281    0.1529   -2.4434   C.3       1 RES1   0.0000
   161 C75      -7.1614   -1.1993   -1.8108   C.3       1 RES1   0.0000
   162 C76      -6.0140   -1.8464   -1.0366   C.3       1 RES1   0.0000
   163 C77      -6.3250   -3.2870   -0.6372   C.3       1 RES1   0.0000
   164 C78      -5.1914   -3.9084    0.1693   C.3       1 RES1   0.0000
   165 N2       -0.7461   -1.7070   -2.5338   N.ar      1 RES1   0.0000
   166 O6       -0.1989   -0.5596   -2.2087   O.co2     1 RES1   0.0000
   167 H76       2.2607   -8.1162    5.0010   H         1 RES1   0.0000
   168 H77       2.2283   -6.6090    4.0839   H         1 RES1   0.0000
   169 H78       2.5620   -8.1476    3.2733   H         1 RES1   0.0000
   170 H79       4.3373   -6.9254    5.4364   H         1 RES1   0.0000
   171 H80       4.7071   -8.3538    4.4729   H         1 RES1   0.0000
   172 H81       4.3533   -5.5414    3.3779   H         1 RES1   0.0000
   173 H82       5.9157   -6.2758    3.7440   H         1 RES1   0.0000
   174 H83       5.4862   -8.0679    2.0994   H         1 RES1   0.0000
   175 H84       3.9406   -7.3593    1.6852   H         1 RES1   0.0000
   176 H85       6.7034   -6.1603    1.2523   H         1 RES1   0.0000
   177 H86       5.6185   -6.7879    0.0170   H         1 RES1   0.0000
   178 H87       5.2000   -4.3264    1.7514   H         1 RES1   0.0000
   179 H88       5.6907   -4.3177    0.0628   H         1 RES1   0.0000
   180 H89       3.5213   -5.1378   -0.6468   H         1 RES1   0.0000
   181 H90       3.0574   -5.5073    1.0151   H         1 RES1   0.0000
   182 H91       3.1751   -3.0818    1.6080   H         1 RES1   0.0000
   183 H92       3.5904   -2.6962   -0.0636   H         1 RES1   0.0000
   184 H93       0.6948   -5.5262    0.0290   H         1 RES1   0.0000
   185 H94       0.9422   -4.9681    1.6790   H         1 RES1   0.0000
   186 H95      -1.1982   -3.7373    1.6166   H         1 RES1   0.0000
   187 H96      -1.5857   -4.4918    0.0469   H         1 RES1   0.0000
   188 H97      -0.8820   -6.1902    2.4639   H         1 RES1   0.0000
   189 H98      -2.4916   -5.5360    2.2889   H         1 RES1   0.0000
   190 H99      -2.5760   -7.7116    1.4290   H         1 RES1   0.0000
   191 H100     -2.7291   -6.6100    0.0702   H         1 RES1   0.0000
   192 H101     -1.3596   -8.5831   -0.4317   H         1 RES1   0.0000
   193 H102     -0.5103   -7.0799   -0.7058   H         1 RES1   0.0000
   194 H103      1.1054   -8.4074    0.2784   H         1 RES1   0.0000
   195 H104      0.5448   -7.5074    1.6820   H         1 RES1   0.0000
   196 H105     -0.4655  -10.2803    0.9431   H         1 RES1   0.0000
   197 H106      0.9198   -9.9914    1.9805   H         1 RES1   0.0000
   198 H107     -1.9832   -9.2940    2.5814   H         1 RES1   0.0000
   199 H108     -0.9076  -10.3714    3.4473   H         1 RES1   0.0000
   200 H109     -0.6298   -8.6325    3.5060   H         1 RES1   0.0000
   201 H110      1.7204   -1.8631   -1.7521   H         1 RES1   0.0000
   202 H111      1.8776   -3.5968   -2.1022   H         1 RES1   0.0000
   203 H112     -0.0997   -4.9849   -2.5036   H         1 RES1   0.0000
   204 H113     -2.3408   -5.0430   -3.6083   H         1 RES1   0.0000
   205 H114     -3.5434   -2.9034   -3.9293   H         1 RES1   0.0000
   206 H115     -2.4692   -0.0793   -4.3468   H         1 RES1   0.0000
   207 H116     -3.7658   -0.6283   -3.3103   H         1 RES1   0.0000
   208 H117     -1.0951    3.0468   -2.3840   H         1 RES1   0.0000
   209 H118     -0.3404    1.7049   -3.2371   H         1 RES1   0.0000
   210 H119     -2.1364    2.0686   -5.0811   H         1 RES1   0.0000
   211 H120     -2.6546    3.4862   -4.1804   H         1 RES1   0.0000
   212 H121     -1.0980    4.1350   -5.9397   H         1 RES1   0.0000
   213 H122     -0.4102    4.4803   -4.3566   H         1 RES1   0.0000
   214 H123      1.2312    3.5329   -5.9512   H         1 RES1   0.0000
   215 H124      1.0743    2.5697   -4.4944   H         1 RES1   0.0000
   216 H125     -0.3934    0.9553   -5.7570   H         1 RES1   0.0000
   217 H126     -0.2843    2.0066   -7.1649   H         1 RES1   0.0000
   218 H127      1.3072    0.4463   -7.7013   H         1 RES1   0.0000
   219 H128      2.3379    1.5944   -6.8617   H         1 RES1   0.0000
   220 H129      1.0681   -0.8568   -5.5617   H         1 RES1   0.0000
   221 H130      2.6645   -0.8453   -6.2968   H         1 RES1   0.0000
   222 H131      1.7926    0.6201   -3.7708   H         1 RES1   0.0000
   223 H132      3.0923   -0.5519   -3.9829   H         1 RES1   0.0000
   224 H133      3.2578    1.0627   -4.6698   H         1 RES1   0.0000
   225 H134     -3.9637    2.9447   -2.1252   H         1 RES1   0.0000
   226 H135     -4.5820    1.7212   -3.2186   H         1 RES1   0.0000
   227 H136     -4.5841    0.3059   -0.8578   H         1 RES1   0.0000
   228 H137     -4.8167    1.9384   -0.2312   H         1 RES1   0.0000
   229 H138     -6.9950    1.0777   -0.5124   H         1 RES1   0.0000
   230 H139     -6.7457    2.2171   -1.8225   H         1 RES1   0.0000
   231 H140     -7.7139    0.4859   -2.9834   H         1 RES1   0.0000
   232 H141     -6.0332    0.0271   -3.1825   H         1 RES1   0.0000
   233 H142     -8.0123   -1.0747   -1.1407   H         1 RES1   0.0000
   234 H143     -7.4729   -1.8765   -2.6074   H         1 RES1   0.0000
   235 H144     -5.1042   -1.8386   -1.6491   H         1 RES1   0.0000
   236 H145     -5.8226   -1.2726   -0.1263   H         1 RES1   0.0000
   237 H146     -7.2420   -3.3049   -0.0483   H         1 RES1   0.0000
   238 H147     -6.4968   -3.8799   -1.5354   H         1 RES1   0.0000
   239 H148     -5.0263   -3.3519    1.0901   H         1 RES1   0.0000
   240 H149     -5.4346   -4.9325    0.4340   H         1 RES1   0.0000
   241 H150     -4.2659   -3.9136   -0.4048   H         1 RES1   0.0000
   242 O7       -0.1728    2.6529   -0.3579   O.3       1 RES1   0.0000
   243 H151      0.1781    3.1687    0.3898   H         1 RES1   0.0000
   244 H152     -1.1359    2.6375   -0.2422   H         1 RES1   0.0000
   245 O8       -2.0342   -1.9567   -0.3072   O.3       1 RES1   0.0000
   246 H153     -2.0309   -2.3532    0.5782   H         1 RES1   0.0000
   247 H154     -2.8364   -1.4209   -0.3527   H         1 RES1   0.0000
@<TRIPOS>BOND
     1     1    11    1
     2     1    28    1
     3     1    46    1
     4     1   131    1
     5     1   148    1
     6     1   166    1
     7     1   242    1
     8     1   245    1
     9     2     3    1
    10     2    47    1
    11     2    48    1
    12     2    49    1
    13     3     4    1
    14     3    50    1
    15     3    51    1
    16     4     5    1
    17     4    52    1
    18     4    53    1
    19     5     6    1
    20     5    54    1
    21     5    55    1
    22     6     7    1
    23     6    56    1
    24     6    57    1
    25     7     8    1
    26     7    58    1
    27     7    59    1
    28     8     9    1
    29     8    60    1
    30     8    61    1
    31     9    10    1
    32     9    62    1
    33     9    63    1
    34    10    11    2
    35    10    12    1
    36    10    20    1
    37    12    13    1
    38    12    64    1
    39    12    65    1
    40    13    14    1
    41    13    66    1
    42    13    67    1
    43    14    15    1
    44    14    68    1
    45    14    69    1
    46    15    16    1
    47    15    70    1
    48    15    71    1
    49    16    17    1
    50    16    72    1
    51    16    73    1
    52    17    18    1
    53    17    74    1
    54    17    75    1
    55    18    19    1
    56    18    76    1
    57    18    77    1
    58    19    78    1
    59    19    79    1
    60    19    80    1
    61    20    21    1
    62    20    81    1
    63    20    82    1
    64    21    22    1
    65    21    45    2
    66    22    23    2
    67    22    83    1
    68    23    24    1
    69    23    84    1
    70    24    25    2
    71    24    85    1
    72    25    26    1
    73    25    45    1
    74    26    27    1
    75    26    86    1
    76    26    87    1
    77    27    28    2
    78    27    29    1
    79    27    37    1
    80    29    30    1
    81    29    88    1
    82    29    89    1
    83    30    31    1
    84    30    90    1
    85    30    91    1
    86    31    32    1
    87    31    92    1
    88    31    93    1
    89    32    33    1
    90    32    94    1
    91    32    95    1
    92    33    34    1
    93    33    96    1
    94    33    97    1
    95    34    35    1
    96    34    98    1
    97    34    99    1
    98    35    36    1
    99    35   100    1
   100    35   101    1
   101    36   102    1
   102    36   103    1
   103    36   104    1
   104    37    38    1
   105    37   105    1
   106    37   106    1
   107    38    39    1
   108    38   107    1
   109    38   108    1
   110    39    40    1
   111    39   109    1
   112    39   110    1
   113    40    41    1
   114    40   111    1
   115    40   112    1
   116    41    42    1
   117    41   113    1
   118    41   114    1
   119    42    43    1
   120    42   115    1
   121    42   116    1
   122    43    44    1
   123    43   117    1
   124    43   118    1
   125    44   119    1
   126    44   120    1
   127    44   121    1
   128    45    46    1
   129   122   123    1
   130   122   167    1
   131   122   168    1
   132   122   169    1
   133   123   124    1
   134   123   170    1
   135   123   171    1
   136   124   125    1
   137   124   172    1
   138   124   173    1
   139   125   126    1
   140   125   174    1
   141   125   175    1
   142   126   127    1
   143   126   176    1
   144   126   177    1
   145   127   128    1
   146   127   178    1
   147   127   179    1
   148   128   129    1
   149   128   180    1
   150   128   181    1
   151   129   130    1
   152   129   182    1
   153   129   183    1
   154   130   131    2
   155   130   132    1
   156   130   140    1
   157   132   133    1
   158   132   184    1
   159   132   185    1
   160   133   134    1
   161   133   186    1
   162   133   187    1
   163   134   135    1
   164   134   188    1
   165   134   189    1
   166   135   136    1
   167   135   190    1
   168   135   191    1
   169   136   137    1
   170   136   192    1
   171   136   193    1
   172   137   138    1
   173   137   194    1
   174   137   195    1
   175   138   139    1
   176   138   196    1
   177   138   197    1
   178   139   198    1
   179   139   199    1
   180   139   200    1
   181   140   141    1
   182   140   201    1
   183   140   202    1
   184   141   142    1
   185   141   165    2
   186   142   143    2
   187   142   203    1
   188   143   144    1
   189   143   204    1
   190   144   145    2
   191   144   205    1
   192   145   146    1
   193   145   165    1
   194   146   147    1
   195   146   206    1
   196   146   207    1
   197   147   148    2
   198   147   149    1
   199   147   157    1
   200   149   150    1
   201   149   208    1
   202   149   209    1
   203   150   151    1
   204   150   210    1
   205   150   211    1
   206   151   152    1
   207   151   212    1
   208   151   213    1
   209   152   153    1
   210   152   214    1
   211   152   215    1
   212   153   154    1
   213   153   216    1
   214   153   217    1
   215   154   155    1
   216   154   218    1
   217   154   219    1
   218   155   156    1
   219   155   220    1
   220   155   221    1
   221   156   222    1
   222   156   223    1
   223   156   224    1
   224   157   158    1
   225   157   225    1
   226   157   226    1
   227   158   159    1
   228   158   227    1
   229   158   228    1
   230   159   160    1
   231   159   229    1
   232   159   230    1
   233   160   161    1
   234   160   231    1
   235   160   232    1
   236   161   162    1
   237   161   233    1
   238   161   234    1
   239   162   163    1
   240   162   235    1
   241   162   236    1
   242   163   164    1
   243   163   237    1
   244   163   238    1
   245   164   239    1
   246   164   240    1
   247   164   241    1
   248   165   166    1
   249   242   243    1
   250   242   244    1
   251   245   246    1
   252   245   247    1
@<TRIPOS>SUBSTRUCTURE
     1 RES1      247 GROUP             0 ****  ****    0  
