@<TRIPOS>MOLECULE
ICIGOT_geomtry_0_nunpairedes_0_charge_2 Charge: 2 Unpaired_Electrons: 5 XTB_Unpaired_Electrons: 0 XTB_Charge: 2
    91    99     1     0     0
SMALL
NoCharges
****
Generated from Architector

@<TRIPOS>ATOM
     1 Dy1      -0.2017   -0.0798   -0.1463   Dy        1 RES1   0.0000
     2 C1       -2.0260   -1.4442    4.0998   C.3       1 RES1   0.0000
     3 N1       -0.9075   -0.5173    4.2422   N.am      1 RES1   0.0000
     4 C2       -0.3330   -0.0968    3.1220   C.2       1 RES1   0.0000
     5 O1       -0.6774   -0.5405    2.0095   O.2       1 RES1   0.0000
     6 C3        0.7457    0.9928    3.1529   C.3       1 RES1   0.0000
     7 O2        0.7812    1.5859    1.8612   O.3       1 RES1   0.0000
     8 C4        0.5118    2.9803    1.8067   C.3       1 RES1   0.0000
     9 C5       -0.2872    3.2138    0.5110   C.2       1 RES1   0.0000
    10 O3       -0.6712    2.1754   -0.0758   O.2       1 RES1   0.0000
    11 N2       -0.5230    4.4566    0.1075   N.am      1 RES1   0.0000
    12 C6       -0.1401    5.6034    0.9179   C.3       1 RES1   0.0000
    13 C7       -1.2581    4.7668   -1.0893   C.ar      1 RES1   0.0000
    14 C8       -1.3324    3.8774   -2.1570   C.ar      1 RES1   0.0000
    15 C9       -2.0599    4.2038   -3.2900   C.ar      1 RES1   0.0000
    16 C10      -2.6977    5.4277   -3.3968   C.ar      1 RES1   0.0000
    17 C11      -2.6101    6.3252   -2.3479   C.ar      1 RES1   0.0000
    18 C12      -1.9093    5.9960   -1.1998   C.ar      1 RES1   0.0000
    19 C13      -0.5111   -0.1382    5.5580   C.ar      1 RES1   0.0000
    20 C14      -1.4749    0.2038    6.5012   C.ar      1 RES1   0.0000
    21 C15      -1.0904    0.5031    7.7971   C.ar      1 RES1   0.0000
    22 C16       0.2482    0.4827    8.1502   C.ar      1 RES1   0.0000
    23 C17       1.2101    0.1517    7.2108   C.ar      1 RES1   0.0000
    24 C18       0.8303   -0.1758    5.9212   C.ar      1 RES1   0.0000
    25 H1       -1.7534   -2.2325    3.3969   H         1 RES1   0.0000
    26 H2       -2.8944   -0.9214    3.6938   H         1 RES1   0.0000
    27 H3       -2.2640   -1.8772    5.0680   H         1 RES1   0.0000
    28 H4        1.7307    0.5442    3.3290   H         1 RES1   0.0000
    29 H5        0.5373    1.7265    3.9374   H         1 RES1   0.0000
    30 H6        1.4672    3.5228    1.8004   H         1 RES1   0.0000
    31 H7       -0.0845    3.3029    2.6703   H         1 RES1   0.0000
    32 H8        0.6883    5.3794    1.5772   H         1 RES1   0.0000
    33 H9       -0.9858    5.9363    1.5195   H         1 RES1   0.0000
    34 H10       0.1672    6.4206    0.2702   H         1 RES1   0.0000
    35 H11      -0.8384    2.9191   -2.1311   H         1 RES1   0.0000
    36 H12      -2.1346    3.4881   -4.0935   H         1 RES1   0.0000
    37 H13      -3.2629    5.6793   -4.2817   H         1 RES1   0.0000
    38 H14      -3.0956    7.2872   -2.4191   H         1 RES1   0.0000
    39 H15      -1.8953    6.7151   -0.4007   H         1 RES1   0.0000
    40 H16      -2.5190    0.2319    6.2365   H         1 RES1   0.0000
    41 H17      -1.8430    0.7512    8.5296   H         1 RES1   0.0000
    42 H18       0.5423    0.7169    9.1588   H         1 RES1   0.0000
    43 H19       2.2542    0.1365    7.4810   H         1 RES1   0.0000
    44 H20       1.5709   -0.4987    5.2077   H         1 RES1   0.0000
    45 C19       1.1782   -3.6307   -4.1087   C.3       1 RES1   0.0000
    46 N3        1.2457   -2.2609   -3.6223   N.am      1 RES1   0.0000
    47 C20       1.0308   -1.9991   -2.3361   C.2       1 RES1   0.0000
    48 O4        1.1497   -0.8817   -1.7948   O.2       1 RES1   0.0000
    49 C21       0.6004   -3.1494   -1.3870   C.3       1 RES1   0.0000
    50 O5        0.2756   -2.5885   -0.1153   O.3       1 RES1   0.0000
    51 C22       1.1218   -2.9505    0.9707   C.3       1 RES1   0.0000
    52 C23       2.1410   -1.8249    1.2088   C.2       1 RES1   0.0000
    53 O6        1.8501   -0.6907    0.7681   O.2       1 RES1   0.0000
    54 N4        3.3184   -2.0574    1.7908   N.am      1 RES1   0.0000
    55 C24       4.3227   -1.0030    1.6808   C.3       1 RES1   0.0000
    56 C25       3.6867   -3.2062    2.5486   C.ar      1 RES1   0.0000
    57 C26       5.0324   -3.5426    2.6810   C.ar      1 RES1   0.0000
    58 C27       5.4062   -4.6027    3.4879   C.ar      1 RES1   0.0000
    59 C28       4.4469   -5.3622    4.1344   C.ar      1 RES1   0.0000
    60 C29       3.1095   -5.0325    4.0099   C.ar      1 RES1   0.0000
    61 C30       2.7336   -3.9408    3.2482   C.ar      1 RES1   0.0000
    62 C31       1.5309   -1.2631   -4.6179   C.ar      1 RES1   0.0000
    63 C32       1.6087    0.0993   -4.3344   C.ar      1 RES1   0.0000
    64 C33       1.9065    1.0104   -5.3354   C.ar      1 RES1   0.0000
    65 C34       2.1241    0.5977   -6.6372   C.ar      1 RES1   0.0000
    66 C35       2.0115   -0.7468   -6.9349   C.ar      1 RES1   0.0000
    67 C36       1.7212   -1.6650   -5.9416   C.ar      1 RES1   0.0000
    68 H21       1.0032   -4.3333   -3.3057   H         1 RES1   0.0000
    69 H22       2.1243   -3.8921   -4.5817   H         1 RES1   0.0000
    70 H23       0.3747   -3.7282   -4.8385   H         1 RES1   0.0000
    71 H24       1.3926   -3.9014   -1.2858   H         1 RES1   0.0000
    72 H25      -0.3150   -3.6364   -1.7490   H         1 RES1   0.0000
    73 H26       1.6200   -3.9113    0.7942   H         1 RES1   0.0000
    74 H27       0.4371   -3.0572    1.8182   H         1 RES1   0.0000
    75 H28       3.8437   -0.1008    1.3058   H         1 RES1   0.0000
    76 H29       5.0823   -1.3096    0.9603   H         1 RES1   0.0000
    77 H30       4.7725   -0.8118    2.6536   H         1 RES1   0.0000
    78 H31       5.8009   -2.9883    2.1707   H         1 RES1   0.0000
    79 H32       6.4557   -4.8208    3.6137   H         1 RES1   0.0000
    80 H33       4.7424   -6.1959    4.7469   H         1 RES1   0.0000
    81 H34       2.3550   -5.6079    4.5213   H         1 RES1   0.0000
    82 H35       1.7018   -3.6415    3.2336   H         1 RES1   0.0000
    83 H36       1.4347    0.4853   -3.3447   H         1 RES1   0.0000
    84 H37       1.9644    2.0604   -5.0952   H         1 RES1   0.0000
    85 H38       2.3704    1.3080   -7.4109   H         1 RES1   0.0000
    86 H39       2.1444   -1.0922   -7.9482   H         1 RES1   0.0000
    87 H40       1.6436   -2.6932   -6.2386   H         1 RES1   0.0000
    88 N5       -2.2970   -0.5138   -1.4418   N.3       1 RES1   0.0000
    89 O7       -3.3204   -0.6597   -2.0186   O.2       1 RES1   0.0000
    90 O8       -2.1175   -0.9677   -0.2910   O.co2     1 RES1   0.0000
    91 O9       -1.3261    0.0716   -1.9585   O.co2     1 RES1   0.0000
@<TRIPOS>BOND
     1     1     5    1
     2     1     7    1
     3     1    10    1
     4     1    48    1
     5     1    50    1
     6     1    53    1
     7     1    90    1
     8     1    91    1
     9     2     3    1
    10     2    25    1
    11     2    26    1
    12     2    27    1
    13     3     4    1
    14     3    19    1
    15     4     5    2
    16     4     6    1
    17     6     7    1
    18     6    28    1
    19     6    29    1
    20     7     8    1
    21     8     9    1
    22     8    30    1
    23     8    31    1
    24     9    10    2
    25     9    11    1
    26    11    12    1
    27    11    13    1
    28    12    32    1
    29    12    33    1
    30    12    34    1
    31    13    14    1
    32    13    18    2
    33    14    15    2
    34    14    35    1
    35    15    16    1
    36    15    36    1
    37    16    17    2
    38    16    37    1
    39    17    18    1
    40    17    38    1
    41    18    39    1
    42    19    20    1
    43    19    24    2
    44    20    21    2
    45    20    40    1
    46    21    22    1
    47    21    41    1
    48    22    23    2
    49    22    42    1
    50    23    24    1
    51    23    43    1
    52    24    44    1
    53    45    46    1
    54    45    68    1
    55    45    69    1
    56    45    70    1
    57    46    47    1
    58    46    62    1
    59    47    48    2
    60    47    49    1
    61    49    50    1
    62    49    71    1
    63    49    72    1
    64    50    51    1
    65    51    52    1
    66    51    73    1
    67    51    74    1
    68    52    53    2
    69    52    54    1
    70    54    55    1
    71    54    56    1
    72    55    75    1
    73    55    76    1
    74    55    77    1
    75    56    57    1
    76    56    61    2
    77    57    58    2
    78    57    78    1
    79    58    59    1
    80    58    79    1
    81    59    60    2
    82    59    80    1
    83    60    61    1
    84    60    81    1
    85    61    82    1
    86    62    63    1
    87    62    67    2
    88    63    64    2
    89    63    83    1
    90    64    65    1
    91    64    84    1
    92    65    66    2
    93    65    85    1
    94    66    67    1
    95    66    86    1
    96    67    87    1
    97    88    89    2
    98    88    90    1
    99    88    91    1
@<TRIPOS>SUBSTRUCTURE
     1 RES1       91 GROUP             0 ****  ****    0  
