@<TRIPOS>MOLECULE
ICIGOT_geomtry_0_nunpairedes_0_charge_2 Charge: 2 Unpaired_Electrons: 5 XTB_Unpaired_Electrons: 0 XTB_Charge: 2
   249   253     1     0     0
SMALL
NoCharges
****
Generated from Architector

@<TRIPOS>ATOM
     1 Dy1      -0.1547    0.0349   -0.1347   Dy        1 RES1   0.0000
     2 C1        0.3476    8.7794   -1.4612   C.3       1 RES1   0.0000
     3 C2        0.0251    7.9524   -0.2221   C.3       1 RES1   0.0000
     4 C3       -1.4696    7.6559   -0.1014   C.3       1 RES1   0.0000
     5 C4       -1.7753    6.6235    0.9858   C.3       1 RES1   0.0000
     6 C5       -3.2803    6.3872    1.1261   C.3       1 RES1   0.0000
     7 C6       -3.6290    5.1369    1.9476   C.3       1 RES1   0.0000
     8 C7       -4.9008    4.4374    1.4398   C.3       1 RES1   0.0000
     9 C8       -4.6580    3.0664    0.7631   C.3       1 RES1   0.0000
    10 N1       -3.3852    2.9646    0.0722   N.am      1 RES1   0.0000
    11 C9       -3.2224    3.7826   -1.1287   C.3       1 RES1   0.0000
    12 C10      -3.2447    2.9912   -2.4365   C.3       1 RES1   0.0000
    13 C11      -2.8421    3.8973   -3.6077   C.3       1 RES1   0.0000
    14 C12      -1.3448    3.8688   -3.9381   C.3       1 RES1   0.0000
    15 C13      -0.4267    4.2145   -2.7666   C.3       1 RES1   0.0000
    16 C14       1.0541    4.1693   -3.1403   C.3       1 RES1   0.0000
    17 C15       1.9659    4.5191   -1.9632   C.3       1 RES1   0.0000
    18 C16       1.7129    3.6467   -0.7320   C.3       1 RES1   0.0000
    19 C17      -2.3672    2.2326    0.4997   C.2       1 RES1   0.0000
    20 O1       -1.2470    2.2009   -0.0541   O.2       1 RES1   0.0000
    21 C18      -2.5209    1.3152    1.7400   C.3       1 RES1   0.0000
    22 C19      -3.3911    0.0954    1.3951   C.3       1 RES1   0.0000
    23 O2       -1.2080    0.8294    2.0288   O.3       1 RES1   0.0000
    24 C20      -0.5608    1.2887    3.2278   C.3       1 RES1   0.0000
    25 C21      -1.1554    0.5102    4.4118   C.3       1 RES1   0.0000
    26 C22      -0.9481   -0.9881    4.2648   C.3       1 RES1   0.0000
    27 C23       0.9529    1.1559    2.9102   C.2       1 RES1   0.0000
    28 O3        1.2385    0.9074    1.7179   O.2       1 RES1   0.0000
    29 N2        1.8919    1.4049    3.8248   N.am      1 RES1   0.0000
    30 C24       3.2803    1.5546    3.3612   C.3       1 RES1   0.0000
    31 C25       4.3345    0.9386    4.2844   C.3       1 RES1   0.0000
    32 C26       5.7170    0.7549    3.6347   C.3       1 RES1   0.0000
    33 C27       5.8636   -0.6056    2.9566   C.3       1 RES1   0.0000
    34 C28       7.2835   -0.9703    2.5265   C.3       1 RES1   0.0000
    35 C29       7.2796   -2.1703    1.5692   C.3       1 RES1   0.0000
    36 C30       7.1361   -1.7278    0.1127   C.3       1 RES1   0.0000
    37 C31       6.8318   -2.8858   -0.8309   C.3       1 RES1   0.0000
    38 C32       1.6430    1.7064    5.2341   C.3       1 RES1   0.0000
    39 C33       1.7408    0.4580    6.1329   C.3       1 RES1   0.0000
    40 C34       1.0521    0.5936    7.4918   C.3       1 RES1   0.0000
    41 C35       1.0531   -0.7361    8.2599   C.3       1 RES1   0.0000
    42 C36      -0.0290   -1.7113    7.7934   C.3       1 RES1   0.0000
    43 C37      -0.1811   -2.8940    8.7508   C.3       1 RES1   0.0000
    44 C38      -1.4668   -3.6961    8.5417   C.3       1 RES1   0.0000
    45 C39      -1.4770   -4.5313    7.2671   C.3       1 RES1   0.0000
    46 H1        1.4104    9.0067   -1.5023   H         1 RES1   0.0000
    47 H2        0.0771    8.2417   -2.3684   H         1 RES1   0.0000
    48 H3       -0.1999    9.7178   -1.4461   H         1 RES1   0.0000
    49 H4        0.5808    7.0123   -0.2667   H         1 RES1   0.0000
    50 H5        0.3577    8.4868    0.6690   H         1 RES1   0.0000
    51 H6       -2.0053    8.5826    0.1142   H         1 RES1   0.0000
    52 H7       -1.8376    7.2768   -1.0589   H         1 RES1   0.0000
    53 H8       -1.2883    5.6772    0.7224   H         1 RES1   0.0000
    54 H9       -1.3532    6.9564    1.9367   H         1 RES1   0.0000
    55 H10      -3.7444    7.2605    1.5864   H         1 RES1   0.0000
    56 H11      -3.6999    6.2966    0.1237   H         1 RES1   0.0000
    57 H12      -2.7883    4.4400    1.9146   H         1 RES1   0.0000
    58 H13      -3.7571    5.4200    2.9922   H         1 RES1   0.0000
    59 H14      -5.5837    4.2656    2.2711   H         1 RES1   0.0000
    60 H15      -5.4185    5.1002    0.7457   H         1 RES1   0.0000
    61 H16      -4.7246    2.2760    1.5067   H         1 RES1   0.0000
    62 H17      -5.4528    2.8968    0.0321   H         1 RES1   0.0000
    63 H18      -4.0353    4.5047   -1.1451   H         1 RES1   0.0000
    64 H19      -2.2791    4.3184   -1.0449   H         1 RES1   0.0000
    65 H20      -2.5633    2.1436   -2.3870   H         1 RES1   0.0000
    66 H21      -4.2507    2.6024   -2.6021   H         1 RES1   0.0000
    67 H22      -3.3810    3.5837   -4.5028   H         1 RES1   0.0000
    68 H23      -3.1488    4.9229   -3.3957   H         1 RES1   0.0000
    69 H24      -1.0911    2.8709   -4.2970   H         1 RES1   0.0000
    70 H25      -1.1631    4.5686   -4.7571   H         1 RES1   0.0000
    71 H26      -0.6653    5.2137   -2.3960   H         1 RES1   0.0000
    72 H27      -0.5857    3.4839   -1.9730   H         1 RES1   0.0000
    73 H28       1.2973    3.1622   -3.4816   H         1 RES1   0.0000
    74 H29       1.2579    4.8573   -3.9632   H         1 RES1   0.0000
    75 H30       3.0038    4.4027   -2.2816   H         1 RES1   0.0000
    76 H31       1.8292    5.5679   -1.6936   H         1 RES1   0.0000
    77 H32       1.5171    2.6012   -1.0219   H         1 RES1   0.0000
    78 H33       2.5719    3.6733   -0.0654   H         1 RES1   0.0000
    79 H34       0.8506    4.0061   -0.1767   H         1 RES1   0.0000
    80 H35      -2.9131    1.8685    2.5996   H         1 RES1   0.0000
    81 H36      -2.7463   -0.7508    1.1271   H         1 RES1   0.0000
    82 H37      -3.9828   -0.2087    2.2546   H         1 RES1   0.0000
    83 H38      -4.0623    0.2809    0.5630   H         1 RES1   0.0000
    84 H39      -0.7396    2.3684    3.3598   H         1 RES1   0.0000
    85 H40      -0.7538    0.8490    5.3604   H         1 RES1   0.0000
    86 H41      -2.2294    0.7157    4.4450   H         1 RES1   0.0000
    87 H42       0.1126   -1.2229    4.1959   H         1 RES1   0.0000
    88 H43      -1.3713   -1.4939    5.1283   H         1 RES1   0.0000
    89 H44      -1.4272   -1.3575    3.3645   H         1 RES1   0.0000
    90 H45       3.3263    1.1029    2.3731   H         1 RES1   0.0000
    91 H46       3.4708    2.6268    3.2537   H         1 RES1   0.0000
    92 H47       4.4577    1.5740    5.1607   H         1 RES1   0.0000
    93 H48       3.9930   -0.0369    4.6246   H         1 RES1   0.0000
    94 H49       5.9148    1.5572    2.9232   H         1 RES1   0.0000
    95 H50       6.4639    0.8213    4.4239   H         1 RES1   0.0000
    96 H51       5.5383   -1.3782    3.6531   H         1 RES1   0.0000
    97 H52       5.2056   -0.6457    2.0907   H         1 RES1   0.0000
    98 H53       7.7682   -0.1249    2.0401   H         1 RES1   0.0000
    99 H54       7.8653   -1.2083    3.4142   H         1 RES1   0.0000
   100 H55       8.2077   -2.7310    1.6747   H         1 RES1   0.0000
   101 H56       6.4646   -2.8470    1.8362   H         1 RES1   0.0000
   102 H57       6.3486   -0.9740    0.0306   H         1 RES1   0.0000
   103 H58       8.0676   -1.2500   -0.1938   H         1 RES1   0.0000
   104 H59       5.8449   -3.3053   -0.6311   H         1 RES1   0.0000
   105 H60       6.8655   -2.5540   -1.8665   H         1 RES1   0.0000
   106 H61       7.5670   -3.6763   -0.7032   H         1 RES1   0.0000
   107 H62       2.3797    2.4453    5.5495   H         1 RES1   0.0000
   108 H63       0.6691    2.1819    5.3331   H         1 RES1   0.0000
   109 H64       1.3156   -0.3935    5.6100   H         1 RES1   0.0000
   110 H65       2.7896    0.2372    6.3244   H         1 RES1   0.0000
   111 H66       1.5692    1.3485    8.0834   H         1 RES1   0.0000
   112 H67       0.0181    0.9337    7.3749   H         1 RES1   0.0000
   113 H68       2.0326   -1.2087    8.1678   H         1 RES1   0.0000
   114 H69       0.8936   -0.5238    9.3188   H         1 RES1   0.0000
   115 H70      -0.9817   -1.1765    7.7356   H         1 RES1   0.0000
   116 H71       0.2119   -2.0840    6.7965   H         1 RES1   0.0000
   117 H72       0.6843   -3.5544    8.6607   H         1 RES1   0.0000
   118 H73      -0.1903   -2.5042    9.7690   H         1 RES1   0.0000
   119 H74      -1.5911   -4.3643    9.3945   H         1 RES1   0.0000
   120 H75      -2.3184   -3.0130    8.5403   H         1 RES1   0.0000
   121 H76      -0.6796   -5.2704    7.2970   H         1 RES1   0.0000
   122 H77      -2.4239   -5.0572    7.1680   H         1 RES1   0.0000
   123 H78      -1.3411   -3.9078    6.3856   H         1 RES1   0.0000
   124 C40      -0.7616   -6.2963   -7.5125   C.3       1 RES1   0.0000
   125 C41       0.0815   -6.1096   -6.2573   C.3       1 RES1   0.0000
   126 C42       1.2606   -5.1691   -6.5021   C.3       1 RES1   0.0000
   127 C43       2.0486   -4.8678   -5.2265   C.3       1 RES1   0.0000
   128 C44       3.2078   -3.9113   -5.5012   C.3       1 RES1   0.0000
   129 C45       3.9403   -3.4908   -4.2243   C.3       1 RES1   0.0000
   130 C46       4.7318   -2.1900   -4.4231   C.3       1 RES1   0.0000
   131 C47       4.2924   -1.0644   -3.4733   C.3       1 RES1   0.0000
   132 N3        2.8474   -0.9016   -3.3332   N.am      1 RES1   0.0000
   133 C48       2.0528   -0.6922   -4.5473   C.3       1 RES1   0.0000
   134 C49       1.3415    0.6558   -4.6463   C.3       1 RES1   0.0000
   135 C50       0.3829    0.6789   -5.8415   C.3       1 RES1   0.0000
   136 C51      -1.0309    0.1593   -5.5534   C.3       1 RES1   0.0000
   137 C52      -1.1500   -1.3388   -5.2677   C.3       1 RES1   0.0000
   138 C53      -2.6050   -1.8143   -5.3144   C.3       1 RES1   0.0000
   139 C54      -2.7303   -3.3363   -5.2387   C.3       1 RES1   0.0000
   140 C55      -2.3685   -3.9008   -3.8710   C.3       1 RES1   0.0000
   141 C56       2.2240   -0.8628   -2.1675   C.2       1 RES1   0.0000
   142 O4        1.0310   -0.5143   -2.0465   O.2       1 RES1   0.0000
   143 C57       2.9378   -1.1875   -0.8423   C.3       1 RES1   0.0000
   144 C58       3.6410    0.1078   -0.4159   C.3       1 RES1   0.0000
   145 O5        1.9056   -1.4655    0.1160   O.3       1 RES1   0.0000
   146 C59       1.8042   -2.7891    0.6753   C.3       1 RES1   0.0000
   147 C60       2.9620   -3.0149    1.6530   C.3       1 RES1   0.0000
   148 C61       2.8592   -2.0541    2.8236   C.3       1 RES1   0.0000
   149 C62       0.3975   -2.8208    1.3309   C.2       1 RES1   0.0000
   150 O6       -0.2463   -1.7508    1.3245   O.2       1 RES1   0.0000
   151 N4       -0.1446   -3.9542    1.7890   N.am      1 RES1   0.0000
   152 C63      -1.6078   -4.0354    1.8811   C.3       1 RES1   0.0000
   153 C64      -2.1621   -4.2674    3.2872   C.3       1 RES1   0.0000
   154 C65      -3.6922   -4.0962    3.3794   C.3       1 RES1   0.0000
   155 C66      -4.0730   -2.9112    4.2698   C.3       1 RES1   0.0000
   156 C67      -5.5857   -2.7206    4.4678   C.3       1 RES1   0.0000
   157 C68      -6.2053   -1.5594    3.6849   C.3       1 RES1   0.0000
   158 C69      -6.4277   -1.8311    2.1984   C.3       1 RES1   0.0000
   159 C70      -7.1146   -0.6565    1.5103   C.3       1 RES1   0.0000
   160 C71       0.5912   -5.1034    2.3008   C.3       1 RES1   0.0000
   161 C72       0.9460   -4.9002    3.7933   C.3       1 RES1   0.0000
   162 C73       2.2369   -5.5602    4.2866   C.3       1 RES1   0.0000
   163 C74       2.5035   -5.1894    5.7555   C.3       1 RES1   0.0000
   164 C75       3.4466   -3.9995    5.9549   C.3       1 RES1   0.0000
   165 C76       3.9620   -3.9435    7.3958   C.3       1 RES1   0.0000
   166 C77       5.2577   -3.1531    7.5769   C.3       1 RES1   0.0000
   167 C78       5.1269   -1.6609    7.3023   C.3       1 RES1   0.0000
   168 H79      -1.6083   -6.9460   -7.3089   H         1 RES1   0.0000
   169 H80      -1.1457   -5.3427   -7.8682   H         1 RES1   0.0000
   170 H81      -0.1706   -6.7416   -8.3081   H         1 RES1   0.0000
   171 H82      -0.5445   -5.7055   -5.4592   H         1 RES1   0.0000
   172 H83       0.4565   -7.0798   -5.9254   H         1 RES1   0.0000
   173 H84       1.9297   -5.6131   -7.2419   H         1 RES1   0.0000
   174 H85       0.8874   -4.2283   -6.9167   H         1 RES1   0.0000
   175 H86       1.3758   -4.4134   -4.4898   H         1 RES1   0.0000
   176 H87       2.4326   -5.7967   -4.7985   H         1 RES1   0.0000
   177 H88       3.9135   -4.3802   -6.1871   H         1 RES1   0.0000
   178 H89       2.8092   -3.0268   -6.0018   H         1 RES1   0.0000
   179 H90       3.2075   -3.3526   -3.4248   H         1 RES1   0.0000
   180 H91       4.6037   -4.2980   -3.9139   H         1 RES1   0.0000
   181 H92       5.7944   -2.3657   -4.2513   H         1 RES1   0.0000
   182 H93       4.6396   -1.8587   -5.4563   H         1 RES1   0.0000
   183 H94       4.7195   -1.2537   -2.4912   H         1 RES1   0.0000
   184 H95       4.7001   -0.1136   -3.8386   H         1 RES1   0.0000
   185 H96       2.7256   -0.7894   -5.3962   H         1 RES1   0.0000
   186 H97       1.3106   -1.4890   -4.5947   H         1 RES1   0.0000
   187 H98       0.7669    0.8624   -3.7424   H         1 RES1   0.0000
   188 H99       2.0921    1.4387   -4.7637   H         1 RES1   0.0000
   189 H100      0.2870    1.7115   -6.1801   H         1 RES1   0.0000
   190 H101      0.8125    0.1126   -6.6682   H         1 RES1   0.0000
   191 H102     -1.4561    0.7099   -4.7114   H         1 RES1   0.0000
   192 H103     -1.6404    0.3842   -6.4322   H         1 RES1   0.0000
   193 H104     -0.5832   -1.8948   -6.0185   H         1 RES1   0.0000
   194 H105     -0.7391   -1.5617   -4.2785   H         1 RES1   0.0000
   195 H106     -3.1657   -1.3643   -4.4917   H         1 RES1   0.0000
   196 H107     -3.0605   -1.4772   -6.2487   H         1 RES1   0.0000
   197 H108     -3.7610   -3.6098   -5.4659   H         1 RES1   0.0000
   198 H109     -2.0972   -3.7879   -6.0041   H         1 RES1   0.0000
   199 H110     -2.9593   -3.4144   -3.0991   H         1 RES1   0.0000
   200 H111     -2.5726   -4.9680   -3.8382   H         1 RES1   0.0000
   201 H112     -1.3142   -3.7509   -3.6465   H         1 RES1   0.0000
   202 H113      3.6271   -2.0329   -0.9300   H         1 RES1   0.0000
   203 H114      2.8820    0.8488   -0.1410   H         1 RES1   0.0000
   204 H115      4.2825   -0.0656    0.4442   H         1 RES1   0.0000
   205 H116      4.2393    0.5149   -1.2278   H         1 RES1   0.0000
   206 H117      1.7994   -3.5452   -0.1274   H         1 RES1   0.0000
   207 H118      2.9644   -4.0391    2.0137   H         1 RES1   0.0000
   208 H119      3.9092   -2.8655    1.1325   H         1 RES1   0.0000
   209 H120      2.9140   -1.0305    2.4757   H         1 RES1   0.0000
   210 H121      3.6522   -2.2523    3.5314   H         1 RES1   0.0000
   211 H122      1.9065   -2.1752    3.3261   H         1 RES1   0.0000
   212 H123     -1.9993   -3.1132    1.4491   H         1 RES1   0.0000
   213 H124     -1.9128   -4.8622    1.2314   H         1 RES1   0.0000
   214 H125     -1.9048   -5.2735    3.6087   H         1 RES1   0.0000
   215 H126     -1.6816   -3.5687    3.9672   H         1 RES1   0.0000
   216 H127     -4.1245   -3.9745    2.3853   H         1 RES1   0.0000
   217 H128     -4.1259   -4.9986    3.8139   H         1 RES1   0.0000
   218 H129     -3.6139   -3.0727    5.2477   H         1 RES1   0.0000
   219 H130     -3.6399   -2.0008    3.8510   H         1 RES1   0.0000
   220 H131     -6.1058   -3.6412    4.2103   H         1 RES1   0.0000
   221 H132     -5.7728   -2.5386    5.5264   H         1 RES1   0.0000
   222 H133     -7.1761   -1.3382    4.1283   H         1 RES1   0.0000
   223 H134     -5.5863   -0.6681    3.8191   H         1 RES1   0.0000
   224 H135     -5.4831   -2.0462    1.6955   H         1 RES1   0.0000
   225 H136     -7.0570   -2.7165    2.1010   H         1 RES1   0.0000
   226 H137     -6.4837    0.2299    1.5174   H         1 RES1   0.0000
   227 H138     -7.3472   -0.9001    0.4788   H         1 RES1   0.0000
   228 H139     -8.0421   -0.4126    2.0202   H         1 RES1   0.0000
   229 H140     -0.0467   -5.9839    2.1938   H         1 RES1   0.0000
   230 H141      1.4797   -5.2818    1.6970   H         1 RES1   0.0000
   231 H142      1.0057   -3.8292    3.9941   H         1 RES1   0.0000
   232 H143      0.1421   -5.2961    4.4112   H         1 RES1   0.0000
   233 H144      2.1369   -6.6423    4.2014   H         1 RES1   0.0000
   234 H145      3.0970   -5.2660    3.6823   H         1 RES1   0.0000
   235 H146      1.5526   -4.9802    6.2496   H         1 RES1   0.0000
   236 H147      2.9420   -6.0528    6.2555   H         1 RES1   0.0000
   237 H148      4.2986   -4.1018    5.2774   H         1 RES1   0.0000
   238 H149      2.9299   -3.0687    5.7115   H         1 RES1   0.0000
   239 H150      3.1851   -3.5349    8.0451   H         1 RES1   0.0000
   240 H151      4.1580   -4.9642    7.7277   H         1 RES1   0.0000
   241 H152      5.5935   -3.2913    8.6049   H         1 RES1   0.0000
   242 H153      6.0251   -3.5748    6.9248   H         1 RES1   0.0000
   243 H154      4.3573   -1.2229    7.9328   H         1 RES1   0.0000
   244 H155      6.0641   -1.1520    7.5155   H         1 RES1   0.0000
   245 H156      4.8754   -1.4768    6.2606   H         1 RES1   0.0000
   246 N5       -2.0336   -0.8914   -1.5089   N.3       1 RES1   0.0000
   247 O7       -3.1411   -1.1884   -1.8263   O.2       1 RES1   0.0000
   248 O8       -1.2865   -1.6935   -0.9287   O.co2     1 RES1   0.0000
   249 O9       -1.5908    0.2498   -1.7085   O.co2     1 RES1   0.0000
@<TRIPOS>BOND
     1     1    20    1
     2     1    23    1
     3     1    28    1
     4     1   142    1
     5     1   145    1
     6     1   150    1
     7     1   248    1
     8     1   249    1
     9     2     3    1
    10     2    46    1
    11     2    47    1
    12     2    48    1
    13     3     4    1
    14     3    49    1
    15     3    50    1
    16     4     5    1
    17     4    51    1
    18     4    52    1
    19     5     6    1
    20     5    53    1
    21     5    54    1
    22     6     7    1
    23     6    55    1
    24     6    56    1
    25     7     8    1
    26     7    57    1
    27     7    58    1
    28     8     9    1
    29     8    59    1
    30     8    60    1
    31     9    10    1
    32     9    61    1
    33     9    62    1
    34    10    11    1
    35    10    19    1
    36    11    12    1
    37    11    63    1
    38    11    64    1
    39    12    13    1
    40    12    65    1
    41    12    66    1
    42    13    14    1
    43    13    67    1
    44    13    68    1
    45    14    15    1
    46    14    69    1
    47    14    70    1
    48    15    16    1
    49    15    71    1
    50    15    72    1
    51    16    17    1
    52    16    73    1
    53    16    74    1
    54    17    18    1
    55    17    75    1
    56    17    76    1
    57    18    77    1
    58    18    78    1
    59    18    79    1
    60    19    20    2
    61    19    21    1
    62    21    22    1
    63    21    23    1
    64    21    80    1
    65    22    81    1
    66    22    82    1
    67    22    83    1
    68    23    24    1
    69    24    25    1
    70    24    27    1
    71    24    84    1
    72    25    26    1
    73    25    85    1
    74    25    86    1
    75    26    87    1
    76    26    88    1
    77    26    89    1
    78    27    28    2
    79    27    29    1
    80    29    30    1
    81    29    38    1
    82    30    31    1
    83    30    90    1
    84    30    91    1
    85    31    32    1
    86    31    92    1
    87    31    93    1
    88    32    33    1
    89    32    94    1
    90    32    95    1
    91    33    34    1
    92    33    96    1
    93    33    97    1
    94    34    35    1
    95    34    98    1
    96    34    99    1
    97    35    36    1
    98    35   100    1
    99    35   101    1
   100    36    37    1
   101    36   102    1
   102    36   103    1
   103    37   104    1
   104    37   105    1
   105    37   106    1
   106    38    39    1
   107    38   107    1
   108    38   108    1
   109    39    40    1
   110    39   109    1
   111    39   110    1
   112    40    41    1
   113    40   111    1
   114    40   112    1
   115    41    42    1
   116    41   113    1
   117    41   114    1
   118    42    43    1
   119    42   115    1
   120    42   116    1
   121    43    44    1
   122    43   117    1
   123    43   118    1
   124    44    45    1
   125    44   119    1
   126    44   120    1
   127    45   121    1
   128    45   122    1
   129    45   123    1
   130   124   125    1
   131   124   168    1
   132   124   169    1
   133   124   170    1
   134   125   126    1
   135   125   171    1
   136   125   172    1
   137   126   127    1
   138   126   173    1
   139   126   174    1
   140   127   128    1
   141   127   175    1
   142   127   176    1
   143   128   129    1
   144   128   177    1
   145   128   178    1
   146   129   130    1
   147   129   179    1
   148   129   180    1
   149   130   131    1
   150   130   181    1
   151   130   182    1
   152   131   132    1
   153   131   183    1
   154   131   184    1
   155   132   133    1
   156   132   141    1
   157   133   134    1
   158   133   185    1
   159   133   186    1
   160   134   135    1
   161   134   187    1
   162   134   188    1
   163   135   136    1
   164   135   189    1
   165   135   190    1
   166   136   137    1
   167   136   191    1
   168   136   192    1
   169   137   138    1
   170   137   193    1
   171   137   194    1
   172   138   139    1
   173   138   195    1
   174   138   196    1
   175   139   140    1
   176   139   197    1
   177   139   198    1
   178   140   199    1
   179   140   200    1
   180   140   201    1
   181   141   142    2
   182   141   143    1
   183   143   144    1
   184   143   145    1
   185   143   202    1
   186   144   203    1
   187   144   204    1
   188   144   205    1
   189   145   146    1
   190   146   147    1
   191   146   149    1
   192   146   206    1
   193   147   148    1
   194   147   207    1
   195   147   208    1
   196   148   209    1
   197   148   210    1
   198   148   211    1
   199   149   150    2
   200   149   151    1
   201   151   152    1
   202   151   160    1
   203   152   153    1
   204   152   212    1
   205   152   213    1
   206   153   154    1
   207   153   214    1
   208   153   215    1
   209   154   155    1
   210   154   216    1
   211   154   217    1
   212   155   156    1
   213   155   218    1
   214   155   219    1
   215   156   157    1
   216   156   220    1
   217   156   221    1
   218   157   158    1
   219   157   222    1
   220   157   223    1
   221   158   159    1
   222   158   224    1
   223   158   225    1
   224   159   226    1
   225   159   227    1
   226   159   228    1
   227   160   161    1
   228   160   229    1
   229   160   230    1
   230   161   162    1
   231   161   231    1
   232   161   232    1
   233   162   163    1
   234   162   233    1
   235   162   234    1
   236   163   164    1
   237   163   235    1
   238   163   236    1
   239   164   165    1
   240   164   237    1
   241   164   238    1
   242   165   166    1
   243   165   239    1
   244   165   240    1
   245   166   167    1
   246   166   241    1
   247   166   242    1
   248   167   243    1
   249   167   244    1
   250   167   245    1
   251   246   247    2
   252   246   248    1
   253   246   249    1
@<TRIPOS>SUBSTRUCTURE
     1 RES1      249 GROUP             0 ****  ****    0  
