@<TRIPOS>MOLECULE
axial_bicapped_trigonal_prismatic_0_nunpairedes_0_charge_2 Charge: 2 Unpaired_Electrons: 5 XTB_Unpaired_Electrons: 0 XTB_Charge: 2
   315   319     1     0     0
SMALL
NoCharges
****
Generated from Architector

@<TRIPOS>ATOM
     1 Dy1      -0.2089   -0.2656   -0.0049   Dy        1 RES1   0.0000
     2 C1        3.2030    4.5672   -4.1012   C.3       1 RES1   0.0000
     3 C2        3.3249    3.9349   -5.4828   C.3       1 RES1   0.0000
     4 C3        4.3403    2.7909   -5.5122   C.3       1 RES1   0.0000
     5 C4        4.7135    2.3373   -6.9282   C.3       1 RES1   0.0000
     6 C5        3.5353    1.9633   -7.8315   C.3       1 RES1   0.0000
     7 C6        2.7411    0.7488   -7.3538   C.3       1 RES1   0.0000
     8 C7        1.5876    0.4118   -8.3001   C.3       1 RES1   0.0000
     9 C8        0.6054   -0.6026   -7.7098   C.3       1 RES1   0.0000
    10 C9       -0.3378    0.0728   -6.7083   C.3       1 RES1   0.0000
    11 C10      -1.0467   -0.9507   -5.8124   C.3       1 RES1   0.0000
    12 N1       -1.5585   -0.5262   -4.5043   N.am      1 RES1   0.0000
    13 C11      -2.9659   -0.7925   -4.2326   C.3       1 RES1   0.0000
    14 C12      -3.9313    0.3459   -4.5583   C.3       1 RES1   0.0000
    15 C13      -4.3955    0.4563   -6.0159   C.3       1 RES1   0.0000
    16 C14      -3.7437    1.6273   -6.7416   C.3       1 RES1   0.0000
    17 C15      -4.2211    2.9921   -6.2468   C.3       1 RES1   0.0000
    18 C16      -3.5701    4.1367   -7.0273   C.3       1 RES1   0.0000
    19 C17      -2.0548    4.1846   -6.8492   C.3       1 RES1   0.0000
    20 C18      -1.4038    5.3017   -7.6565   C.3       1 RES1   0.0000
    21 C19       0.1190    5.2267   -7.5815   C.3       1 RES1   0.0000
    22 C20       0.7832    6.2890   -8.4462   C.3       1 RES1   0.0000
    23 C21      -0.7992   -0.2635   -3.4367   C.2       1 RES1   0.0000
    24 O1       -1.2393   -0.2669   -2.2631   O.2       1 RES1   0.0000
    25 C22       0.6792    0.0581   -3.5884   C.3       1 RES1   0.0000
    26 C23       0.9050    1.5929   -3.5576   C.3       1 RES1   0.0000
    27 C24      -0.2750    2.4887   -3.9739   C.3       1 RES1   0.0000
    28 C25      -1.1274    2.9371   -2.7882   C.3       1 RES1   0.0000
    29 O2        1.3149   -0.5282   -2.4461   O.3       1 RES1   0.0000
    30 C26       1.8842   -1.8219   -2.6806   C.3       1 RES1   0.0000
    31 C27       3.3988   -1.6169   -2.8787   C.3       1 RES1   0.0000
    32 C28       4.0992   -1.0944   -1.6074   C.3       1 RES1   0.0000
    33 C29       4.5210    0.3678   -1.7225   C.3       1 RES1   0.0000
    34 C30       1.4956   -2.6874   -1.4571   C.2       1 RES1   0.0000
    35 O3        0.6335   -2.2102   -0.6926   O.2       1 RES1   0.0000
    36 N2        2.0637   -3.8772   -1.2372   N.am      1 RES1   0.0000
    37 C31       2.8176   -4.6110   -2.2603   C.3       1 RES1   0.0000
    38 C32       2.5118   -6.1234   -2.3647   C.3       1 RES1   0.0000
    39 C33       1.5601   -6.5321   -3.5000   C.3       1 RES1   0.0000
    40 C34       1.2809   -8.0482   -3.4534   C.3       1 RES1   0.0000
    41 C35      -0.0233   -8.4855   -4.1515   C.3       1 RES1   0.0000
    42 C36      -0.6255   -9.7885   -3.5751   C.3       1 RES1   0.0000
    43 C37      -2.0057   -9.6144   -2.9238   C.3       1 RES1   0.0000
    44 C38      -2.4900  -10.8773   -2.2084   C.3       1 RES1   0.0000
    45 C39      -3.7554  -10.6517   -1.3730   C.3       1 RES1   0.0000
    46 C40      -3.5251   -9.9636   -0.0283   C.3       1 RES1   0.0000
    47 C41       2.3866   -4.2849    0.1468   C.3       1 RES1   0.0000
    48 C42       1.3803   -3.9506    1.2517   C.3       1 RES1   0.0000
    49 C43       0.0610   -4.6767    1.0028   C.3       1 RES1   0.0000
    50 C44      -0.9900   -4.7993    2.1191   C.3       1 RES1   0.0000
    51 C45      -2.1563   -3.8157    2.0178   C.3       1 RES1   0.0000
    52 C46      -3.2712   -4.1170    3.0214   C.3       1 RES1   0.0000
    53 C47      -4.4482   -3.1491    2.8891   C.3       1 RES1   0.0000
    54 C48      -5.3836   -3.4449    1.7138   C.3       1 RES1   0.0000
    55 C49      -6.4220   -2.3292    1.6084   C.3       1 RES1   0.0000
    56 C50      -7.3132   -2.3423    0.3668   C.3       1 RES1   0.0000
    57 H1        2.4167    5.3169   -4.1014   H         1 RES1   0.0000
    58 H2        4.1332    5.0516   -3.8196   H         1 RES1   0.0000
    59 H3        2.9679    3.8236   -3.3433   H         1 RES1   0.0000
    60 H4        3.6297    4.6993   -6.1988   H         1 RES1   0.0000
    61 H5        2.3472    3.5632   -5.7992   H         1 RES1   0.0000
    62 H6        3.9543    1.9437   -4.9367   H         1 RES1   0.0000
    63 H7        5.2576    3.1202   -5.0175   H         1 RES1   0.0000
    64 H8        5.4011    1.4906   -6.8557   H         1 RES1   0.0000
    65 H9        5.2552    3.1526   -7.4097   H         1 RES1   0.0000
    66 H10       3.9227    1.7610   -8.8314   H         1 RES1   0.0000
    67 H11       2.8665    2.8211   -7.9122   H         1 RES1   0.0000
    68 H12       2.3520    0.9483   -6.3530   H         1 RES1   0.0000
    69 H13       3.4039   -0.1160   -7.2822   H         1 RES1   0.0000
    70 H14       1.9999    0.0126   -9.2254   H         1 RES1   0.0000
    71 H15       1.0375    1.3200   -8.5530   H         1 RES1   0.0000
    72 H16       1.1633   -1.4137   -7.2337   H         1 RES1   0.0000
    73 H17       0.0122   -1.0472   -8.5100   H         1 RES1   0.0000
    74 H18      -1.0740    0.6345   -7.2814   H         1 RES1   0.0000
    75 H19       0.2240    0.7888   -6.1167   H         1 RES1   0.0000
    76 H20      -0.3776   -1.8070   -5.6576   H         1 RES1   0.0000
    77 H21      -1.9164   -1.3178   -6.3616   H         1 RES1   0.0000
    78 H22      -3.0044   -0.9638   -3.1625   H         1 RES1   0.0000
    79 H23      -3.2519   -1.7079   -4.7531   H         1 RES1   0.0000
    80 H24      -3.4733    1.2789   -4.2297   H         1 RES1   0.0000
    81 H25      -4.8098    0.1780   -3.9332   H         1 RES1   0.0000
    82 H26      -5.4778    0.5874   -6.0433   H         1 RES1   0.0000
    83 H27      -4.1772   -0.4686   -6.5528   H         1 RES1   0.0000
    84 H28      -3.9574    1.5565   -7.8074   H         1 RES1   0.0000
    85 H29      -2.6654    1.5639   -6.6042   H         1 RES1   0.0000
    86 H30      -3.9867    3.1098   -5.1854   H         1 RES1   0.0000
    87 H31      -5.3071    3.0547   -6.3556   H         1 RES1   0.0000
    88 H32      -3.9969    5.0849   -6.6930   H         1 RES1   0.0000
    89 H33      -3.8071    4.0206   -8.0864   H         1 RES1   0.0000
    90 H34      -1.6159    3.2411   -7.1770   H         1 RES1   0.0000
    91 H35      -1.8215    4.3138   -5.7900   H         1 RES1   0.0000
    92 H36      -1.7390    6.2730   -7.2888   H         1 RES1   0.0000
    93 H37      -1.7119    5.2176   -8.7007   H         1 RES1   0.0000
    94 H38       0.4449    4.2368   -7.9129   H         1 RES1   0.0000
    95 H39       0.4362    5.3496   -6.5432   H         1 RES1   0.0000
    96 H40       0.4941    6.1669   -9.4872   H         1 RES1   0.0000
    97 H41       1.8664    6.2210   -8.3814   H         1 RES1   0.0000
    98 H42       0.4815    7.2823   -8.1247   H         1 RES1   0.0000
    99 H43       1.1062   -0.3681   -4.4994   H         1 RES1   0.0000
   100 H44       1.1706    1.8557   -2.5329   H         1 RES1   0.0000
   101 H45       1.7700    1.8276   -4.1787   H         1 RES1   0.0000
   102 H46      -0.9027    1.9901   -4.7146   H         1 RES1   0.0000
   103 H47       0.1357    3.3840   -4.4434   H         1 RES1   0.0000
   104 H48      -1.4831    2.0849   -2.2071   H         1 RES1   0.0000
   105 H49      -1.9900    3.4981   -3.1422   H         1 RES1   0.0000
   106 H50      -0.5456    3.5769   -2.1263   H         1 RES1   0.0000
   107 H51       1.4296   -2.2797   -3.5726   H         1 RES1   0.0000
   108 H52       3.8723   -2.5316   -3.2238   H         1 RES1   0.0000
   109 H53       3.5178   -0.8825   -3.6810   H         1 RES1   0.0000
   110 H54       4.9947   -1.6898   -1.4132   H         1 RES1   0.0000
   111 H55       3.4319   -1.2111   -0.7458   H         1 RES1   0.0000
   112 H56       5.1529    0.5137   -2.5956   H         1 RES1   0.0000
   113 H57       3.6604    1.0251   -1.8044   H         1 RES1   0.0000
   114 H58       5.0835    0.6619   -0.8407   H         1 RES1   0.0000
   115 H59       3.8794   -4.4897   -2.0307   H         1 RES1   0.0000
   116 H60       2.6098   -4.1595   -3.2280   H         1 RES1   0.0000
   117 H61       2.1180   -6.4969   -1.4211   H         1 RES1   0.0000
   118 H62       3.4636   -6.6349   -2.5236   H         1 RES1   0.0000
   119 H63       2.0187   -6.2743   -4.4575   H         1 RES1   0.0000
   120 H64       0.6235   -5.9732   -3.4201   H         1 RES1   0.0000
   121 H65       1.2488   -8.3610   -2.4062   H         1 RES1   0.0000
   122 H66       2.1230   -8.5734   -3.9097   H         1 RES1   0.0000
   123 H67       0.1717   -8.6222   -5.2144   H         1 RES1   0.0000
   124 H68      -0.7693   -7.6920   -4.0811   H         1 RES1   0.0000
   125 H69       0.0592  -10.2072   -2.8328   H         1 RES1   0.0000
   126 H70      -0.7211  -10.5278   -4.3724   H         1 RES1   0.0000
   127 H71      -2.7323   -9.3283   -3.6891   H         1 RES1   0.0000
   128 H72      -1.9754   -8.8149   -2.1933   H         1 RES1   0.0000
   129 H73      -1.6972  -11.2523   -1.5562   H         1 RES1   0.0000
   130 H74      -2.6992  -11.6504   -2.9469   H         1 RES1   0.0000
   131 H75      -4.2086  -11.6233   -1.1756   H         1 RES1   0.0000
   132 H76      -4.4718  -10.0690   -1.9526   H         1 RES1   0.0000
   133 H77      -2.7207  -10.4503    0.5235   H         1 RES1   0.0000
   134 H78      -4.4302  -10.0266    0.5766   H         1 RES1   0.0000
   135 H79      -3.2767   -8.9113   -0.1535   H         1 RES1   0.0000
   136 H80       3.3466   -3.8049    0.3818   H         1 RES1   0.0000
   137 H81       2.5513   -5.3644    0.1336   H         1 RES1   0.0000
   138 H82       1.2554   -2.8697    1.3381   H         1 RES1   0.0000
   139 H83       1.8355   -4.3136    2.1722   H         1 RES1   0.0000
   140 H84       0.3516   -5.6954    0.7756   H         1 RES1   0.0000
   141 H85      -0.4087   -4.2309    0.1240   H         1 RES1   0.0000
   142 H86      -0.5277   -4.7615    3.1036   H         1 RES1   0.0000
   143 H87      -1.4263   -5.7980    2.0402   H         1 RES1   0.0000
   144 H88      -2.5834   -3.9110    1.0204   H         1 RES1   0.0000
   145 H89      -1.8206   -2.7754    2.1248   H         1 RES1   0.0000
   146 H90      -2.8773   -4.0592    4.0373   H         1 RES1   0.0000
   147 H91      -3.6353   -5.1357    2.8700   H         1 RES1   0.0000
   148 H92      -4.0620   -2.1288    2.7821   H         1 RES1   0.0000
   149 H93      -5.0439   -3.1798    3.8031   H         1 RES1   0.0000
   150 H94      -5.8867   -4.3999    1.8807   H         1 RES1   0.0000
   151 H95      -4.8092   -3.5328    0.7928   H         1 RES1   0.0000
   152 H96      -5.9045   -1.3749    1.6789   H         1 RES1   0.0000
   153 H97      -7.0460   -2.3870    2.4896   H         1 RES1   0.0000
   154 H98      -6.8076   -2.7495   -0.5035   H         1 RES1   0.0000
   155 H99      -7.6442   -1.3363    0.1179   H         1 RES1   0.0000
   156 H100     -8.1979   -2.9514    0.5168   H         1 RES1   0.0000
   157 C51       4.2760    4.6495    3.9697   C.3       1 RES1   0.0000
   158 C52       3.7055    4.7757    5.3772   C.3       1 RES1   0.0000
   159 C53       2.3467    5.4742    5.3837   C.3       1 RES1   0.0000
   160 C54       1.8305    5.7935    6.7904   C.3       1 RES1   0.0000
   161 C55       1.7378    4.6011    7.7465   C.3       1 RES1   0.0000
   162 C56       0.8336    3.4816    7.2331   C.3       1 RES1   0.0000
   163 C57       0.7143    2.3275    8.2278   C.3       1 RES1   0.0000
   164 C58      -0.1229    1.1585    7.7006   C.3       1 RES1   0.0000
   165 C59       0.6397    0.3360    6.6568   C.3       1 RES1   0.0000
   166 C60      -0.2929   -0.6422    5.9319   C.3       1 RES1   0.0000
   167 N3        0.0958   -1.1803    4.6202   N.am      1 RES1   0.0000
   168 C61       0.0579   -2.6335    4.4852   C.3       1 RES1   0.0000
   169 C62       1.3854   -3.3402    4.7591   C.3       1 RES1   0.0000
   170 C63       1.7063   -3.6523    6.2271   C.3       1 RES1   0.0000
   171 C64       2.8018   -2.7506    6.7839   C.3       1 RES1   0.0000
   172 C65       4.1776   -3.0159    6.1740   C.3       1 RES1   0.0000
   173 C66       5.2584   -2.1304    6.7995   C.3       1 RES1   0.0000
   174 C67       5.0150   -0.6431    6.5580   C.3       1 RES1   0.0000
   175 C68       6.0700    0.2416    7.2120   C.3       1 RES1   0.0000
   176 C69       5.7052    1.7185    7.0866   C.3       1 RES1   0.0000
   177 C70       6.7028    2.6153    7.8063   C.3       1 RES1   0.0000
   178 C71       0.1408   -0.4873    3.4840   C.2       1 RES1   0.0000
   179 O4        0.1334   -1.0275    2.3509   O.2       1 RES1   0.0000
   180 C72       0.1671    1.0373    3.5004   C.3       1 RES1   0.0000
   181 C73       1.6065    1.5923    3.3319   C.3       1 RES1   0.0000
   182 C74       2.7682    0.6866    3.7758   C.3       1 RES1   0.0000
   183 C75       3.3049   -0.1847    2.6433   C.3       1 RES1   0.0000
   184 O5       -0.6184    1.4411    2.3751   O.3       1 RES1   0.0000
   185 C76      -1.9885    1.7196    2.6787   C.3       1 RES1   0.0000
   186 C77      -2.1425    3.2498    2.7625   C.3       1 RES1   0.0000
   187 C78      -1.8505    3.9554    1.4229   C.3       1 RES1   0.0000
   188 C79      -0.4676    4.5991    1.3789   C.3       1 RES1   0.0000
   189 C80      -2.8166    1.0564    1.5534   C.2       1 RES1   0.0000
   190 O6       -2.1737    0.3409    0.7598   O.2       1 RES1   0.0000
   191 N4       -4.1310    1.2389    1.4362   N.am      1 RES1   0.0000
   192 C81      -4.9579    1.8715    2.4766   C.3       1 RES1   0.0000
   193 C82      -6.3480    1.2494    2.7414   C.3       1 RES1   0.0000
   194 C83      -6.4313    0.2165    3.8741   C.3       1 RES1   0.0000
   195 C84      -7.8382   -0.4073    3.9416   C.3       1 RES1   0.0000
   196 C85      -7.9113   -1.6652    4.8237   C.3       1 RES1   0.0000
   197 C86      -9.1176   -2.5823    4.5339   C.3       1 RES1   0.0000
   198 C87      -8.8496   -3.6353    3.4501   C.3       1 RES1   0.0000
   199 C88      -9.8852   -4.7553    3.3317   C.3       1 RES1   0.0000
   200 C89      -9.3760   -5.9359    2.4954   C.3       1 RES1   0.0000
   201 C90      -9.0240   -5.6168    1.0420   C.3       1 RES1   0.0000
   202 C91      -4.7462    1.2714    0.0899   C.3       1 RES1   0.0000
   203 C92      -4.1948    0.3278   -0.9847   C.3       1 RES1   0.0000
   204 C93      -4.2630   -1.1342   -0.5402   C.3       1 RES1   0.0000
   205 C94      -4.3611   -2.2484   -1.5966   C.3       1 RES1   0.0000
   206 C95      -3.1085   -3.1199   -1.6713   C.3       1 RES1   0.0000
   207 C96      -3.2900   -4.3610   -2.5442   C.3       1 RES1   0.0000
   208 C97      -2.0819   -5.2920   -2.4322   C.3       1 RES1   0.0000
   209 C98      -2.1185   -6.2233   -1.2180   C.3       1 RES1   0.0000
   210 C99      -0.7693   -6.9248   -1.0874   C.3       1 RES1   0.0000
   211 C100     -0.6094   -7.8485    0.1185   C.3       1 RES1   0.0000
   212 H101      5.2338    4.1377    3.9943   H         1 RES1   0.0000
   213 H102      4.4262    5.6324    3.5325   H         1 RES1   0.0000
   214 H103      3.6046    4.0911    3.3204   H         1 RES1   0.0000
   215 H104      4.3974    5.3501    5.9949   H         1 RES1   0.0000
   216 H105      3.6136    3.7827    5.8216   H         1 RES1   0.0000
   217 H106      1.6161    4.8628    4.8454   H         1 RES1   0.0000
   218 H107      2.4351    6.4174    4.8386   H         1 RES1   0.0000
   219 H108      0.8446    6.2570    6.7010   H         1 RES1   0.0000
   220 H109      2.4981    6.5320    7.2370   H         1 RES1   0.0000
   221 H110      1.3548    4.9642    8.7024   H         1 RES1   0.0000
   222 H111      2.7372    4.2045    7.9279   H         1 RES1   0.0000
   223 H112      1.2369    3.1101    6.2894   H         1 RES1   0.0000
   224 H113     -0.1622    3.8856    7.0357   H         1 RES1   0.0000
   225 H114      0.2515    2.7016    9.1407   H         1 RES1   0.0000
   226 H115      1.7079    1.9606    8.4890   H         1 RES1   0.0000
   227 H116     -1.0518    1.5471    7.2736   H         1 RES1   0.0000
   228 H117     -0.3951    0.5059    8.5319   H         1 RES1   0.0000
   229 H118      1.4192   -0.2196    7.1753   H         1 RES1   0.0000
   230 H119      1.1289    1.0083    5.9608   H         1 RES1   0.0000
   231 H120     -1.2831   -0.1788    5.8290   H         1 RES1   0.0000
   232 H121     -0.4104   -1.5118    6.5799   H         1 RES1   0.0000
   233 H122     -0.2130   -2.8072    3.4478   H         1 RES1   0.0000
   234 H123     -0.7334   -3.0210    5.1281   H         1 RES1   0.0000
   235 H124      2.1796   -2.7409    4.3131   H         1 RES1   0.0000
   236 H125      1.3429   -4.2835    4.2133   H         1 RES1   0.0000
   237 H126      2.0305   -4.6899    6.3154   H         1 RES1   0.0000
   238 H127      0.8085   -3.5516    6.8398   H         1 RES1   0.0000
   239 H128      2.8714   -2.8922    7.8616   H         1 RES1   0.0000
   240 H129      2.5278   -1.7143    6.5920   H         1 RES1   0.0000
   241 H130      4.1521   -2.8314    5.0966   H         1 RES1   0.0000
   242 H131      4.4409   -4.0660    6.3258   H         1 RES1   0.0000
   243 H132      6.2291   -2.4039    6.3803   H         1 RES1   0.0000
   244 H133      5.2949   -2.3215    7.8736   H         1 RES1   0.0000
   245 H134      4.0454   -0.3587    6.9693   H         1 RES1   0.0000
   246 H135      4.9925   -0.4514    5.4828   H         1 RES1   0.0000
   247 H136      7.0439    0.0660    6.7522   H         1 RES1   0.0000
   248 H137      6.1510   -0.0160    8.2700   H         1 RES1   0.0000
   249 H138      4.7088    1.8769    7.5086   H         1 RES1   0.0000
   250 H139      5.6644    1.9908    6.0292   H         1 RES1   0.0000
   251 H140      6.7361    2.3732    8.8659   H         1 RES1   0.0000
   252 H141      6.4278    3.6621    7.7022   H         1 RES1   0.0000
   253 H142      7.7000    2.4793    7.3958   H         1 RES1   0.0000
   254 H143     -0.2792    1.4376    4.4140   H         1 RES1   0.0000
   255 H144      1.7428    1.8084    2.2707   H         1 RES1   0.0000
   256 H145      1.6687    2.5459    3.8600   H         1 RES1   0.0000
   257 H146      2.4730    0.0569    4.6162   H         1 RES1   0.0000
   258 H147      3.5818    1.3288    4.1181   H         1 RES1   0.0000
   259 H148      2.5127   -0.7843    2.1944   H         1 RES1   0.0000
   260 H149      4.0720   -0.8551    3.0229   H         1 RES1   0.0000
   261 H150      3.7433    0.4359    1.8639   H         1 RES1   0.0000
   262 H151     -2.2682    1.2442    3.6318   H         1 RES1   0.0000
   263 H152     -3.1355    3.5102    3.1175   H         1 RES1   0.0000
   264 H153     -1.4333    3.6048    3.5160   H         1 RES1   0.0000
   265 H154     -2.5938    4.7396    1.2620   H         1 RES1   0.0000
   266 H155     -1.9426    3.2379    0.6005   H         1 RES1   0.0000
   267 H156     -0.3393    5.2789    2.2181   H         1 RES1   0.0000
   268 H157      0.3180    3.8506    1.4138   H         1 RES1   0.0000
   269 H158     -0.3514    5.1663    0.4595   H         1 RES1   0.0000
   270 H159     -5.1131    2.9108    2.1732   H         1 RES1   0.0000
   271 H160     -4.3989    1.8542    3.4115   H         1 RES1   0.0000
   272 H161     -6.7520    0.8110    1.8309   H         1 RES1   0.0000
   273 H162     -7.0122    2.0782    2.9957   H         1 RES1   0.0000
   274 H163     -6.2104    0.7132    4.8218   H         1 RES1   0.0000
   275 H164     -5.6820   -0.5666    3.7306   H         1 RES1   0.0000
   276 H165     -8.1668   -0.6496    2.9285   H         1 RES1   0.0000
   277 H166     -8.5327    0.3408    4.3302   H         1 RES1   0.0000
   278 H167     -7.9541   -1.3560    5.8684   H         1 RES1   0.0000
   279 H168     -6.9944   -2.2493    4.7115   H         1 RES1   0.0000
   280 H169     -9.9749   -1.9715    4.2499   H         1 RES1   0.0000
   281 H170     -9.3751   -3.0994    5.4596   H         1 RES1   0.0000
   282 H171     -7.8826   -4.1006    3.6580   H         1 RES1   0.0000
   283 H172     -8.8139   -3.1426    2.4821   H         1 RES1   0.0000
   284 H173    -10.8019   -4.3664    2.8856   H         1 RES1   0.0000
   285 H174    -10.1326   -5.1380    4.3218   H         1 RES1   0.0000
   286 H175    -10.1488   -6.7047    2.4989   H         1 RES1   0.0000
   287 H176     -8.4955   -6.3595    2.9823   H         1 RES1   0.0000
   288 H177     -9.7855   -4.9903    0.5797   H         1 RES1   0.0000
   289 H178     -8.9587   -6.5397    0.4652   H         1 RES1   0.0000
   290 H179     -8.0610   -5.1138    0.9713   H         1 RES1   0.0000
   291 H180     -4.6406    2.3061   -0.2621   H         1 RES1   0.0000
   292 H181     -5.8104    1.0725    0.2168   H         1 RES1   0.0000
   293 H182     -3.1817    0.6262   -1.2574   H         1 RES1   0.0000
   294 H183     -4.8402    0.4817   -1.8497   H         1 RES1   0.0000
   295 H184     -5.1660   -1.1951    0.0496   H         1 RES1   0.0000
   296 H185     -3.4143   -1.3499    0.1165   H         1 RES1   0.0000
   297 H186     -4.6405   -1.8637   -2.5766   H         1 RES1   0.0000
   298 H187     -5.1744   -2.9201   -1.3139   H         1 RES1   0.0000
   299 H188     -2.8816   -3.4552   -0.6595   H         1 RES1   0.0000
   300 H189     -2.2369   -2.5516   -2.0145   H         1 RES1   0.0000
   301 H190     -3.4223   -4.0622   -3.5849   H         1 RES1   0.0000
   302 H191     -4.1885   -4.9060   -2.2448   H         1 RES1   0.0000
   303 H192     -1.1714   -4.6843   -2.3802   H         1 RES1   0.0000
   304 H193     -2.0100   -5.9127   -3.3262   H         1 RES1   0.0000
   305 H194     -2.9200   -6.9530   -1.3504   H         1 RES1   0.0000
   306 H195     -2.3384   -5.6640   -0.3084   H         1 RES1   0.0000
   307 H196     -0.0077   -6.1523   -1.0750   H         1 RES1   0.0000
   308 H197     -0.5952   -7.4988   -1.9860   H         1 RES1   0.0000
   309 H198     -1.2181   -7.5261    0.9612   H         1 RES1   0.0000
   310 H199      0.4285   -7.8874    0.4466   H         1 RES1   0.0000
   311 H200     -0.9107   -8.8626   -0.1240   H         1 RES1   0.0000
   312 N5        1.3474    1.5593   -0.1197   N.3       1 RES1   0.0000
   313 O7        2.1219    2.4576   -0.1980   O.2       1 RES1   0.0000
   314 O8        0.1460    1.7240   -0.3728   O.co2     1 RES1   0.0000
   315 O9        1.7143    0.4215    0.2111   O.co2     1 RES1   0.0000
@<TRIPOS>BOND
     1     1    24    1
     2     1    29    1
     3     1    35    1
     4     1   179    1
     5     1   184    1
     6     1   190    1
     7     1   314    1
     8     1   315    1
     9     2     3    1
    10     2    57    1
    11     2    58    1
    12     2    59    1
    13     3     4    1
    14     3    60    1
    15     3    61    1
    16     4     5    1
    17     4    62    1
    18     4    63    1
    19     5     6    1
    20     5    64    1
    21     5    65    1
    22     6     7    1
    23     6    66    1
    24     6    67    1
    25     7     8    1
    26     7    68    1
    27     7    69    1
    28     8     9    1
    29     8    70    1
    30     8    71    1
    31     9    10    1
    32     9    72    1
    33     9    73    1
    34    10    11    1
    35    10    74    1
    36    10    75    1
    37    11    12    1
    38    11    76    1
    39    11    77    1
    40    12    13    1
    41    12    23    1
    42    13    14    1
    43    13    78    1
    44    13    79    1
    45    14    15    1
    46    14    80    1
    47    14    81    1
    48    15    16    1
    49    15    82    1
    50    15    83    1
    51    16    17    1
    52    16    84    1
    53    16    85    1
    54    17    18    1
    55    17    86    1
    56    17    87    1
    57    18    19    1
    58    18    88    1
    59    18    89    1
    60    19    20    1
    61    19    90    1
    62    19    91    1
    63    20    21    1
    64    20    92    1
    65    20    93    1
    66    21    22    1
    67    21    94    1
    68    21    95    1
    69    22    96    1
    70    22    97    1
    71    22    98    1
    72    23    24    2
    73    23    25    1
    74    25    26    1
    75    25    29    1
    76    25    99    1
    77    26    27    1
    78    26   100    1
    79    26   101    1
    80    27    28    1
    81    27   102    1
    82    27   103    1
    83    28   104    1
    84    28   105    1
    85    28   106    1
    86    29    30    1
    87    30    31    1
    88    30    34    1
    89    30   107    1
    90    31    32    1
    91    31   108    1
    92    31   109    1
    93    32    33    1
    94    32   110    1
    95    32   111    1
    96    33   112    1
    97    33   113    1
    98    33   114    1
    99    34    35    2
   100    34    36    1
   101    36    37    1
   102    36    47    1
   103    37    38    1
   104    37   115    1
   105    37   116    1
   106    38    39    1
   107    38   117    1
   108    38   118    1
   109    39    40    1
   110    39   119    1
   111    39   120    1
   112    40    41    1
   113    40   121    1
   114    40   122    1
   115    41    42    1
   116    41   123    1
   117    41   124    1
   118    42    43    1
   119    42   125    1
   120    42   126    1
   121    43    44    1
   122    43   127    1
   123    43   128    1
   124    44    45    1
   125    44   129    1
   126    44   130    1
   127    45    46    1
   128    45   131    1
   129    45   132    1
   130    46   133    1
   131    46   134    1
   132    46   135    1
   133    47    48    1
   134    47   136    1
   135    47   137    1
   136    48    49    1
   137    48   138    1
   138    48   139    1
   139    49    50    1
   140    49   140    1
   141    49   141    1
   142    50    51    1
   143    50   142    1
   144    50   143    1
   145    51    52    1
   146    51   144    1
   147    51   145    1
   148    52    53    1
   149    52   146    1
   150    52   147    1
   151    53    54    1
   152    53   148    1
   153    53   149    1
   154    54    55    1
   155    54   150    1
   156    54   151    1
   157    55    56    1
   158    55   152    1
   159    55   153    1
   160    56   154    1
   161    56   155    1
   162    56   156    1
   163   157   158    1
   164   157   212    1
   165   157   213    1
   166   157   214    1
   167   158   159    1
   168   158   215    1
   169   158   216    1
   170   159   160    1
   171   159   217    1
   172   159   218    1
   173   160   161    1
   174   160   219    1
   175   160   220    1
   176   161   162    1
   177   161   221    1
   178   161   222    1
   179   162   163    1
   180   162   223    1
   181   162   224    1
   182   163   164    1
   183   163   225    1
   184   163   226    1
   185   164   165    1
   186   164   227    1
   187   164   228    1
   188   165   166    1
   189   165   229    1
   190   165   230    1
   191   166   167    1
   192   166   231    1
   193   166   232    1
   194   167   168    1
   195   167   178    1
   196   168   169    1
   197   168   233    1
   198   168   234    1
   199   169   170    1
   200   169   235    1
   201   169   236    1
   202   170   171    1
   203   170   237    1
   204   170   238    1
   205   171   172    1
   206   171   239    1
   207   171   240    1
   208   172   173    1
   209   172   241    1
   210   172   242    1
   211   173   174    1
   212   173   243    1
   213   173   244    1
   214   174   175    1
   215   174   245    1
   216   174   246    1
   217   175   176    1
   218   175   247    1
   219   175   248    1
   220   176   177    1
   221   176   249    1
   222   176   250    1
   223   177   251    1
   224   177   252    1
   225   177   253    1
   226   178   179    2
   227   178   180    1
   228   180   181    1
   229   180   184    1
   230   180   254    1
   231   181   182    1
   232   181   255    1
   233   181   256    1
   234   182   183    1
   235   182   257    1
   236   182   258    1
   237   183   259    1
   238   183   260    1
   239   183   261    1
   240   184   185    1
   241   185   186    1
   242   185   189    1
   243   185   262    1
   244   186   187    1
   245   186   263    1
   246   186   264    1
   247   187   188    1
   248   187   265    1
   249   187   266    1
   250   188   267    1
   251   188   268    1
   252   188   269    1
   253   189   190    2
   254   189   191    1
   255   191   192    1
   256   191   202    1
   257   192   193    1
   258   192   270    1
   259   192   271    1
   260   193   194    1
   261   193   272    1
   262   193   273    1
   263   194   195    1
   264   194   274    1
   265   194   275    1
   266   195   196    1
   267   195   276    1
   268   195   277    1
   269   196   197    1
   270   196   278    1
   271   196   279    1
   272   197   198    1
   273   197   280    1
   274   197   281    1
   275   198   199    1
   276   198   282    1
   277   198   283    1
   278   199   200    1
   279   199   284    1
   280   199   285    1
   281   200   201    1
   282   200   286    1
   283   200   287    1
   284   201   288    1
   285   201   289    1
   286   201   290    1
   287   202   203    1
   288   202   291    1
   289   202   292    1
   290   203   204    1
   291   203   293    1
   292   203   294    1
   293   204   205    1
   294   204   295    1
   295   204   296    1
   296   205   206    1
   297   205   297    1
   298   205   298    1
   299   206   207    1
   300   206   299    1
   301   206   300    1
   302   207   208    1
   303   207   301    1
   304   207   302    1
   305   208   209    1
   306   208   303    1
   307   208   304    1
   308   209   210    1
   309   209   305    1
   310   209   306    1
   311   210   211    1
   312   210   307    1
   313   210   308    1
   314   211   309    1
   315   211   310    1
   316   211   311    1
   317   312   313    2
   318   312   314    1
   319   312   315    1
@<TRIPOS>SUBSTRUCTURE
     1 RES1      315 GROUP             0 ****  ****    0  
