@<TRIPOS>MOLECULE
axial_bicapped_trigonal_prismatic_0_nunpairedes_0_charge_3 Charge: 3 Unpaired_Electrons: 5 XTB_Unpaired_Electrons: 0 XTB_Charge: 3
   233   236     1     0     0
SMALL
NoCharges
****
Generated from Architector

@<TRIPOS>ATOM
     1 Dy1       0.1773    0.1141    0.1080   Dy        1 RES1   0.0000
     2 C1        0.9637   -6.2116    4.8344   C.3       1 RES1   0.0000
     3 C2        0.0301   -5.3665    3.9749   C.3       1 RES1   0.0000
     4 C3       -0.3276   -4.0160    4.5987   C.3       1 RES1   0.0000
     5 C4        0.7795   -2.9677    4.5026   C.3       1 RES1   0.0000
     6 C5        0.3658   -1.6240    5.0953   C.3       1 RES1   0.0000
     7 C6        1.4206   -0.5397    4.8641   C.3       1 RES1   0.0000
     8 C7        1.0272    0.7794    5.5500   C.3       1 RES1   0.0000
     9 C8        1.2233    2.0787    4.7613   C.3       1 RES1   0.0000
    10 C9        2.6827    2.3841    4.3881   C.3       1 RES1   0.0000
    11 C10       3.0195    2.2386    2.8995   C.3       1 RES1   0.0000
    12 N1        2.2869    3.1564    2.0104   N.am      1 RES1   0.0000
    13 C11       2.4468    4.5862    2.2286   C.3       1 RES1   0.0000
    14 C12       3.5918    5.2208    1.4265   C.3       1 RES1   0.0000
    15 C13       5.0118    4.7894    1.8314   C.3       1 RES1   0.0000
    16 C14       5.5862    3.7193    0.9002   C.3       1 RES1   0.0000
    17 C15       6.9476    3.1652    1.3290   C.3       1 RES1   0.0000
    18 C16       7.3906    2.0709    0.3539   C.3       1 RES1   0.0000
    19 C17       8.8079    1.5291    0.5300   C.3       1 RES1   0.0000
    20 C18       9.0757    0.7896    1.8387   C.3       1 RES1   0.0000
    21 C19       8.2082   -0.4459    2.0937   C.3       1 RES1   0.0000
    22 C20       8.5246   -1.6138    1.1634   C.3       1 RES1   0.0000
    23 C21       1.6316    2.6580    0.9778   C.2       1 RES1   0.0000
    24 O1        1.7534    1.4539    0.6359   O.2       1 RES1   0.0000
    25 C22       0.6553    3.4860    0.1124   C.3       1 RES1   0.0000
    26 O2       -0.0787    2.5429   -0.6785   O.3       1 RES1   0.0000
    27 C23      -0.1579    2.8041   -2.0848   C.3       1 RES1   0.0000
    28 C24      -0.3581    1.4527   -2.7769   C.2       1 RES1   0.0000
    29 O3       -0.2992    0.4253   -2.0556   O.2       1 RES1   0.0000
    30 N2       -0.5138    1.3488   -4.0841   N.am      1 RES1   0.0000
    31 C25      -0.7307    2.4613   -4.9956   C.3       1 RES1   0.0000
    32 C26       0.4737    2.8339   -5.8718   C.3       1 RES1   0.0000
    33 C27       0.1614    4.1184   -6.6588   C.3       1 RES1   0.0000
    34 C28       1.3567    5.0595   -6.8620   C.3       1 RES1   0.0000
    35 C29       2.3549    4.6480   -7.9523   C.3       1 RES1   0.0000
    36 C30       3.5601    3.8731   -7.4366   C.3       1 RES1   0.0000
    37 C31      -0.5712   -0.0118   -4.6343   C.3       1 RES1   0.0000
    38 C32       0.7944   -0.7278   -4.5978   C.3       1 RES1   0.0000
    39 C33       1.6733   -0.6566   -5.8613   C.3       1 RES1   0.0000
    40 C34       3.0159    0.0131   -5.5595   C.3       1 RES1   0.0000
    41 C35       3.9841    0.0159   -6.7422   C.3       1 RES1   0.0000
    42 C36       5.3048    0.6970   -6.3917   C.3       1 RES1   0.0000
    43 H1        1.2024   -7.1363    4.3130   H         1 RES1   0.0000
    44 H2        0.4873   -6.4689    5.7779   H         1 RES1   0.0000
    45 H3        1.8940   -5.6897    5.0513   H         1 RES1   0.0000
    46 H4       -0.8921   -5.9246    3.8050   H         1 RES1   0.0000
    47 H5        0.4927   -5.2064    2.9947   H         1 RES1   0.0000
    48 H6       -0.5768   -4.1645    5.6487   H         1 RES1   0.0000
    49 H7       -1.2263   -3.6233    4.1116   H         1 RES1   0.0000
    50 H8        1.0682   -2.8042    3.4595   H         1 RES1   0.0000
    51 H9        1.6567   -3.3305    5.0348   H         1 RES1   0.0000
    52 H10       0.2088   -1.7471    6.1656   H         1 RES1   0.0000
    53 H11      -0.5948   -1.3270    4.6604   H         1 RES1   0.0000
    54 H12       1.5971   -0.4324    3.7863   H         1 RES1   0.0000
    55 H13       2.3573   -0.9051    5.2757   H         1 RES1   0.0000
    56 H14       1.5786    0.8686    6.4863   H         1 RES1   0.0000
    57 H15      -0.0248    0.7243    5.8227   H         1 RES1   0.0000
    58 H16       0.8501    2.8809    5.3997   H         1 RES1   0.0000
    59 H17       0.6137    2.0930    3.8547   H         1 RES1   0.0000
    60 H18       3.3383    1.7044    4.9368   H         1 RES1   0.0000
    61 H19       2.9476    3.3850    4.7250   H         1 RES1   0.0000
    62 H20       2.8098    1.2151    2.5783   H         1 RES1   0.0000
    63 H21       4.0820    2.4307    2.7607   H         1 RES1   0.0000
    64 H22       2.6521    4.7455    3.2852   H         1 RES1   0.0000
    65 H23       1.5078    5.0781    1.9750   H         1 RES1   0.0000
    66 H24       3.4838    6.2924    1.5867   H         1 RES1   0.0000
    67 H25       3.4684    5.0296    0.3611   H         1 RES1   0.0000
    68 H26       5.0291    4.4383    2.8631   H         1 RES1   0.0000
    69 H27       5.6640    5.6622    1.8007   H         1 RES1   0.0000
    70 H28       5.7066    4.1597   -0.0913   H         1 RES1   0.0000
    71 H29       4.8824    2.8873    0.8021   H         1 RES1   0.0000
    72 H30       6.8917    2.7666    2.3412   H         1 RES1   0.0000
    73 H31       7.6711    3.9794    1.3340   H         1 RES1   0.0000
    74 H32       7.3319    2.4829   -0.6566   H         1 RES1   0.0000
    75 H33       6.6849    1.2395    0.4189   H         1 RES1   0.0000
    76 H34       9.5103    2.3584    0.4611   H         1 RES1   0.0000
    77 H35       9.0131    0.8602   -0.3074   H         1 RES1   0.0000
    78 H36       8.9500    1.4846    2.6686   H         1 RES1   0.0000
    79 H37      10.1207    0.4753    1.8398   H         1 RES1   0.0000
    80 H38       7.1470   -0.1839    2.0210   H         1 RES1   0.0000
    81 H39       8.3938   -0.7700    3.1202   H         1 RES1   0.0000
    82 H40       8.3711   -1.3438    0.1200   H         1 RES1   0.0000
    83 H41       7.8966   -2.4738    1.4001   H         1 RES1   0.0000
    84 H42       9.5637   -1.9123    1.2806   H         1 RES1   0.0000
    85 H43       1.2119    4.1811   -0.5276   H         1 RES1   0.0000
    86 H44      -0.0477    4.0618    0.7302   H         1 RES1   0.0000
    87 H45       0.7912    3.2232   -2.4373   H         1 RES1   0.0000
    88 H46      -0.9732    3.5110   -2.2732   H         1 RES1   0.0000
    89 H47      -1.0091    3.3405   -4.4127   H         1 RES1   0.0000
    90 H48      -1.5731    2.1887   -5.6389   H         1 RES1   0.0000
    91 H49       0.7162    2.0304   -6.5646   H         1 RES1   0.0000
    92 H50       1.3426    2.9979   -5.2324   H         1 RES1   0.0000
    93 H51      -0.6014    4.6788   -6.1120   H         1 RES1   0.0000
    94 H52      -0.2647    3.8621   -7.6309   H         1 RES1   0.0000
    95 H53       1.8854    5.1910   -5.9146   H         1 RES1   0.0000
    96 H54       0.9386    6.0301   -7.1290   H         1 RES1   0.0000
    97 H55       2.7189    5.5517   -8.4403   H         1 RES1   0.0000
    98 H56       1.8416    4.0566   -8.7105   H         1 RES1   0.0000
    99 H57       4.1269    4.4764   -6.7309   H         1 RES1   0.0000
   100 H58       4.2168    3.6254   -8.2659   H         1 RES1   0.0000
   101 H59       3.2565    2.9521   -6.9473   H         1 RES1   0.0000
   102 H60      -0.9644    0.0391   -5.6476   H         1 RES1   0.0000
   103 H61      -1.2761   -0.5815   -4.0210   H         1 RES1   0.0000
   104 H62       0.6160   -1.7747   -4.3438   H         1 RES1   0.0000
   105 H63       1.3574   -0.2729   -3.7835   H         1 RES1   0.0000
   106 H64       1.1744   -0.1079   -6.6587   H         1 RES1   0.0000
   107 H65       1.8520   -1.6641   -6.2349   H         1 RES1   0.0000
   108 H66       3.5006   -0.5032   -4.7258   H         1 RES1   0.0000
   109 H67       2.8350    1.0460   -5.2541   H         1 RES1   0.0000
   110 H68       3.5295    0.5272   -7.5928   H         1 RES1   0.0000
   111 H69       4.1829   -1.0134   -7.0432   H         1 RES1   0.0000
   112 H70       5.1412    1.7058   -6.0182   H         1 RES1   0.0000
   113 H71       5.9388    0.7639   -7.2696   H         1 RES1   0.0000
   114 H72       5.8519    0.1309   -5.6414   H         1 RES1   0.0000
   115 C37       3.6052    6.7096   -2.3340   C.3       1 RES1   0.0000
   116 C38       2.5095    5.6885   -2.6145   C.3       1 RES1   0.0000
   117 C39       3.0383    4.3681   -3.1901   C.3       1 RES1   0.0000
   118 C40       3.6207    3.3996   -2.1575   C.3       1 RES1   0.0000
   119 C41       3.8624    1.9973   -2.7159   C.3       1 RES1   0.0000
   120 C42       4.6767    1.1600   -1.7245   C.3       1 RES1   0.0000
   121 C43       5.4620   -0.0064   -2.3455   C.3       1 RES1   0.0000
   122 C44       4.9400   -1.4275   -2.1152   C.3       1 RES1   0.0000
   123 C45       5.2045   -1.9933   -0.7097   C.3       1 RES1   0.0000
   124 C46       4.2220   -1.6994    0.4374   C.3       1 RES1   0.0000
   125 N3        3.1347   -2.6854    0.5739   N.am      1 RES1   0.0000
   126 C47       3.4786   -4.0890    0.7614   C.3       1 RES1   0.0000
   127 C48       3.6825   -4.4353    2.2461   C.3       1 RES1   0.0000
   128 C49       4.8698   -3.7418    2.9460   C.3       1 RES1   0.0000
   129 C50       4.4312   -2.5977    3.8662   C.3       1 RES1   0.0000
   130 C51       5.5856   -1.9149    4.6077   C.3       1 RES1   0.0000
   131 C52       5.0784   -0.6852    5.3646   C.3       1 RES1   0.0000
   132 C53       6.0256   -0.0868    6.4041   C.3       1 RES1   0.0000
   133 C54       7.2994    0.5556    5.8591   C.3       1 RES1   0.0000
   134 C55       7.0903    1.7517    4.9270   C.3       1 RES1   0.0000
   135 C56       6.4472    2.9636    5.5947   C.3       1 RES1   0.0000
   136 C57       1.9207   -2.2502    0.8756   C.2       1 RES1   0.0000
   137 O4        1.6873   -1.0797    1.2581   O.2       1 RES1   0.0000
   138 C58       0.6647   -3.1379    0.7016   C.3       1 RES1   0.0000
   139 O5       -0.4091   -2.2034    0.5165   O.3       1 RES1   0.0000
   140 C59      -1.7015   -2.5289    1.0436   C.3       1 RES1   0.0000
   141 C60      -2.4679   -1.1892    1.0699   C.2       1 RES1   0.0000
   142 O6       -1.9768   -0.2461    0.4069   O.2       1 RES1   0.0000
   143 N4       -3.5672   -1.0303    1.7922   N.am      1 RES1   0.0000
   144 C61      -4.2987   -2.1305    2.4162   C.3       1 RES1   0.0000
   145 C62      -4.0458   -2.3549    3.9160   C.3       1 RES1   0.0000
   146 C63      -4.8302   -3.5911    4.3844   C.3       1 RES1   0.0000
   147 C64      -4.2466   -4.3434    5.5868   C.3       1 RES1   0.0000
   148 C65      -4.2744   -3.6169    6.9395   C.3       1 RES1   0.0000
   149 C66      -2.9754   -2.8899    7.2774   C.3       1 RES1   0.0000
   150 C67      -4.2243    0.2834    1.7215   C.3       1 RES1   0.0000
   151 C68      -3.6211    1.4028    2.5877   C.3       1 RES1   0.0000
   152 C69      -3.9447    1.3347    4.0930   C.3       1 RES1   0.0000
   153 C70      -2.7625    1.0522    5.0241   C.3       1 RES1   0.0000
   154 C71      -3.2356    1.0571    6.4843   C.3       1 RES1   0.0000
   155 C72      -2.1305    0.8754    7.5177   C.3       1 RES1   0.0000
   156 H73       3.1847    7.5747   -1.8285   H         1 RES1   0.0000
   157 H74       4.0469    7.0441   -3.2680   H         1 RES1   0.0000
   158 H75       4.3925    6.2938   -1.7103   H         1 RES1   0.0000
   159 H76       1.8029    6.1169   -3.3282   H         1 RES1   0.0000
   160 H77       1.9474    5.4984   -1.6934   H         1 RES1   0.0000
   161 H78       3.8155    4.5964   -3.9206   H         1 RES1   0.0000
   162 H79       2.2379    3.8636   -3.7398   H         1 RES1   0.0000
   163 H80       2.9747    3.2963   -1.2822   H         1 RES1   0.0000
   164 H81       4.5713    3.8028   -1.8144   H         1 RES1   0.0000
   165 H82       4.4103    2.0917   -3.6516   H         1 RES1   0.0000
   166 H83       2.8968    1.5271   -2.9378   H         1 RES1   0.0000
   167 H84       4.0268    0.8345   -0.9088   H         1 RES1   0.0000
   168 H85       5.4017    1.8364   -1.2830   H         1 RES1   0.0000
   169 H86       6.4872    0.0144   -1.9729   H         1 RES1   0.0000
   170 H87       5.5347    0.1673   -3.4199   H         1 RES1   0.0000
   171 H88       5.4951   -2.0654   -2.8071   H         1 RES1   0.0000
   172 H89       3.8910   -1.5322   -2.3850   H         1 RES1   0.0000
   173 H90       6.1884   -1.6418   -0.3970   H         1 RES1   0.0000
   174 H91       5.2947   -3.0730   -0.8152   H         1 RES1   0.0000
   175 H92       3.7448   -0.7257    0.3227   H         1 RES1   0.0000
   176 H93       4.7860   -1.6739    1.3683   H         1 RES1   0.0000
   177 H94       4.3858   -4.3151    0.2060   H         1 RES1   0.0000
   178 H95       2.6796   -4.7073    0.3499   H         1 RES1   0.0000
   179 H96       3.8111   -5.5176    2.2938   H         1 RES1   0.0000
   180 H97       2.7697   -4.1995    2.7938   H         1 RES1   0.0000
   181 H98       5.5887   -3.3783    2.2106   H         1 RES1   0.0000
   182 H99       5.3973   -4.4815    3.5471   H         1 RES1   0.0000
   183 H100      3.7464   -3.0042    4.6120   H         1 RES1   0.0000
   184 H101      3.8733   -1.8417    3.3057   H         1 RES1   0.0000
   185 H102      6.3697   -1.6266    3.9080   H         1 RES1   0.0000
   186 H103      6.0121   -2.6286    5.3108   H         1 RES1   0.0000
   187 H104      4.1814   -0.9791    5.9104   H         1 RES1   0.0000
   188 H105      4.7916    0.0809    4.6409   H         1 RES1   0.0000
   189 H106      6.3158   -0.8722    7.1022   H         1 RES1   0.0000
   190 H107      5.4719    0.6613    6.9749   H         1 RES1   0.0000
   191 H108      7.8846   -0.1995    5.3303   H         1 RES1   0.0000
   192 H109      7.8970    0.8895    6.7098   H         1 RES1   0.0000
   193 H110      6.4983    1.4426    4.0592   H         1 RES1   0.0000
   194 H111      8.0748    2.0532    4.5628   H         1 RES1   0.0000
   195 H112      5.4320    2.7501    5.9210   H         1 RES1   0.0000
   196 H113      6.4199    3.8037    4.9013   H         1 RES1   0.0000
   197 H114      7.0253    3.2655    6.4643   H         1 RES1   0.0000
   198 H115      0.5157   -3.7472    1.6034   H         1 RES1   0.0000
   199 H116      0.7632   -3.7984   -0.1737   H         1 RES1   0.0000
   200 H117     -1.6207   -2.9617    2.0488   H         1 RES1   0.0000
   201 H118     -2.2048   -3.2419    0.3730   H         1 RES1   0.0000
   202 H119     -4.0649   -3.0592    1.8905   H         1 RES1   0.0000
   203 H120     -5.3623   -1.9356    2.2637   H         1 RES1   0.0000
   204 H121     -4.3530   -1.4920    4.5033   H         1 RES1   0.0000
   205 H122     -2.9801   -2.5113    4.0852   H         1 RES1   0.0000
   206 H123     -4.8699   -4.3039    3.5578   H         1 RES1   0.0000
   207 H124     -5.8590   -3.3067    4.6063   H         1 RES1   0.0000
   208 H125     -3.2219   -4.6468    5.3609   H         1 RES1   0.0000
   209 H126     -4.8370   -5.2554    5.6793   H         1 RES1   0.0000
   210 H127     -4.4480   -4.3577    7.7205   H         1 RES1   0.0000
   211 H128     -5.1104   -2.9164    6.9724   H         1 RES1   0.0000
   212 H129     -2.1561   -3.6035    7.3640   H         1 RES1   0.0000
   213 H130     -3.0739   -2.3795    8.2337   H         1 RES1   0.0000
   214 H131     -2.7222   -2.1535    6.5160   H         1 RES1   0.0000
   215 H132     -5.2718    0.1539    1.9867   H         1 RES1   0.0000
   216 H133     -4.1839    0.6172    0.6806   H         1 RES1   0.0000
   217 H134     -4.0422    2.3291    2.1920   H         1 RES1   0.0000
   218 H135     -2.5460    1.4802    2.4082   H         1 RES1   0.0000
   219 H136     -4.7072    0.5787    4.2749   H         1 RES1   0.0000
   220 H137     -4.3785    2.2883    4.3907   H         1 RES1   0.0000
   221 H138     -1.9945    1.8218    4.8940   H         1 RES1   0.0000
   222 H139     -2.3213    0.0739    4.7925   H         1 RES1   0.0000
   223 H140     -3.9811    0.2714    6.6221   H         1 RES1   0.0000
   224 H141     -3.7313    2.0104    6.6679   H         1 RES1   0.0000
   225 H142     -1.6075   -0.0693    7.3954   H         1 RES1   0.0000
   226 H143     -2.5675    0.8818    8.5103   H         1 RES1   0.0000
   227 H144     -1.4075    1.6849    7.4744   H         1 RES1   0.0000
   228 O7       -0.4693    0.4577    2.4617   O.3       1 RES1   0.0000
   229 H145     -1.2381    0.2914    3.0408   H         1 RES1   0.0000
   230 H146      0.2932    0.2749    3.0468   H         1 RES1   0.0000
   231 O8        1.8983   -0.8067   -1.4673   O.3       1 RES1   0.0000
   232 H147      2.6445   -0.2306   -1.7281   H         1 RES1   0.0000
   233 H148      1.6877   -1.3498   -2.2465   H         1 RES1   0.0000
@<TRIPOS>BOND
     1     1    24    1
     2     1    26    1
     3     1    29    1
     4     1   137    1
     5     1   139    1
     6     1   142    1
     7     1   228    1
     8     1   231    1
     9     2     3    1
    10     2    43    1
    11     2    44    1
    12     2    45    1
    13     3     4    1
    14     3    46    1
    15     3    47    1
    16     4     5    1
    17     4    48    1
    18     4    49    1
    19     5     6    1
    20     5    50    1
    21     5    51    1
    22     6     7    1
    23     6    52    1
    24     6    53    1
    25     7     8    1
    26     7    54    1
    27     7    55    1
    28     8     9    1
    29     8    56    1
    30     8    57    1
    31     9    10    1
    32     9    58    1
    33     9    59    1
    34    10    11    1
    35    10    60    1
    36    10    61    1
    37    11    12    1
    38    11    62    1
    39    11    63    1
    40    12    13    1
    41    12    23    1
    42    13    14    1
    43    13    64    1
    44    13    65    1
    45    14    15    1
    46    14    66    1
    47    14    67    1
    48    15    16    1
    49    15    68    1
    50    15    69    1
    51    16    17    1
    52    16    70    1
    53    16    71    1
    54    17    18    1
    55    17    72    1
    56    17    73    1
    57    18    19    1
    58    18    74    1
    59    18    75    1
    60    19    20    1
    61    19    76    1
    62    19    77    1
    63    20    21    1
    64    20    78    1
    65    20    79    1
    66    21    22    1
    67    21    80    1
    68    21    81    1
    69    22    82    1
    70    22    83    1
    71    22    84    1
    72    23    24    2
    73    23    25    1
    74    25    26    1
    75    25    85    1
    76    25    86    1
    77    26    27    1
    78    27    28    1
    79    27    87    1
    80    27    88    1
    81    28    29    2
    82    28    30    1
    83    30    31    1
    84    30    37    1
    85    31    32    1
    86    31    89    1
    87    31    90    1
    88    32    33    1
    89    32    91    1
    90    32    92    1
    91    33    34    1
    92    33    93    1
    93    33    94    1
    94    34    35    1
    95    34    95    1
    96    34    96    1
    97    35    36    1
    98    35    97    1
    99    35    98    1
   100    36    99    1
   101    36   100    1
   102    36   101    1
   103    37    38    1
   104    37   102    1
   105    37   103    1
   106    38    39    1
   107    38   104    1
   108    38   105    1
   109    39    40    1
   110    39   106    1
   111    39   107    1
   112    40    41    1
   113    40   108    1
   114    40   109    1
   115    41    42    1
   116    41   110    1
   117    41   111    1
   118    42   112    1
   119    42   113    1
   120    42   114    1
   121   115   116    1
   122   115   156    1
   123   115   157    1
   124   115   158    1
   125   116   117    1
   126   116   159    1
   127   116   160    1
   128   117   118    1
   129   117   161    1
   130   117   162    1
   131   118   119    1
   132   118   163    1
   133   118   164    1
   134   119   120    1
   135   119   165    1
   136   119   166    1
   137   120   121    1
   138   120   167    1
   139   120   168    1
   140   121   122    1
   141   121   169    1
   142   121   170    1
   143   122   123    1
   144   122   171    1
   145   122   172    1
   146   123   124    1
   147   123   173    1
   148   123   174    1
   149   124   125    1
   150   124   175    1
   151   124   176    1
   152   125   126    1
   153   125   136    1
   154   126   127    1
   155   126   177    1
   156   126   178    1
   157   127   128    1
   158   127   179    1
   159   127   180    1
   160   128   129    1
   161   128   181    1
   162   128   182    1
   163   129   130    1
   164   129   183    1
   165   129   184    1
   166   130   131    1
   167   130   185    1
   168   130   186    1
   169   131   132    1
   170   131   187    1
   171   131   188    1
   172   132   133    1
   173   132   189    1
   174   132   190    1
   175   133   134    1
   176   133   191    1
   177   133   192    1
   178   134   135    1
   179   134   193    1
   180   134   194    1
   181   135   195    1
   182   135   196    1
   183   135   197    1
   184   136   137    2
   185   136   138    1
   186   138   139    1
   187   138   198    1
   188   138   199    1
   189   139   140    1
   190   140   141    1
   191   140   200    1
   192   140   201    1
   193   141   142    2
   194   141   143    1
   195   143   144    1
   196   143   150    1
   197   144   145    1
   198   144   202    1
   199   144   203    1
   200   145   146    1
   201   145   204    1
   202   145   205    1
   203   146   147    1
   204   146   206    1
   205   146   207    1
   206   147   148    1
   207   147   208    1
   208   147   209    1
   209   148   149    1
   210   148   210    1
   211   148   211    1
   212   149   212    1
   213   149   213    1
   214   149   214    1
   215   150   151    1
   216   150   215    1
   217   150   216    1
   218   151   152    1
   219   151   217    1
   220   151   218    1
   221   152   153    1
   222   152   219    1
   223   152   220    1
   224   153   154    1
   225   153   221    1
   226   153   222    1
   227   154   155    1
   228   154   223    1
   229   154   224    1
   230   155   225    1
   231   155   226    1
   232   155   227    1
   233   228   229    1
   234   228   230    1
   235   231   232    1
   236   231   233    1
@<TRIPOS>SUBSTRUCTURE
     1 RES1      233 GROUP             0 ****  ****    0  
