@<TRIPOS>MOLECULE
ICIGOT_geomtry_0_nunpairedes_0_charge_3 Charge: 3 Unpaired_Electrons: 5 XTB_Unpaired_Electrons: 0 XTB_Charge: 3
   241   246     1     0     0
SMALL
NoCharges
****
Generated from Architector

@<TRIPOS>ATOM
     1 Dy1       0.3185   -0.2957   -0.1406   Dy        1 RES1   0.0000
     2 C1        3.9253    1.0933   -1.4638   C.3       1 RES1   0.0000
     3 C2        4.8688    0.0125   -1.9905   C.3       1 RES1   0.0000
     4 C3        4.8941   -1.2137   -1.0782   C.3       1 RES1   0.0000
     5 C4        5.5039   -2.4751   -1.7002   C.3       1 RES1   0.0000
     6 C5        4.6179   -3.1707   -2.7414   C.3       1 RES1   0.0000
     7 C6        3.2966   -3.7118   -2.1782   C.3       1 RES1   0.0000
     8 C7        3.4431   -4.9930   -1.3472   C.3       1 RES1   0.0000
     9 C8        2.3141   -5.1137   -0.3127   C.3       1 RES1   0.0000
    10 N1        2.6197   -4.1979    0.7854   N.am      1 RES1   0.0000
    11 C9        3.5398   -4.7124    1.7922   C.3       1 RES1   0.0000
    12 C10       2.8174   -5.0280    3.1043   C.3       1 RES1   0.0000
    13 C11       3.8034   -5.4802    4.1968   C.3       1 RES1   0.0000
    14 C12       3.8668   -4.5160    5.3829   C.3       1 RES1   0.0000
    15 C13       4.6239   -3.2055    5.1407   C.3       1 RES1   0.0000
    16 C14       6.1553   -3.3449    5.1183   C.3       1 RES1   0.0000
    17 C15       6.7858   -3.3084    3.7239   C.3       1 RES1   0.0000
    18 C16       6.7658   -1.9177    3.0911   C.3       1 RES1   0.0000
    19 C17       2.1701   -2.9546    0.7984   C.2       1 RES1   0.0000
    20 O1        1.2074   -2.5412    0.1050   O.2       1 RES1   0.0000
    21 C18       2.9123   -1.9577    1.6879   C.3       1 RES1   0.0000
    22 O2        2.6319   -0.6399    1.2270   O.3       1 RES1   0.0000
    23 C19       3.1845    0.3230    2.1255   C.3       1 RES1   0.0000
    24 C20       2.4235    1.6444    1.9704   C.3       1 RES1   0.0000
    25 O3        1.0269    1.3943    1.8176   O.3       1 RES1   0.0000
    26 C21       0.3675    1.0654    3.0514   C.3       1 RES1   0.0000
    27 C22      -0.6298   -0.0552    2.6929   C.2       1 RES1   0.0000
    28 O4       -0.2181   -0.8520    1.8143   O.2       1 RES1   0.0000
    29 N2       -1.8282   -0.1695    3.2302   N.am      1 RES1   0.0000
    30 C23      -2.2496    0.5371    4.4503   C.3       1 RES1   0.0000
    31 C24      -3.6196    1.2189    4.3434   C.3       1 RES1   0.0000
    32 C25      -3.7306    2.5103    5.1664   C.3       1 RES1   0.0000
    33 C26      -4.8920    3.3754    4.6604   C.3       1 RES1   0.0000
    34 C27      -4.7062    4.8781    4.9501   C.3       1 RES1   0.0000
    35 C28      -4.8373    5.7378    3.6884   C.3       1 RES1   0.0000
    36 C29      -6.3043    5.9791    3.2996   C.3       1 RES1   0.0000
    37 C30      -6.5256    5.8689    1.7963   C.3       1 RES1   0.0000
    38 C31      -2.8867   -0.9981    2.6087   C.3       1 RES1   0.0000
    39 C32      -2.6340   -2.1326    1.5942   C.3       1 RES1   0.0000
    40 C33      -4.0296   -2.5093    1.0554   C.3       1 RES1   0.0000
    41 C34      -4.1820   -3.8291    0.2830   C.3       1 RES1   0.0000
    42 C35      -4.1187   -3.7449   -1.2560   C.3       1 RES1   0.0000
    43 C36      -5.4684   -3.7446   -2.0156   C.3       1 RES1   0.0000
    44 C37      -5.9376   -2.4255   -2.6571   C.3       1 RES1   0.0000
    45 C38      -6.9305   -1.6521   -1.7947   C.3       1 RES1   0.0000
    46 H1        3.7828    1.8739   -2.2073   H         1 RES1   0.0000
    47 H2        4.3453    1.5583   -0.5762   H         1 RES1   0.0000
    48 H3        2.9330    0.6770   -1.1963   H         1 RES1   0.0000
    49 H4        5.8709    0.4323   -2.0619   H         1 RES1   0.0000
    50 H5        4.5709   -0.2711   -3.0005   H         1 RES1   0.0000
    51 H6        3.8660   -1.4267   -0.7706   H         1 RES1   0.0000
    52 H7        5.4634   -0.9611   -0.1818   H         1 RES1   0.0000
    53 H8        5.7267   -3.1805   -0.8971   H         1 RES1   0.0000
    54 H9        6.4518   -2.2220   -2.1741   H         1 RES1   0.0000
    55 H10       5.1772   -3.9980   -3.1814   H         1 RES1   0.0000
    56 H11       4.3956   -2.4733   -3.5543   H         1 RES1   0.0000
    57 H12       2.6161   -3.9280   -3.0054   H         1 RES1   0.0000
    58 H13       2.8277   -2.9358   -1.5677   H         1 RES1   0.0000
    59 H14       4.3980   -4.9971   -0.8173   H         1 RES1   0.0000
    60 H15       3.4366   -5.8604   -2.0081   H         1 RES1   0.0000
    61 H16       2.2596   -6.1327    0.0707   H         1 RES1   0.0000
    62 H17       1.3485   -4.8464   -0.7424   H         1 RES1   0.0000
    63 H18       4.3554   -4.0162    1.9908   H         1 RES1   0.0000
    64 H19       3.9856   -5.6323    1.4148   H         1 RES1   0.0000
    65 H20       2.0781   -5.8053    2.9133   H         1 RES1   0.0000
    66 H21       2.2660   -4.1510    3.4475   H         1 RES1   0.0000
    67 H22       4.8011   -5.6040    3.7789   H         1 RES1   0.0000
    68 H23       3.5001   -6.4573    4.5696   H         1 RES1   0.0000
    69 H24       4.3351   -5.0246    6.2241   H         1 RES1   0.0000
    70 H25       2.8452   -4.2808    5.6891   H         1 RES1   0.0000
    71 H26       4.3540   -2.5218    5.9472   H         1 RES1   0.0000
    72 H27       4.2853   -2.7442    4.2110   H         1 RES1   0.0000
    73 H28       6.4339   -4.2800    5.6013   H         1 RES1   0.0000
    74 H29       6.6057   -2.5441    5.7062   H         1 RES1   0.0000
    75 H30       6.2802   -4.0236    3.0706   H         1 RES1   0.0000
    76 H31       7.8276   -3.6251    3.7992   H         1 RES1   0.0000
    77 H32       5.7541   -1.5073    3.0470   H         1 RES1   0.0000
    78 H33       7.1715   -1.9548    2.0797   H         1 RES1   0.0000
    79 H34       7.3765   -1.2347    3.6782   H         1 RES1   0.0000
    80 H35       3.9922   -2.1520    1.6275   H         1 RES1   0.0000
    81 H36       2.5898   -2.0799    2.7340   H         1 RES1   0.0000
    82 H37       4.2568    0.4703    1.9476   H         1 RES1   0.0000
    83 H38       3.0658   -0.0461    3.1521   H         1 RES1   0.0000
    84 H39       2.7189    2.1831    1.0669   H         1 RES1   0.0000
    85 H40       2.6206    2.2810    2.8414   H         1 RES1   0.0000
    86 H41      -0.1143    1.9686    3.4399   H         1 RES1   0.0000
    87 H42       1.0920    0.7009    3.7926   H         1 RES1   0.0000
    88 H43      -1.5095    1.2983    4.6913   H         1 RES1   0.0000
    89 H44      -2.2504   -0.1942    5.2618   H         1 RES1   0.0000
    90 H45      -4.4151    0.5343    4.6361   H         1 RES1   0.0000
    91 H46      -3.7739    1.4668    3.2955   H         1 RES1   0.0000
    92 H47      -2.8032    3.0808    5.0731   H         1 RES1   0.0000
    93 H48      -3.8589    2.2791    6.2246   H         1 RES1   0.0000
    94 H49      -5.8266    3.0131    5.0796   H         1 RES1   0.0000
    95 H50      -4.9787    3.2491    3.5801   H         1 RES1   0.0000
    96 H51      -3.7298    5.0599    5.4021   H         1 RES1   0.0000
    97 H52      -5.4382    5.2322    5.6753   H         1 RES1   0.0000
    98 H53      -4.3267    5.2468    2.8566   H         1 RES1   0.0000
    99 H54      -4.3253    6.6885    3.8460   H         1 RES1   0.0000
   100 H55      -6.6117    6.9703    3.6262   H         1 RES1   0.0000
   101 H56      -6.9428    5.2568    3.8149   H         1 RES1   0.0000
   102 H57      -5.7982    6.4681    1.2556   H         1 RES1   0.0000
   103 H58      -7.5174    6.2170    1.5286   H         1 RES1   0.0000
   104 H59      -6.4267    4.8318    1.4790   H         1 RES1   0.0000
   105 H60      -3.5339   -0.2804    2.0945   H         1 RES1   0.0000
   106 H61      -3.4620   -1.4279    3.4327   H         1 RES1   0.0000
   107 H62      -2.1882   -2.9986    2.0820   H         1 RES1   0.0000
   108 H63      -1.9736   -1.8252    0.7693   H         1 RES1   0.0000
   109 H64      -4.3893   -1.6969    0.4263   H         1 RES1   0.0000
   110 H65      -4.6931   -2.5681    1.9172   H         1 RES1   0.0000
   111 H66      -5.1444   -4.2704    0.5500   H         1 RES1   0.0000
   112 H67      -3.4188   -4.5241    0.6333   H         1 RES1   0.0000
   113 H68      -3.5676   -4.6214   -1.5994   H         1 RES1   0.0000
   114 H69      -3.5251   -2.8808   -1.5523   H         1 RES1   0.0000
   115 H70      -6.2629   -4.0863   -1.3535   H         1 RES1   0.0000
   116 H71      -5.3818   -4.4869   -2.8111   H         1 RES1   0.0000
   117 H72      -6.4438   -2.6675   -3.5920   H         1 RES1   0.0000
   118 H73      -5.0720   -1.8077   -2.9228   H         1 RES1   0.0000
   119 H74      -7.8268   -2.2519   -1.6610   H         1 RES1   0.0000
   120 H75      -7.2237   -0.7237   -2.2804   H         1 RES1   0.0000
   121 H76      -6.5206   -1.4325   -0.8127   H         1 RES1   0.0000
   122 C39       2.7167    6.9225    4.4587   C.3       1 RES1   0.0000
   123 C40       1.5507    6.0077    4.8231   C.3       1 RES1   0.0000
   124 C41       1.2076    5.0149    3.7037   C.3       1 RES1   0.0000
   125 C42       0.3346    5.6409    2.6011   C.3       1 RES1   0.0000
   126 C43      -1.1187    5.1377    2.6040   C.3       1 RES1   0.0000
   127 C44      -1.4713    4.2223    1.4166   C.3       1 RES1   0.0000
   128 C45      -2.5850    3.2209    1.7704   C.3       1 RES1   0.0000
   129 C46      -3.7181    3.0472    0.7518   C.3       1 RES1   0.0000
   130 N3       -3.8947    1.7283    0.1262   N.am      1 RES1   0.0000
   131 C47      -5.2801    1.4865   -0.3172   C.3       1 RES1   0.0000
   132 C48      -6.3571    1.4908    0.7933   C.3       1 RES1   0.0000
   133 C49      -6.2489    0.2993    1.7649   C.3       1 RES1   0.0000
   134 C50      -7.5616   -0.4342    2.0644   C.3       1 RES1   0.0000
   135 C51      -7.3544   -1.7659    2.8058   C.3       1 RES1   0.0000
   136 C52      -6.7373   -1.6818    4.2117   C.3       1 RES1   0.0000
   137 C53      -6.1497   -3.0229    4.6674   C.3       1 RES1   0.0000
   138 C54      -5.4472   -2.9448    6.0229   C.3       1 RES1   0.0000
   139 C55      -2.8690    1.0034   -0.3076   C.2       1 RES1   0.0000
   140 O5       -1.7057    1.0429    0.1550   O.2       1 RES1   0.0000
   141 C56      -3.0845    0.0804   -1.5167   C.3       1 RES1   0.0000
   142 O6       -1.8912   -0.6763   -1.6610   O.3       1 RES1   0.0000
   143 C57      -1.7466   -1.2892   -2.9421   C.3       1 RES1   0.0000
   144 C58      -0.6167   -2.2938   -2.7418   C.3       1 RES1   0.0000
   145 O7        0.5615   -1.6511   -2.2501   O.3       1 RES1   0.0000
   146 C59       1.2636   -0.9025   -3.2422   C.3       1 RES1   0.0000
   147 C60       0.7919    0.5590   -3.1720   C.2       1 RES1   0.0000
   148 O8        0.5026    0.9971   -2.0277   O.2       1 RES1   0.0000
   149 N4        0.6944    1.2600   -4.2853   N.am      1 RES1   0.0000
   150 C61       1.2747    0.7193   -5.5151   C.3       1 RES1   0.0000
   151 C62       0.3769   -0.2839   -6.2661   C.3       1 RES1   0.0000
   152 C63       1.2239   -1.3366   -6.9907   C.3       1 RES1   0.0000
   153 C64       0.4010   -2.2544   -7.8975   C.3       1 RES1   0.0000
   154 C65      -0.6135   -3.1278   -7.1568   C.3       1 RES1   0.0000
   155 C66       0.0171   -4.1219   -6.1819   C.3       1 RES1   0.0000
   156 C67      -0.9362   -5.2598   -5.8067   C.3       1 RES1   0.0000
   157 C68      -2.2839   -4.7991   -5.2505   C.3       1 RES1   0.0000
   158 C69       0.1892    2.6396   -4.2826   C.3       1 RES1   0.0000
   159 C70      -1.3404    2.7397   -4.2050   C.3       1 RES1   0.0000
   160 C71      -2.1252    2.0308   -5.3139   C.3       1 RES1   0.0000
   161 C72      -1.9207    2.6226   -6.7125   C.3       1 RES1   0.0000
   162 C73      -2.6153    3.9561   -6.9996   C.3       1 RES1   0.0000
   163 C74      -4.1242    3.8659   -7.2633   C.3       1 RES1   0.0000
   164 C75      -5.0065    4.1814   -6.0564   C.3       1 RES1   0.0000
   165 C76      -6.4610    4.3869   -6.4689   C.3       1 RES1   0.0000
   166 H77       2.8605    7.6681    5.2335   H         1 RES1   0.0000
   167 H78       2.5458    7.4488    3.5216   H         1 RES1   0.0000
   168 H79       3.6321    6.3424    4.3714   H         1 RES1   0.0000
   169 H80       0.6668    6.6125    5.0438   H         1 RES1   0.0000
   170 H81       1.8078    5.4485    5.7296   H         1 RES1   0.0000
   171 H82       0.6793    4.1615    4.1372   H         1 RES1   0.0000
   172 H83       2.1377    4.6285    3.2755   H         1 RES1   0.0000
   173 H84       0.7767    5.4426    1.6255   H         1 RES1   0.0000
   174 H85       0.3552    6.7193    2.7494   H         1 RES1   0.0000
   175 H86      -1.8037    5.9867    2.5943   H         1 RES1   0.0000
   176 H87      -1.2988    4.6011    3.5357   H         1 RES1   0.0000
   177 H88      -0.5949    3.6649    1.0815   H         1 RES1   0.0000
   178 H89      -1.7743    4.8685    0.5958   H         1 RES1   0.0000
   179 H90      -3.0353    3.5771    2.6901   H         1 RES1   0.0000
   180 H91      -2.1338    2.2572    1.9772   H         1 RES1   0.0000
   181 H92      -3.5874    3.7728   -0.0542   H         1 RES1   0.0000
   182 H93      -4.6693    3.2628    1.2389   H         1 RES1   0.0000
   183 H94      -5.3510    0.5141   -0.7977   H         1 RES1   0.0000
   184 H95      -5.5338    2.2419   -1.0675   H         1 RES1   0.0000
   185 H96      -7.3122    1.4585    0.2671   H         1 RES1   0.0000
   186 H97      -6.3740    2.4303    1.3440   H         1 RES1   0.0000
   187 H98      -5.8214    0.6335    2.7110   H         1 RES1   0.0000
   188 H99      -5.5645   -0.4212    1.3310   H         1 RES1   0.0000
   189 H100     -8.0649   -0.6601    1.1197   H         1 RES1   0.0000
   190 H101     -8.2201    0.2064    2.6495   H         1 RES1   0.0000
   191 H102     -6.7499   -2.4355    2.1874   H         1 RES1   0.0000
   192 H103     -8.3288   -2.2444    2.9042   H         1 RES1   0.0000
   193 H104     -7.5059   -1.3788    4.9220   H         1 RES1   0.0000
   194 H105     -5.9534   -0.9244    4.2683   H         1 RES1   0.0000
   195 H106     -5.4378   -3.3974    3.9252   H         1 RES1   0.0000
   196 H107     -6.9524   -3.7551    4.7370   H         1 RES1   0.0000
   197 H108     -4.6659   -2.1802    6.0245   H         1 RES1   0.0000
   198 H109     -4.9904   -3.9030    6.2751   H         1 RES1   0.0000
   199 H110     -6.1576   -2.7026    6.8107   H         1 RES1   0.0000
   200 H111     -3.2480    0.7359   -2.3875   H         1 RES1   0.0000
   201 H112     -3.9360   -0.6057   -1.4372   H         1 RES1   0.0000
   202 H113     -1.4887   -0.5298   -3.6918   H         1 RES1   0.0000
   203 H114     -2.6690   -1.7888   -3.2668   H         1 RES1   0.0000
   204 H115     -0.3863   -2.8601   -3.6503   H         1 RES1   0.0000
   205 H116     -0.9158   -2.9903   -1.9515   H         1 RES1   0.0000
   206 H117      1.1321   -1.3751   -4.2142   H         1 RES1   0.0000
   207 H118      2.3270   -0.9403   -2.9740   H         1 RES1   0.0000
   208 H119      2.2291    0.2443   -5.2614   H         1 RES1   0.0000
   209 H120      1.5021    1.5517   -6.1787   H         1 RES1   0.0000
   210 H121     -0.2391    0.2343   -7.0003   H         1 RES1   0.0000
   211 H122     -0.3087   -0.7794   -5.5751   H         1 RES1   0.0000
   212 H123      1.7570   -1.9563   -6.2658   H         1 RES1   0.0000
   213 H124      1.9784   -0.8222   -7.5887   H         1 RES1   0.0000
   214 H125      1.0948   -2.8974   -8.4421   H         1 RES1   0.0000
   215 H126     -0.1268   -1.6452   -8.6324   H         1 RES1   0.0000
   216 H127     -1.1611   -3.6952   -7.9079   H         1 RES1   0.0000
   217 H128     -1.3321   -2.4947   -6.6308   H         1 RES1   0.0000
   218 H129      0.3481   -3.6062   -5.2735   H         1 RES1   0.0000
   219 H130      0.9063   -4.5615   -6.6359   H         1 RES1   0.0000
   220 H131     -0.4476   -5.9059   -5.0713   H         1 RES1   0.0000
   221 H132     -1.1233   -5.8617   -6.6974   H         1 RES1   0.0000
   222 H133     -2.1667   -4.1911   -4.3498   H         1 RES1   0.0000
   223 H134     -2.8820   -5.6712   -4.9946   H         1 RES1   0.0000
   224 H135     -2.8378   -4.2251   -5.9910   H         1 RES1   0.0000
   225 H136      0.5485    3.1293   -5.1881   H         1 RES1   0.0000
   226 H137      0.6175    3.1453   -3.4105   H         1 RES1   0.0000
   227 H138     -1.5965    3.7970   -4.2389   H         1 RES1   0.0000
   228 H139     -1.6414    2.3560   -3.2274   H         1 RES1   0.0000
   229 H140     -3.1870    2.0704   -5.0649   H         1 RES1   0.0000
   230 H141     -1.8449    0.9749   -5.3343   H         1 RES1   0.0000
   231 H142     -2.2796    1.8995   -7.4475   H         1 RES1   0.0000
   232 H143     -0.8497    2.7460   -6.8831   H         1 RES1   0.0000
   233 H144     -2.1364    4.3545   -7.8938   H         1 RES1   0.0000
   234 H145     -2.4267    4.6705   -6.1978   H         1 RES1   0.0000
   235 H146     -4.3777    2.8777   -7.6501   H         1 RES1   0.0000
   236 H147     -4.3730    4.5896   -8.0388   H         1 RES1   0.0000
   237 H148     -4.6412    5.0925   -5.5771   H         1 RES1   0.0000
   238 H149     -4.9579    3.3746   -5.3195   H         1 RES1   0.0000
   239 H150     -6.5441    5.2131   -7.1704   H         1 RES1   0.0000
   240 H151     -7.0793    4.6156   -5.6030   H         1 RES1   0.0000
   241 H152     -6.8602    3.4972   -6.9515   H         1 RES1   0.0000
@<TRIPOS>BOND
     1     1    20    1
     2     1    22    1
     3     1    25    1
     4     1    28    1
     5     1   140    1
     6     1   142    1
     7     1   145    1
     8     1   148    1
     9     2     3    1
    10     2    46    1
    11     2    47    1
    12     2    48    1
    13     3     4    1
    14     3    49    1
    15     3    50    1
    16     4     5    1
    17     4    51    1
    18     4    52    1
    19     5     6    1
    20     5    53    1
    21     5    54    1
    22     6     7    1
    23     6    55    1
    24     6    56    1
    25     7     8    1
    26     7    57    1
    27     7    58    1
    28     8     9    1
    29     8    59    1
    30     8    60    1
    31     9    10    1
    32     9    61    1
    33     9    62    1
    34    10    11    1
    35    10    19    1
    36    11    12    1
    37    11    63    1
    38    11    64    1
    39    12    13    1
    40    12    65    1
    41    12    66    1
    42    13    14    1
    43    13    67    1
    44    13    68    1
    45    14    15    1
    46    14    69    1
    47    14    70    1
    48    15    16    1
    49    15    71    1
    50    15    72    1
    51    16    17    1
    52    16    73    1
    53    16    74    1
    54    17    18    1
    55    17    75    1
    56    17    76    1
    57    18    77    1
    58    18    78    1
    59    18    79    1
    60    19    20    2
    61    19    21    1
    62    21    22    1
    63    21    80    1
    64    21    81    1
    65    22    23    1
    66    23    24    1
    67    23    82    1
    68    23    83    1
    69    24    25    1
    70    24    84    1
    71    24    85    1
    72    25    26    1
    73    26    27    1
    74    26    86    1
    75    26    87    1
    76    27    28    2
    77    27    29    1
    78    29    30    1
    79    29    38    1
    80    30    31    1
    81    30    88    1
    82    30    89    1
    83    31    32    1
    84    31    90    1
    85    31    91    1
    86    32    33    1
    87    32    92    1
    88    32    93    1
    89    33    34    1
    90    33    94    1
    91    33    95    1
    92    34    35    1
    93    34    96    1
    94    34    97    1
    95    35    36    1
    96    35    98    1
    97    35    99    1
    98    36    37    1
    99    36   100    1
   100    36   101    1
   101    37   102    1
   102    37   103    1
   103    37   104    1
   104    38    39    1
   105    38   105    1
   106    38   106    1
   107    39    40    1
   108    39   107    1
   109    39   108    1
   110    40    41    1
   111    40   109    1
   112    40   110    1
   113    41    42    1
   114    41   111    1
   115    41   112    1
   116    42    43    1
   117    42   113    1
   118    42   114    1
   119    43    44    1
   120    43   115    1
   121    43   116    1
   122    44    45    1
   123    44   117    1
   124    44   118    1
   125    45   119    1
   126    45   120    1
   127    45   121    1
   128   122   123    1
   129   122   166    1
   130   122   167    1
   131   122   168    1
   132   123   124    1
   133   123   169    1
   134   123   170    1
   135   124   125    1
   136   124   171    1
   137   124   172    1
   138   125   126    1
   139   125   173    1
   140   125   174    1
   141   126   127    1
   142   126   175    1
   143   126   176    1
   144   127   128    1
   145   127   177    1
   146   127   178    1
   147   128   129    1
   148   128   179    1
   149   128   180    1
   150   129   130    1
   151   129   181    1
   152   129   182    1
   153   130   131    1
   154   130   139    1
   155   131   132    1
   156   131   183    1
   157   131   184    1
   158   132   133    1
   159   132   185    1
   160   132   186    1
   161   133   134    1
   162   133   187    1
   163   133   188    1
   164   134   135    1
   165   134   189    1
   166   134   190    1
   167   135   136    1
   168   135   191    1
   169   135   192    1
   170   136   137    1
   171   136   193    1
   172   136   194    1
   173   137   138    1
   174   137   195    1
   175   137   196    1
   176   138   197    1
   177   138   198    1
   178   138   199    1
   179   139   140    2
   180   139   141    1
   181   141   142    1
   182   141   200    1
   183   141   201    1
   184   142   143    1
   185   143   144    1
   186   143   202    1
   187   143   203    1
   188   144   145    1
   189   144   204    1
   190   144   205    1
   191   145   146    1
   192   146   147    1
   193   146   206    1
   194   146   207    1
   195   147   148    2
   196   147   149    1
   197   149   150    1
   198   149   158    1
   199   150   151    1
   200   150   208    1
   201   150   209    1
   202   151   152    1
   203   151   210    1
   204   151   211    1
   205   152   153    1
   206   152   212    1
   207   152   213    1
   208   153   154    1
   209   153   214    1
   210   153   215    1
   211   154   155    1
   212   154   216    1
   213   154   217    1
   214   155   156    1
   215   155   218    1
   216   155   219    1
   217   156   157    1
   218   156   220    1
   219   156   221    1
   220   157   222    1
   221   157   223    1
   222   157   224    1
   223   158   159    1
   224   158   225    1
   225   158   226    1
   226   159   160    1
   227   159   227    1
   228   159   228    1
   229   160   161    1
   230   160   229    1
   231   160   230    1
   232   161   162    1
   233   161   231    1
   234   161   232    1
   235   162   163    1
   236   162   233    1
   237   162   234    1
   238   163   164    1
   239   163   235    1
   240   163   236    1
   241   164   165    1
   242   164   237    1
   243   164   238    1
   244   165   239    1
   245   165   240    1
   246   165   241    1
@<TRIPOS>SUBSTRUCTURE
     1 RES1      241 GROUP             0 ****  ****    0  
