@<TRIPOS>MOLECULE
ICIGOT_geomtry_0_nunpairedes_0_charge_2 Charge: 2 Unpaired_Electrons: 5 XTB_Unpaired_Electrons: 0 XTB_Charge: 2
   267   271     1     0     0
SMALL
NoCharges
****
Generated from Architector

@<TRIPOS>ATOM
     1 Dy1      -0.0278   -0.0312   -0.1510   Dy        1 RES1   0.0000
     2 C1       -0.0638   -7.3357    4.5203   C.3       1 RES1   0.0000
     3 C2       -0.6018   -6.1523    5.3098   C.3       1 RES1   0.0000
     4 C3        0.4260   -5.0459    5.5414   C.3       1 RES1   0.0000
     5 C4        0.8977   -4.3889    4.2419   C.3       1 RES1   0.0000
     6 C5        1.5119   -2.9977    4.4530   C.3       1 RES1   0.0000
     7 C6        3.0273   -3.0385    4.6464   C.3       1 RES1   0.0000
     8 C7        3.6924   -1.6582    4.7268   C.3       1 RES1   0.0000
     9 C8        3.9782   -0.9496    3.3850   C.3       1 RES1   0.0000
    10 N1        2.7588   -0.5422    2.7035   N.am      1 RES1   0.0000
    11 C9        1.8610    0.3711    3.4232   C.3       1 RES1   0.0000
    12 C10       2.5380    1.5852    4.0521   C.3       1 RES1   0.0000
    13 C11       3.1701    2.5420    3.0375   C.3       1 RES1   0.0000
    14 C12       3.5714    3.8880    3.6591   C.3       1 RES1   0.0000
    15 C13       2.4358    4.6804    4.3203   C.3       1 RES1   0.0000
    16 C14       1.2208    4.9021    3.4183   C.3       1 RES1   0.0000
    17 C15       0.0697    5.6202    4.1312   C.3       1 RES1   0.0000
    18 C16       0.2916    7.1124    4.3373   C.3       1 RES1   0.0000
    19 C17       2.2125   -1.1345    1.6467   C.2       1 RES1   0.0000
    20 O1        0.9836   -1.0230    1.4442   O.2       1 RES1   0.0000
    21 C18       3.0169   -1.8352    0.5135   C.3       1 RES1   0.0000
    22 C19       3.6512   -3.1966    0.8628   C.3       1 RES1   0.0000
    23 C20       5.1262   -3.3227    0.4468   C.3       1 RES1   0.0000
    24 C21       5.8586   -4.4009    1.2396   C.3       1 RES1   0.0000
    25 O2        2.0155   -1.8445   -0.5061   O.3       1 RES1   0.0000
    26 C22       2.1632   -2.5363   -1.7477   C.3       1 RES1   0.0000
    27 C23       1.4011   -3.8863   -1.6906   C.3       1 RES1   0.0000
    28 C24       0.0884   -3.8394   -0.9024   C.3       1 RES1   0.0000
    29 C25      -1.0906   -3.2547   -1.6750   C.3       1 RES1   0.0000
    30 C26       1.5843   -1.5208   -2.7683   C.2       1 RES1   0.0000
    31 O3        0.9966   -0.5352   -2.2684   O.2       1 RES1   0.0000
    32 N2        1.7717   -1.6137   -4.0818   N.am      1 RES1   0.0000
    33 C27       1.4827   -0.4461   -4.9347   C.3       1 RES1   0.0000
    34 C28       2.7251    0.4377   -5.0954   C.3       1 RES1   0.0000
    35 C29       2.7999    1.1656   -6.4412   C.3       1 RES1   0.0000
    36 C30       1.8909    2.3886   -6.5763   C.3       1 RES1   0.0000
    37 C31       2.3580    3.6186   -5.7880   C.3       1 RES1   0.0000
    38 C32       3.7241    4.1811   -6.2174   C.3       1 RES1   0.0000
    39 C33       3.6900    5.7055   -6.3222   C.3       1 RES1   0.0000
    40 C34       3.0026    6.1433   -7.6079   C.3       1 RES1   0.0000
    41 C35       2.2250   -2.7982   -4.7972   C.3       1 RES1   0.0000
    42 C36       1.0694   -3.6759   -5.3171   C.3       1 RES1   0.0000
    43 C37      -0.0039   -2.8735   -6.0422   C.3       1 RES1   0.0000
    44 C38      -1.2000   -3.6719   -6.5588   C.3       1 RES1   0.0000
    45 C39      -2.0289   -2.7878   -7.5001   C.3       1 RES1   0.0000
    46 C40      -2.6351   -1.5628   -6.8069   C.3       1 RES1   0.0000
    47 C41      -3.4098   -0.6591   -7.7705   C.3       1 RES1   0.0000
    48 C42      -2.4931    0.1828   -8.6499   C.3       1 RES1   0.0000
    49 H1       -0.8148   -8.1170    4.4462   H         1 RES1   0.0000
    50 H2        0.8108   -7.7575    5.0067   H         1 RES1   0.0000
    51 H3        0.2086   -7.0423    3.5108   H         1 RES1   0.0000
    52 H4       -0.9476   -6.5080    6.2808   H         1 RES1   0.0000
    53 H5       -1.4624   -5.7347    4.7824   H         1 RES1   0.0000
    54 H6        1.2757   -5.4512    6.0925   H         1 RES1   0.0000
    55 H7       -0.0477   -4.2904    6.1714   H         1 RES1   0.0000
    56 H8        0.0381   -4.2914    3.5728   H         1 RES1   0.0000
    57 H9        1.6270   -5.0348    3.7469   H         1 RES1   0.0000
    58 H10       1.0562   -2.5337    5.3305   H         1 RES1   0.0000
    59 H11       1.2717   -2.3850    3.5853   H         1 RES1   0.0000
    60 H12       3.4730   -3.6134    3.8322   H         1 RES1   0.0000
    61 H13       3.2628   -3.5762    5.5672   H         1 RES1   0.0000
    62 H14       4.6551   -1.7711    5.2258   H         1 RES1   0.0000
    63 H15       3.0924   -1.0000    5.3550   H         1 RES1   0.0000
    64 H16       4.5624   -1.5943    2.7288   H         1 RES1   0.0000
    65 H17       4.5850   -0.0638    3.5927   H         1 RES1   0.0000
    66 H18       1.3146   -0.1862    4.1884   H         1 RES1   0.0000
    67 H19       1.1230    0.7238    2.6932   H         1 RES1   0.0000
    68 H20       3.2766    1.2843    4.7939   H         1 RES1   0.0000
    69 H21       1.7509    2.1130    4.5924   H         1 RES1   0.0000
    70 H22       2.4754    2.7060    2.2090   H         1 RES1   0.0000
    71 H23       4.0721    2.0919    2.6136   H         1 RES1   0.0000
    72 H24       4.0238    4.5071    2.8797   H         1 RES1   0.0000
    73 H25       4.3413    3.7099    4.4144   H         1 RES1   0.0000
    74 H26       2.8349    5.6491    4.6256   H         1 RES1   0.0000
    75 H27       2.1256    4.1697    5.2337   H         1 RES1   0.0000
    76 H28       0.8625    3.9294    3.0692   H         1 RES1   0.0000
    77 H29       1.5216    5.4816    2.5419   H         1 RES1   0.0000
    78 H30      -0.0988    5.1430    5.0972   H         1 RES1   0.0000
    79 H31      -0.8464    5.4918    3.5483   H         1 RES1   0.0000
    80 H32       1.1539    7.3018    4.9659   H         1 RES1   0.0000
    81 H33      -0.5736    7.5531    4.8230   H         1 RES1   0.0000
    82 H34       0.4390    7.6188    3.3870   H         1 RES1   0.0000
    83 H35       3.8296   -1.1569    0.2089   H         1 RES1   0.0000
    84 H36       3.5887   -3.3595    1.9364   H         1 RES1   0.0000
    85 H37       3.0618   -3.9850    0.4034   H         1 RES1   0.0000
    86 H38       5.6356   -2.3683    0.6003   H         1 RES1   0.0000
    87 H39       5.1995   -3.5453   -0.6181   H         1 RES1   0.0000
    88 H40       5.8733   -4.1687    2.3008   H         1 RES1   0.0000
    89 H41       6.8879   -4.4681    0.9053   H         1 RES1   0.0000
    90 H42       5.3949   -5.3723    1.1083   H         1 RES1   0.0000
    91 H43       3.2249   -2.7074   -1.9768   H         1 RES1   0.0000
    92 H44       1.2019   -4.2529   -2.6940   H         1 RES1   0.0000
    93 H45       2.0651   -4.6197   -1.2299   H         1 RES1   0.0000
    94 H46       0.2284   -3.2815    0.0293   H         1 RES1   0.0000
    95 H47      -0.1544   -4.8681   -0.6330   H         1 RES1   0.0000
    96 H48      -0.9140   -2.2213   -1.9945   H         1 RES1   0.0000
    97 H49      -1.9763   -3.2864   -1.0434   H         1 RES1   0.0000
    98 H50      -1.3047   -3.8577   -2.5546   H         1 RES1   0.0000
    99 H51       0.6515    0.1051   -4.4984   H         1 RES1   0.0000
   100 H52       1.1900   -0.8044   -5.9176   H         1 RES1   0.0000
   101 H53       3.6052   -0.2013   -5.0270   H         1 RES1   0.0000
   102 H54       2.7731    1.1543   -4.2792   H         1 RES1   0.0000
   103 H55       2.5646    0.4517   -7.2343   H         1 RES1   0.0000
   104 H56       3.8277    1.4958   -6.5980   H         1 RES1   0.0000
   105 H57       0.8754    2.1275   -6.2704   H         1 RES1   0.0000
   106 H58       1.8387    2.6588   -7.6327   H         1 RES1   0.0000
   107 H59       2.3900    3.3930   -4.7177   H         1 RES1   0.0000
   108 H60       1.6016    4.3958   -5.9248   H         1 RES1   0.0000
   109 H61       4.0102    3.7849   -7.1883   H         1 RES1   0.0000
   110 H62       4.4898    3.8801   -5.5017   H         1 RES1   0.0000
   111 H63       4.7033    6.1052   -6.3040   H         1 RES1   0.0000
   112 H64       3.1605    6.1208   -5.4632   H         1 RES1   0.0000
   113 H65       3.6088    5.8734   -8.4682   H         1 RES1   0.0000
   114 H66       2.8522    7.2193   -7.6178   H         1 RES1   0.0000
   115 H67       2.0303    5.6624   -7.7096   H         1 RES1   0.0000
   116 H68       2.8781   -3.3816   -4.1490   H         1 RES1   0.0000
   117 H69       2.8085   -2.4573   -5.6535   H         1 RES1   0.0000
   118 H70       0.5913   -4.2129   -4.5002   H         1 RES1   0.0000
   119 H71       1.4996   -4.4162   -5.9910   H         1 RES1   0.0000
   120 H72       0.4419   -2.3745   -6.9051   H         1 RES1   0.0000
   121 H73      -0.4004   -2.1354   -5.3474   H         1 RES1   0.0000
   122 H74      -1.8217   -4.0070   -5.7250   H         1 RES1   0.0000
   123 H75      -0.8588   -4.5584   -7.0974   H         1 RES1   0.0000
   124 H76      -2.8356   -3.3784   -7.9380   H         1 RES1   0.0000
   125 H77      -1.3804   -2.4633   -8.3171   H         1 RES1   0.0000
   126 H78      -1.8492   -0.9618   -6.3420   H         1 RES1   0.0000
   127 H79      -3.3042   -1.9020   -6.0119   H         1 RES1   0.0000
   128 H80      -4.0481    0.0119   -7.1916   H         1 RES1   0.0000
   129 H81      -4.0615   -1.2682   -8.3977   H         1 RES1   0.0000
   130 H82      -1.8910    0.8521   -8.0394   H         1 RES1   0.0000
   131 H83      -3.0772    0.7876   -9.3369   H         1 RES1   0.0000
   132 H84      -1.8262   -0.4446   -9.2334   H         1 RES1   0.0000
   133 C43       9.0682    3.0244   -5.8193   C.3       1 RES1   0.0000
   134 C44       8.3350    1.9986   -6.6755   C.3       1 RES1   0.0000
   135 C45       7.1131    1.3724   -5.9922   C.3       1 RES1   0.0000
   136 C46       7.5033    0.4251   -4.8591   C.3       1 RES1   0.0000
   137 C47       6.3235   -0.1148   -4.0419   C.3       1 RES1   0.0000
   138 C48       5.5762    0.9582   -3.2407   C.3       1 RES1   0.0000
   139 C49       4.5911    0.3659   -2.2243   C.3       1 RES1   0.0000
   140 C50       4.1899    1.3529   -1.1171   C.3       1 RES1   0.0000
   141 N3        3.1596    2.3375   -1.4988   N.am      1 RES1   0.0000
   142 C51       3.7273    3.6053   -1.9325   C.3       1 RES1   0.0000
   143 C52       4.4765    4.2629   -0.7474   C.3       1 RES1   0.0000
   144 C53       3.8865    5.5983   -0.3052   C.3       1 RES1   0.0000
   145 C54       4.2627    6.7484   -1.2380   C.3       1 RES1   0.0000
   146 C55       3.3569    7.9600   -1.0166   C.3       1 RES1   0.0000
   147 C56       1.9707    7.7659   -1.6269   C.3       1 RES1   0.0000
   148 C57       1.0848    9.0058   -1.5383   C.3       1 RES1   0.0000
   149 C58       0.8435    9.4615   -0.1058   C.3       1 RES1   0.0000
   150 C59       1.9114    2.1266   -1.0735   C.2       1 RES1   0.0000
   151 O4        1.6965    1.1977   -0.2610   O.2       1 RES1   0.0000
   152 C60       0.6427    2.8867   -1.5990   C.3       1 RES1   0.0000
   153 C61       0.2008    2.3294   -2.9729   C.3       1 RES1   0.0000
   154 C62      -0.9374    3.1267   -3.6418   C.3       1 RES1   0.0000
   155 C63      -2.3360    2.5974   -3.3252   C.3       1 RES1   0.0000
   156 O5       -0.4128    2.5177   -0.7197   O.3       1 RES1   0.0000
   157 C64      -1.2180    3.4189    0.0712   C.3       1 RES1   0.0000
   158 C65      -0.6818    4.8371    0.3622   C.3       1 RES1   0.0000
   159 C66      -1.4960    6.0186   -0.2002   C.3       1 RES1   0.0000
   160 C67      -1.6013    6.1183   -1.7136   C.3       1 RES1   0.0000
   161 C68      -1.4086    2.5816    1.3659   C.2       1 RES1   0.0000
   162 O6       -0.6869    1.5658    1.5065   O.2       1 RES1   0.0000
   163 N4       -2.2681    2.9699    2.2907   N.am      1 RES1   0.0000
   164 C69      -3.2618    4.0069    2.0762   C.3       1 RES1   0.0000
   165 C70      -4.5414    3.4593    1.4374   C.3       1 RES1   0.0000
   166 C71      -5.4253    4.5587    0.8347   C.3       1 RES1   0.0000
   167 C72      -6.0727    5.4821    1.8811   C.3       1 RES1   0.0000
   168 C73      -5.9990    6.9667    1.5175   C.3       1 RES1   0.0000
   169 C74      -4.5870    7.5593    1.6302   C.3       1 RES1   0.0000
   170 C75      -4.3200    8.3401    2.9196   C.3       1 RES1   0.0000
   171 C76      -4.2009    7.4646    4.1609   C.3       1 RES1   0.0000
   172 C77      -2.3005    2.2860    3.5806   C.3       1 RES1   0.0000
   173 C78      -3.0370    0.9341    3.6598   C.3       1 RES1   0.0000
   174 C79      -2.0710   -0.2126    3.9673   C.3       1 RES1   0.0000
   175 C80      -2.7847   -1.5030    4.3709   C.3       1 RES1   0.0000
   176 C81      -3.6785   -2.0683    3.2699   C.3       1 RES1   0.0000
   177 C82      -4.0734   -3.5367    3.4535   C.3       1 RES1   0.0000
   178 C83      -5.0331   -3.8308    4.6098   C.3       1 RES1   0.0000
   179 C84      -4.3745   -3.9377    5.9776   C.3       1 RES1   0.0000
   180 H85       9.4972    2.5667   -4.9333   H         1 RES1   0.0000
   181 H86       8.3967    3.8239   -5.5154   H         1 RES1   0.0000
   182 H87       9.8846    3.4582   -6.3868   H         1 RES1   0.0000
   183 H88       9.0318    1.2036   -6.9504   H         1 RES1   0.0000
   184 H89       8.0012    2.4907   -7.5916   H         1 RES1   0.0000
   185 H90       6.5467    0.8098   -6.7410   H         1 RES1   0.0000
   186 H91       6.4709    2.1705   -5.6112   H         1 RES1   0.0000
   187 H92       8.2021    0.9238   -4.1883   H         1 RES1   0.0000
   188 H93       8.0228   -0.4276   -5.3005   H         1 RES1   0.0000
   189 H94       6.7223   -0.8555   -3.3426   H         1 RES1   0.0000
   190 H95       5.6302   -0.6200   -4.7206   H         1 RES1   0.0000
   191 H96       5.0504    1.6110   -3.9345   H         1 RES1   0.0000
   192 H97       6.3185    1.5523   -2.7029   H         1 RES1   0.0000
   193 H98       5.0900   -0.4731   -1.7311   H         1 RES1   0.0000
   194 H99       3.6953   -0.0271   -2.7049   H         1 RES1   0.0000
   195 H100      5.0891    1.8878   -0.8088   H         1 RES1   0.0000
   196 H101      3.7875    0.8027   -0.2657   H         1 RES1   0.0000
   197 H102      2.9467    4.2626   -2.3081   H         1 RES1   0.0000
   198 H103      4.4069    3.3935   -2.7578   H         1 RES1   0.0000
   199 H104      5.5220    4.4165   -1.0141   H         1 RES1   0.0000
   200 H105      4.4391    3.5893    0.1101   H         1 RES1   0.0000
   201 H106      4.2600    5.8328    0.6942   H         1 RES1   0.0000
   202 H107      2.8003    5.5098   -0.2343   H         1 RES1   0.0000
   203 H108      4.2080    6.4213   -2.2786   H         1 RES1   0.0000
   204 H109      5.2969    7.0270   -1.0328   H         1 RES1   0.0000
   205 H110      3.8194    8.8456   -1.4519   H         1 RES1   0.0000
   206 H111      3.2645    8.1245    0.0579   H         1 RES1   0.0000
   207 H112      1.4624    6.9471   -1.1105   H         1 RES1   0.0000
   208 H113      2.0865    7.4855   -2.6782   H         1 RES1   0.0000
   209 H114      0.1278    8.7733   -2.0093   H         1 RES1   0.0000
   210 H115      1.5470    9.8131   -2.1050   H         1 RES1   0.0000
   211 H116      0.5508    8.6232    0.5224   H         1 RES1   0.0000
   212 H117      0.0505   10.2009   -0.0743   H         1 RES1   0.0000
   213 H118      1.7358    9.9106    0.3172   H         1 RES1   0.0000
   214 H119      0.7963    3.9676   -1.6638   H         1 RES1   0.0000
   215 H120      1.0558    2.2885   -3.6443   H         1 RES1   0.0000
   216 H121     -0.1704    1.3135   -2.7825   H         1 RES1   0.0000
   217 H122     -0.8116    3.0623   -4.7236   H         1 RES1   0.0000
   218 H123     -0.8679    4.1790   -3.3728   H         1 RES1   0.0000
   219 H124     -2.4551    1.5820   -3.6920   H         1 RES1   0.0000
   220 H125     -3.0900    3.2066   -3.8152   H         1 RES1   0.0000
   221 H126     -2.5617    2.5882   -2.2626   H         1 RES1   0.0000
   222 H127     -2.1940    3.4952   -0.4280   H         1 RES1   0.0000
   223 H128     -0.6195    4.9581    1.4440   H         1 RES1   0.0000
   224 H129      0.3414    4.9355    0.0016   H         1 RES1   0.0000
   225 H130     -1.0272    6.9259    0.1820   H         1 RES1   0.0000
   226 H131     -2.5145    6.0232    0.1853   H         1 RES1   0.0000
   227 H132     -2.0822    7.0578   -1.9696   H         1 RES1   0.0000
   228 H133     -2.2209    5.3233   -2.1153   H         1 RES1   0.0000
   229 H134     -0.6257    6.1056   -2.1930   H         1 RES1   0.0000
   230 H135     -2.8512    4.7736    1.4332   H         1 RES1   0.0000
   231 H136     -3.4755    4.4648    3.0420   H         1 RES1   0.0000
   232 H137     -5.1053    2.8983    2.1826   H         1 RES1   0.0000
   233 H138     -4.2539    2.7634    0.6485   H         1 RES1   0.0000
   234 H139     -6.2081    4.0662    0.2560   H         1 RES1   0.0000
   235 H140     -4.8449    5.1503    0.1217   H         1 RES1   0.0000
   236 H141     -5.5969    5.3312    2.8471   H         1 RES1   0.0000
   237 H142     -7.1186    5.1995    1.9945   H         1 RES1   0.0000
   238 H143     -6.6666    7.5297    2.1690   H         1 RES1   0.0000
   239 H144     -6.3735    7.0946    0.5011   H         1 RES1   0.0000
   240 H145     -4.4100    8.2311    0.7875   H         1 RES1   0.0000
   241 H146     -3.8505    6.7595    1.5704   H         1 RES1   0.0000
   242 H147     -5.1151    9.0707    3.0683   H         1 RES1   0.0000
   243 H148     -3.3878    8.8976    2.7959   H         1 RES1   0.0000
   244 H149     -5.1206    6.9189    4.3442   H         1 RES1   0.0000
   245 H150     -3.9995    8.0820    5.0316   H         1 RES1   0.0000
   246 H151     -3.3819    6.7548    4.0566   H         1 RES1   0.0000
   247 H152     -2.7756    2.9852    4.2690   H         1 RES1   0.0000
   248 H153     -1.2578    2.1469    3.8832   H         1 RES1   0.0000
   249 H154     -3.7692    0.9975    4.4683   H         1 RES1   0.0000
   250 H155     -3.5834    0.7362    2.7388   H         1 RES1   0.0000
   251 H156     -1.4380    0.0964    4.8066   H         1 RES1   0.0000
   252 H157     -1.4316   -0.4032    3.0965   H         1 RES1   0.0000
   253 H158     -3.3756   -1.3123    5.2670   H         1 RES1   0.0000
   254 H159     -2.0255   -2.2437    4.6247   H         1 RES1   0.0000
   255 H160     -3.1459   -1.9783    2.3186   H         1 RES1   0.0000
   256 H161     -4.5908   -1.4754    3.2047   H         1 RES1   0.0000
   257 H162     -3.1757   -4.1462    3.5737   H         1 RES1   0.0000
   258 H163     -4.5592   -3.8571    2.5272   H         1 RES1   0.0000
   259 H164     -5.5299   -4.7808    4.4035   H         1 RES1   0.0000
   260 H165     -5.8076   -3.0646    4.6349   H         1 RES1   0.0000
   261 H166     -3.5784   -4.6754    5.9628   H         1 RES1   0.0000
   262 H167     -5.1088   -4.2473    6.7137   H         1 RES1   0.0000
   263 H168     -3.9585   -2.9922    6.3022   H         1 RES1   0.0000
   264 N5       -2.2785    0.0705   -0.2716   N.3       1 RES1   0.0000
   265 O7       -3.1419    0.8513   -0.0179   O.2       1 RES1   0.0000
   266 O8       -1.6915    0.1039   -1.3607   O.co2     1 RES1   0.0000
   267 O9       -1.9056   -0.7866    0.5266   O.co2     1 RES1   0.0000
@<TRIPOS>BOND
     1     1    20    1
     2     1    25    1
     3     1    31    1
     4     1   151    1
     5     1   156    1
     6     1   162    1
     7     1   266    1
     8     1   267    1
     9     2     3    1
    10     2    49    1
    11     2    50    1
    12     2    51    1
    13     3     4    1
    14     3    52    1
    15     3    53    1
    16     4     5    1
    17     4    54    1
    18     4    55    1
    19     5     6    1
    20     5    56    1
    21     5    57    1
    22     6     7    1
    23     6    58    1
    24     6    59    1
    25     7     8    1
    26     7    60    1
    27     7    61    1
    28     8     9    1
    29     8    62    1
    30     8    63    1
    31     9    10    1
    32     9    64    1
    33     9    65    1
    34    10    11    1
    35    10    19    1
    36    11    12    1
    37    11    66    1
    38    11    67    1
    39    12    13    1
    40    12    68    1
    41    12    69    1
    42    13    14    1
    43    13    70    1
    44    13    71    1
    45    14    15    1
    46    14    72    1
    47    14    73    1
    48    15    16    1
    49    15    74    1
    50    15    75    1
    51    16    17    1
    52    16    76    1
    53    16    77    1
    54    17    18    1
    55    17    78    1
    56    17    79    1
    57    18    80    1
    58    18    81    1
    59    18    82    1
    60    19    20    2
    61    19    21    1
    62    21    22    1
    63    21    25    1
    64    21    83    1
    65    22    23    1
    66    22    84    1
    67    22    85    1
    68    23    24    1
    69    23    86    1
    70    23    87    1
    71    24    88    1
    72    24    89    1
    73    24    90    1
    74    25    26    1
    75    26    27    1
    76    26    30    1
    77    26    91    1
    78    27    28    1
    79    27    92    1
    80    27    93    1
    81    28    29    1
    82    28    94    1
    83    28    95    1
    84    29    96    1
    85    29    97    1
    86    29    98    1
    87    30    31    2
    88    30    32    1
    89    32    33    1
    90    32    41    1
    91    33    34    1
    92    33    99    1
    93    33   100    1
    94    34    35    1
    95    34   101    1
    96    34   102    1
    97    35    36    1
    98    35   103    1
    99    35   104    1
   100    36    37    1
   101    36   105    1
   102    36   106    1
   103    37    38    1
   104    37   107    1
   105    37   108    1
   106    38    39    1
   107    38   109    1
   108    38   110    1
   109    39    40    1
   110    39   111    1
   111    39   112    1
   112    40   113    1
   113    40   114    1
   114    40   115    1
   115    41    42    1
   116    41   116    1
   117    41   117    1
   118    42    43    1
   119    42   118    1
   120    42   119    1
   121    43    44    1
   122    43   120    1
   123    43   121    1
   124    44    45    1
   125    44   122    1
   126    44   123    1
   127    45    46    1
   128    45   124    1
   129    45   125    1
   130    46    47    1
   131    46   126    1
   132    46   127    1
   133    47    48    1
   134    47   128    1
   135    47   129    1
   136    48   130    1
   137    48   131    1
   138    48   132    1
   139   133   134    1
   140   133   180    1
   141   133   181    1
   142   133   182    1
   143   134   135    1
   144   134   183    1
   145   134   184    1
   146   135   136    1
   147   135   185    1
   148   135   186    1
   149   136   137    1
   150   136   187    1
   151   136   188    1
   152   137   138    1
   153   137   189    1
   154   137   190    1
   155   138   139    1
   156   138   191    1
   157   138   192    1
   158   139   140    1
   159   139   193    1
   160   139   194    1
   161   140   141    1
   162   140   195    1
   163   140   196    1
   164   141   142    1
   165   141   150    1
   166   142   143    1
   167   142   197    1
   168   142   198    1
   169   143   144    1
   170   143   199    1
   171   143   200    1
   172   144   145    1
   173   144   201    1
   174   144   202    1
   175   145   146    1
   176   145   203    1
   177   145   204    1
   178   146   147    1
   179   146   205    1
   180   146   206    1
   181   147   148    1
   182   147   207    1
   183   147   208    1
   184   148   149    1
   185   148   209    1
   186   148   210    1
   187   149   211    1
   188   149   212    1
   189   149   213    1
   190   150   151    2
   191   150   152    1
   192   152   153    1
   193   152   156    1
   194   152   214    1
   195   153   154    1
   196   153   215    1
   197   153   216    1
   198   154   155    1
   199   154   217    1
   200   154   218    1
   201   155   219    1
   202   155   220    1
   203   155   221    1
   204   156   157    1
   205   157   158    1
   206   157   161    1
   207   157   222    1
   208   158   159    1
   209   158   223    1
   210   158   224    1
   211   159   160    1
   212   159   225    1
   213   159   226    1
   214   160   227    1
   215   160   228    1
   216   160   229    1
   217   161   162    2
   218   161   163    1
   219   163   164    1
   220   163   172    1
   221   164   165    1
   222   164   230    1
   223   164   231    1
   224   165   166    1
   225   165   232    1
   226   165   233    1
   227   166   167    1
   228   166   234    1
   229   166   235    1
   230   167   168    1
   231   167   236    1
   232   167   237    1
   233   168   169    1
   234   168   238    1
   235   168   239    1
   236   169   170    1
   237   169   240    1
   238   169   241    1
   239   170   171    1
   240   170   242    1
   241   170   243    1
   242   171   244    1
   243   171   245    1
   244   171   246    1
   245   172   173    1
   246   172   247    1
   247   172   248    1
   248   173   174    1
   249   173   249    1
   250   173   250    1
   251   174   175    1
   252   174   251    1
   253   174   252    1
   254   175   176    1
   255   175   253    1
   256   175   254    1
   257   176   177    1
   258   176   255    1
   259   176   256    1
   260   177   178    1
   261   177   257    1
   262   177   258    1
   263   178   179    1
   264   178   259    1
   265   178   260    1
   266   179   261    1
   267   179   262    1
   268   179   263    1
   269   264   265    2
   270   264   266    1
   271   264   267    1
@<TRIPOS>SUBSTRUCTURE
     1 RES1      267 GROUP             0 ****  ****    0  
