@<TRIPOS>MOLECULE
ICIGOT_geomtry_0_nunpairedes_0_charge_3 Charge: 3 Unpaired_Electrons: 5 XTB_Unpaired_Electrons: 0 XTB_Charge: 3
   253   264     1     0     0
SMALL
NoCharges
****
Generated from Architector

@<TRIPOS>ATOM
     1 Dy1      -0.1237    0.1742    0.0112   Dy        1 RES1   0.0000
     2 C1       -1.1247    8.6515    3.7564   C.3       1 RES1   0.0000
     3 C2       -2.2992    8.8802    2.8114   C.3       1 RES1   0.0000
     4 C3       -2.2940    7.9596    1.5915   C.3       1 RES1   0.0000
     5 C4       -2.4616    6.4818    1.9350   C.3       1 RES1   0.0000
     6 C5       -2.6919    5.5807    0.7162   C.3       1 RES1   0.0000
     7 C6       -1.6374    5.6832   -0.3967   C.3       1 RES1   0.0000
     8 C7       -0.2874    5.0697   -0.0127   C.3       1 RES1   0.0000
     9 C8        0.6722    4.8529   -1.1950   C.3       1 RES1   0.0000
    10 N1        0.0392    4.1218   -2.2865   N.am      1 RES1   0.0000
    11 C9       -0.1527    4.7892   -3.5766   C.3       1 RES1   0.0000
    12 C10       0.5827    6.1138   -3.8666   C.3       1 RES1   0.0000
    13 C11       0.0147    7.4203   -3.2888   C.3       1 RES1   0.0000
    14 C12      -1.4526    7.6789   -3.6256   C.3       1 RES1   0.0000
    15 C13      -1.9794    8.9450   -2.9489   C.3       1 RES1   0.0000
    16 C14      -3.4035    9.3040   -3.3856   C.3       1 RES1   0.0000
    17 C15      -4.4805    8.2726   -3.0362   C.3       1 RES1   0.0000
    18 C16      -4.7103    8.1193   -1.5381   C.3       1 RES1   0.0000
    19 C17      -0.3254    2.8757   -1.9933   C.2       1 RES1   0.0000
    20 O1        0.0833    2.3415   -0.9263   O.2       1 RES1   0.0000
    21 C18      -1.2112    2.0025   -2.8440   C.ar      1 RES1   0.0000
    22 C19      -1.6436    2.2291   -4.1602   C.ar      1 RES1   0.0000
    23 C20      -2.2814    1.2251   -4.8475   C.ar      1 RES1   0.0000
    24 C21      -2.4710   -0.0255   -4.2423   C.ar      1 RES1   0.0000
    25 C22      -2.9351   -1.1634   -4.9577   C.ar      1 RES1   0.0000
    26 C23      -3.0809   -2.3561   -4.3278   C.ar      1 RES1   0.0000
    27 C24      -2.8051   -2.4838   -2.9329   C.ar      1 RES1   0.0000
    28 C25      -2.9031   -3.7163   -2.2657   C.ar      1 RES1   0.0000
    29 C26      -2.5940   -3.7845   -0.9329   C.ar      1 RES1   0.0000
    30 C27      -2.2376   -2.6137   -0.2408   C.ar      1 RES1   0.0000
    31 C28      -1.7517   -2.6373    1.1780   C.2       1 RES1   0.0000
    32 O2       -0.8631   -1.7868    1.4525   O.2       1 RES1   0.0000
    33 N2       -2.1286   -3.5916    2.0288   N.am      1 RES1   0.0000
    34 C29      -3.4414   -4.2164    1.9950   C.3       1 RES1   0.0000
    35 C30      -4.4709   -3.4424    2.8325   C.3       1 RES1   0.0000
    36 C31      -4.7394   -2.0365    2.2783   C.3       1 RES1   0.0000
    37 C32      -3.9357   -0.9277    2.9694   C.3       1 RES1   0.0000
    38 C33      -4.0157    0.4116    2.2300   C.3       1 RES1   0.0000
    39 C34      -5.4415    0.9601    2.1948   C.3       1 RES1   0.0000
    40 C35      -5.5395    2.3660    1.6111   C.3       1 RES1   0.0000
    41 C36      -6.9844    2.8523    1.5728   C.3       1 RES1   0.0000
    42 C37      -1.1752   -4.0123    3.0672   C.3       1 RES1   0.0000
    43 C38      -1.6852   -4.4395    4.4454   C.3       1 RES1   0.0000
    44 C39      -1.8860   -3.3159    5.4610   C.3       1 RES1   0.0000
    45 C40      -2.1971   -3.9059    6.8402   C.3       1 RES1   0.0000
    46 C41      -2.8400   -2.9055    7.8006   C.3       1 RES1   0.0000
    47 C42      -4.2176   -2.3969    7.3646   C.3       1 RES1   0.0000
    48 C43      -5.2361   -3.5054    7.0964   C.3       1 RES1   0.0000
    49 C44      -6.6098   -2.9427    6.7469   C.3       1 RES1   0.0000
    50 N3       -2.0697   -1.4477   -0.8663   N.ar      1 RES1   0.0000
    51 C45      -2.3571   -1.3714   -2.1789   C.ar      1 RES1   0.0000
    52 C46      -2.1348   -0.1183   -2.8665   C.ar      1 RES1   0.0000
    53 N4       -1.5331    0.8746   -2.2038   N.ar      1 RES1   0.0000
    54 H1       -1.0627    9.4696    4.4704   H         1 RES1   0.0000
    55 H2       -0.1901    8.6096    3.1972   H         1 RES1   0.0000
    56 H3       -1.2416    7.7265    4.3172   H         1 RES1   0.0000
    57 H4       -2.2626    9.9098    2.4532   H         1 RES1   0.0000
    58 H5       -3.2356    8.7604    3.3574   H         1 RES1   0.0000
    59 H6       -1.3558    8.1107    1.0558   H         1 RES1   0.0000
    60 H7       -3.1092    8.2623    0.9335   H         1 RES1   0.0000
    61 H8       -3.3268    6.3752    2.5920   H         1 RES1   0.0000
    62 H9       -1.5924    6.1367    2.4903   H         1 RES1   0.0000
    63 H10      -3.6624    5.8379    0.2850   H         1 RES1   0.0000
    64 H11      -2.7534    4.5382    1.0468   H         1 RES1   0.0000
    65 H12      -1.5069    6.7300   -0.6649   H         1 RES1   0.0000
    66 H13      -2.0374    5.1660   -1.2736   H         1 RES1   0.0000
    67 H14      -0.4608    4.1131    0.4822   H         1 RES1   0.0000
    68 H15       0.2257    5.7336    0.6829   H         1 RES1   0.0000
    69 H16       1.5441    4.2786   -0.8596   H         1 RES1   0.0000
    70 H17       1.0159    5.8043   -1.5785   H         1 RES1   0.0000
    71 H18      -1.2208    4.9721   -3.7236   H         1 RES1   0.0000
    72 H19       0.2028    4.0899   -4.3385   H         1 RES1   0.0000
    73 H20       0.5434    6.2093   -4.9548   H         1 RES1   0.0000
    74 H21       1.6426    6.0201   -3.6129   H         1 RES1   0.0000
    75 H22       0.6103    8.2300   -3.7160   H         1 RES1   0.0000
    76 H23       0.1396    7.4735   -2.2070   H         1 RES1   0.0000
    77 H24      -2.0665    6.8413   -3.2956   H         1 RES1   0.0000
    78 H25      -1.5716    7.7828   -4.7048   H         1 RES1   0.0000
    79 H26      -1.3293    9.7834   -3.1997   H         1 RES1   0.0000
    80 H27      -1.9480    8.8277   -1.8646   H         1 RES1   0.0000
    81 H28      -3.4091    9.4571   -4.4673   H         1 RES1   0.0000
    82 H29      -3.6802   10.2552   -2.9238   H         1 RES1   0.0000
    83 H30      -4.2295    7.3015   -3.4715   H         1 RES1   0.0000
    84 H31      -5.4140    8.5944   -3.4995   H         1 RES1   0.0000
    85 H32      -3.8437    7.6727   -1.0589   H         1 RES1   0.0000
    86 H33      -5.5692    7.4781   -1.3522   H         1 RES1   0.0000
    87 H34      -4.8997    9.0877   -1.0808   H         1 RES1   0.0000
    88 H35      -1.4867    3.1559   -4.6733   H         1 RES1   0.0000
    89 H36      -2.6124    1.3954   -5.8603   H         1 RES1   0.0000
    90 H37      -3.1417   -1.0621   -6.0155   H         1 RES1   0.0000
    91 H38      -3.4099   -3.2309   -4.8657   H         1 RES1   0.0000
    92 H39      -3.2013   -4.6016   -2.8037   H         1 RES1   0.0000
    93 H40      -2.5783   -4.7396   -0.4410   H         1 RES1   0.0000
    94 H41      -3.3431   -5.2447    2.3497   H         1 RES1   0.0000
    95 H42      -3.8341   -4.2466    0.9830   H         1 RES1   0.0000
    96 H43      -4.1557   -3.3792    3.8711   H         1 RES1   0.0000
    97 H44      -5.3912   -4.0270    2.8077   H         1 RES1   0.0000
    98 H45      -5.8000   -1.8167    2.4054   H         1 RES1   0.0000
    99 H46      -4.5301   -2.0118    1.2009   H         1 RES1   0.0000
   100 H47      -2.8858   -1.2166    3.0543   H         1 RES1   0.0000
   101 H48      -4.3236   -0.7887    3.9810   H         1 RES1   0.0000
   102 H49      -3.6184    0.2923    1.2066   H         1 RES1   0.0000
   103 H50      -3.3731    1.1310    2.7451   H         1 RES1   0.0000
   104 H51      -5.8314    0.9782    3.2146   H         1 RES1   0.0000
   105 H52      -6.0800    0.2970    1.6089   H         1 RES1   0.0000
   106 H53      -5.1303    2.3689    0.5973   H         1 RES1   0.0000
   107 H54      -4.9468    3.0587    2.2122   H         1 RES1   0.0000
   108 H55      -7.6016    2.1860    0.9727   H         1 RES1   0.0000
   109 H56      -7.0437    3.8492    1.1420   H         1 RES1   0.0000
   110 H57      -7.4066    2.8916    2.5749   H         1 RES1   0.0000
   111 H58      -0.4603   -3.1986    3.1837   H         1 RES1   0.0000
   112 H59      -0.6467   -4.8691    2.6276   H         1 RES1   0.0000
   113 H60      -0.9284   -5.1166    4.8498   H         1 RES1   0.0000
   114 H61      -2.6003   -5.0244    4.3606   H         1 RES1   0.0000
   115 H62      -2.6991   -2.6607    5.1526   H         1 RES1   0.0000
   116 H63      -0.9828   -2.7046    5.5181   H         1 RES1   0.0000
   117 H64      -1.2748   -4.2800    7.2898   H         1 RES1   0.0000
   118 H65      -2.8662   -4.7590    6.7261   H         1 RES1   0.0000
   119 H66      -2.1746   -2.0484    7.9273   H         1 RES1   0.0000
   120 H67      -2.9417   -3.3851    8.7742   H         1 RES1   0.0000
   121 H68      -4.1195   -1.7775    6.4681   H         1 RES1   0.0000
   122 H69      -4.6039   -1.7529    8.1578   H         1 RES1   0.0000
   123 H70      -5.3205   -4.1377    7.9815   H         1 RES1   0.0000
   124 H71      -4.8982   -4.1359    6.2697   H         1 RES1   0.0000
   125 H72      -6.9942   -2.3300    7.5582   H         1 RES1   0.0000
   126 H73      -7.3127   -3.7534    6.5708   H         1 RES1   0.0000
   127 H74      -6.5614   -2.3278    5.8485   H         1 RES1   0.0000
   128 C47       9.3072   -2.2476   -6.4262   C.3       1 RES1   0.0000
   129 C48       8.1753   -2.9974   -5.7342   C.3       1 RES1   0.0000
   130 C49       6.8926   -2.9966   -6.5647   C.3       1 RES1   0.0000
   131 C50       5.7857   -3.8044   -5.8878   C.3       1 RES1   0.0000
   132 C51       4.4340   -3.6918   -6.5975   C.3       1 RES1   0.0000
   133 C52       3.2797   -4.2967   -5.7787   C.3       1 RES1   0.0000
   134 C53       2.4032   -3.2554   -5.0760   C.3       1 RES1   0.0000
   135 C54       3.1716   -2.3764   -4.0879   C.3       1 RES1   0.0000
   136 N5        2.3052   -1.3330   -3.5707   N.am      1 RES1   0.0000
   137 C55       2.1104   -0.1267   -4.3746   C.3       1 RES1   0.0000
   138 C56       2.6388    1.1511   -3.6949   C.3       1 RES1   0.0000
   139 C57       4.0419    1.5936   -4.1247   C.3       1 RES1   0.0000
   140 C58       5.1829    0.6123   -3.8523   C.3       1 RES1   0.0000
   141 C59       5.3037    0.1949   -2.3875   C.3       1 RES1   0.0000
   142 C60       6.4101   -0.8383   -2.1661   C.3       1 RES1   0.0000
   143 C61       6.5663   -1.2370   -0.6979   C.3       1 RES1   0.0000
   144 C62       5.3641   -1.9962   -0.1470   C.3       1 RES1   0.0000
   145 C63       1.5637   -1.4325   -2.4800   C.2       1 RES1   0.0000
   146 O3        0.7277   -0.5365   -2.1803   O.2       1 RES1   0.0000
   147 C64       1.7813   -2.4719   -1.4235   C.ar      1 RES1   0.0000
   148 C65       2.1240   -3.8325   -1.5216   C.ar      1 RES1   0.0000
   149 C66       2.3757   -4.5419   -0.3656   C.ar      1 RES1   0.0000
   150 C67       2.2730   -3.9087    0.8849   C.ar      1 RES1   0.0000
   151 C68       2.5509   -4.5332    2.1382   C.ar      1 RES1   0.0000
   152 C69       2.4245   -3.8504    3.3061   C.ar      1 RES1   0.0000
   153 C70       2.0580   -2.4685    3.3227   C.ar      1 RES1   0.0000
   154 C71       1.9598   -1.6868    4.4885   C.ar      1 RES1   0.0000
   155 C72       1.7290   -0.3339    4.3835   C.ar      1 RES1   0.0000
   156 C73       1.5693    0.2348    3.1099   C.ar      1 RES1   0.0000
   157 C74       1.3172    1.6720    2.7657   C.2       1 RES1   0.0000
   158 O4        0.4640    1.8470    1.8500   O.2       1 RES1   0.0000
   159 N6        2.0067    2.6616    3.3126   N.am      1 RES1   0.0000
   160 C75       3.0599    2.4834    4.3209   C.3       1 RES1   0.0000
   161 C76       4.2623    3.4493    4.2282   C.3       1 RES1   0.0000
   162 C77       4.1594    4.6713    5.1590   C.3       1 RES1   0.0000
   163 C78       5.1525    5.7873    4.8020   C.3       1 RES1   0.0000
   164 C79       4.7126    6.6993    3.6505   C.3       1 RES1   0.0000
   165 C80       3.6824    7.7498    4.0667   C.3       1 RES1   0.0000
   166 C81       3.4298    8.7915    2.9746   C.3       1 RES1   0.0000
   167 C82       2.6804   10.0027    3.5194   C.3       1 RES1   0.0000
   168 C83       1.7409    4.0104    2.8236   C.3       1 RES1   0.0000
   169 C84       0.4148    4.6177    3.2863   C.3       1 RES1   0.0000
   170 C85       0.2610    4.8878    4.7816   C.3       1 RES1   0.0000
   171 C86      -0.2467    3.6909    5.5763   C.3       1 RES1   0.0000
   172 C87      -0.4403    4.0632    7.0449   C.3       1 RES1   0.0000
   173 C88      -0.9058    2.8999    7.9178   C.3       1 RES1   0.0000
   174 C89       0.0247    1.6852    7.9076   C.3       1 RES1   0.0000
   175 C90       1.4683    2.0325    8.2552   C.3       1 RES1   0.0000
   176 N7        1.5494   -0.5036    2.0043   N.ar      1 RES1   0.0000
   177 C91       1.8121   -1.8131    2.1014   C.ar      1 RES1   0.0000
   178 C92       1.8789   -2.5553    0.8751   C.ar      1 RES1   0.0000
   179 N8        1.6127   -1.8814   -0.2460   N.ar      1 RES1   0.0000
   180 H75      10.1973   -2.2495   -5.8003   H         1 RES1   0.0000
   181 H76       9.0214   -1.2139   -6.6184   H         1 RES1   0.0000
   182 H77       9.5548   -2.7193   -7.3752   H         1 RES1   0.0000
   183 H78       7.9737   -2.5347   -4.7637   H         1 RES1   0.0000
   184 H79       8.4840   -4.0274   -5.5489   H         1 RES1   0.0000
   185 H80       7.0962   -3.4177   -7.5500   H         1 RES1   0.0000
   186 H81       6.5640   -1.9637   -6.7126   H         1 RES1   0.0000
   187 H82       5.6928   -3.4732   -4.8502   H         1 RES1   0.0000
   188 H83       6.0832   -4.8537   -5.8627   H         1 RES1   0.0000
   189 H84       4.5035   -4.2088   -7.5548   H         1 RES1   0.0000
   190 H85       4.2181   -2.6441   -6.8221   H         1 RES1   0.0000
   191 H86       3.6894   -4.9978   -5.0485   H         1 RES1   0.0000
   192 H87       2.6234   -4.8665   -6.4374   H         1 RES1   0.0000
   193 H88       1.5907   -3.7675   -4.5530   H         1 RES1   0.0000
   194 H89       1.9467   -2.6121   -5.8309   H         1 RES1   0.0000
   195 H90       4.0025   -1.8954   -4.6024   H         1 RES1   0.0000
   196 H91       3.5807   -2.9588   -3.2637   H         1 RES1   0.0000
   197 H92       1.0331   -0.0205   -4.5374   H         1 RES1   0.0000
   198 H93       2.6062   -0.2678   -5.3351   H         1 RES1   0.0000
   199 H94       2.5978    1.0285   -2.6089   H         1 RES1   0.0000
   200 H95       1.9523    1.9639   -3.9420   H         1 RES1   0.0000
   201 H96       4.2601    2.5305   -3.6099   H         1 RES1   0.0000
   202 H97       4.0258    1.8100   -5.1931   H         1 RES1   0.0000
   203 H98       6.1171    1.0877   -4.1570   H         1 RES1   0.0000
   204 H99       5.0750   -0.2742   -4.4775   H         1 RES1   0.0000
   205 H100      4.3547   -0.2232   -2.0414   H         1 RES1   0.0000
   206 H101      5.5218    1.0768   -1.7817   H         1 RES1   0.0000
   207 H102      7.3560   -0.4253   -2.5223   H         1 RES1   0.0000
   208 H103      6.2020   -1.7295   -2.7647   H         1 RES1   0.0000
   209 H104      6.7371   -0.3404   -0.1011   H         1 RES1   0.0000
   210 H105      7.4506   -1.8670   -0.6052   H         1 RES1   0.0000
   211 H106      4.4790   -1.3628   -0.0938   H         1 RES1   0.0000
   212 H107      5.5809   -2.3539    0.8551   H         1 RES1   0.0000
   213 H108      5.1403   -2.8567   -0.7747   H         1 RES1   0.0000
   214 H109      2.1562   -4.3327   -2.4730   H         1 RES1   0.0000
   215 H110      2.6797   -5.5782   -0.4176   H         1 RES1   0.0000
   216 H111      2.8900   -5.5612    2.1268   H         1 RES1   0.0000
   217 H112      2.6451   -4.3245    4.2517   H         1 RES1   0.0000
   218 H113      2.0815   -2.1556    5.4558   H         1 RES1   0.0000
   219 H114      1.6457    0.2773    5.2666   H         1 RES1   0.0000
   220 H115      3.4337    1.4631    4.2366   H         1 RES1   0.0000
   221 H116      2.6130    2.6003    5.3152   H         1 RES1   0.0000
   222 H117      4.4294    3.7622    3.1967   H         1 RES1   0.0000
   223 H118      5.1520    2.8872    4.5217   H         1 RES1   0.0000
   224 H119      4.3551    4.3384    6.1813   H         1 RES1   0.0000
   225 H120      3.1549    5.0936    5.1530   H         1 RES1   0.0000
   226 H121      6.1166    5.3354    4.5626   H         1 RES1   0.0000
   227 H122      5.3050    6.4137    5.6840   H         1 RES1   0.0000
   228 H123      4.3235    6.1081    2.8180   H         1 RES1   0.0000
   229 H124      5.5946    7.2275    3.2869   H         1 RES1   0.0000
   230 H125      4.0545    8.2769    4.9468   H         1 RES1   0.0000
   231 H126      2.7311    7.2857    4.3435   H         1 RES1   0.0000
   232 H127      2.8679    8.3455    2.1485   H         1 RES1   0.0000
   233 H128      4.3874    9.1262    2.5707   H         1 RES1   0.0000
   234 H129      1.7408    9.7049    3.9787   H         1 RES1   0.0000
   235 H130      2.4642   10.7166    2.7275   H         1 RES1   0.0000
   236 H131      3.2822   10.5036    4.2738   H         1 RES1   0.0000
   237 H132      1.7264    3.9599    1.7293   H         1 RES1   0.0000
   238 H133      2.5520    4.6572    3.1359   H         1 RES1   0.0000
   239 H134     -0.4061    3.9863    2.9453   H         1 RES1   0.0000
   240 H135      0.3553    5.5749    2.7673   H         1 RES1   0.0000
   241 H136     -0.4527    5.7037    4.9022   H         1 RES1   0.0000
   242 H137      1.1993    5.2379    5.2103   H         1 RES1   0.0000
   243 H138      0.4570    2.8613    5.4897   H         1 RES1   0.0000
   244 H139     -1.1998    3.3563    5.1592   H         1 RES1   0.0000
   245 H140     -1.1885    4.8547    7.1069   H         1 RES1   0.0000
   246 H141      0.4896    4.4667    7.4462   H         1 RES1   0.0000
   247 H142     -1.8976    2.5808    7.5895   H         1 RES1   0.0000
   248 H143     -0.9992    3.2621    8.9427   H         1 RES1   0.0000
   249 H144     -0.0224    1.1955    6.9288   H         1 RES1   0.0000
   250 H145     -0.3484    0.9673    8.6400   H         1 RES1   0.0000
   251 H146      1.9137    2.6838    7.5049   H         1 RES1   0.0000
   252 H147      2.0722    1.1298    8.3302   H         1 RES1   0.0000
   253 H148      1.5069    2.5498    9.2098   H         1 RES1   0.0000
@<TRIPOS>BOND
     1     1    20    1
     2     1    32    1
     3     1    50    1
     4     1    53    1
     5     1   146    1
     6     1   158    1
     7     1   176    1
     8     1   179    1
     9     2     3    1
    10     2    54    1
    11     2    55    1
    12     2    56    1
    13     3     4    1
    14     3    57    1
    15     3    58    1
    16     4     5    1
    17     4    59    1
    18     4    60    1
    19     5     6    1
    20     5    61    1
    21     5    62    1
    22     6     7    1
    23     6    63    1
    24     6    64    1
    25     7     8    1
    26     7    65    1
    27     7    66    1
    28     8     9    1
    29     8    67    1
    30     8    68    1
    31     9    10    1
    32     9    69    1
    33     9    70    1
    34    10    11    1
    35    10    19    1
    36    11    12    1
    37    11    71    1
    38    11    72    1
    39    12    13    1
    40    12    73    1
    41    12    74    1
    42    13    14    1
    43    13    75    1
    44    13    76    1
    45    14    15    1
    46    14    77    1
    47    14    78    1
    48    15    16    1
    49    15    79    1
    50    15    80    1
    51    16    17    1
    52    16    81    1
    53    16    82    1
    54    17    18    1
    55    17    83    1
    56    17    84    1
    57    18    85    1
    58    18    86    1
    59    18    87    1
    60    19    20    2
    61    19    21    1
    62    21    22    1
    63    21    53    2
    64    22    23    2
    65    22    88    1
    66    23    24    1
    67    23    89    1
    68    24    25    1
    69    24    52    2
    70    25    26    2
    71    25    90    1
    72    26    27    1
    73    26    91    1
    74    27    28    1
    75    27    51    2
    76    28    29    2
    77    28    92    1
    78    29    30    1
    79    29    93    1
    80    30    31    1
    81    30    50    2
    82    31    32    2
    83    31    33    1
    84    33    34    1
    85    33    42    1
    86    34    35    1
    87    34    94    1
    88    34    95    1
    89    35    36    1
    90    35    96    1
    91    35    97    1
    92    36    37    1
    93    36    98    1
    94    36    99    1
    95    37    38    1
    96    37   100    1
    97    37   101    1
    98    38    39    1
    99    38   102    1
   100    38   103    1
   101    39    40    1
   102    39   104    1
   103    39   105    1
   104    40    41    1
   105    40   106    1
   106    40   107    1
   107    41   108    1
   108    41   109    1
   109    41   110    1
   110    42    43    1
   111    42   111    1
   112    42   112    1
   113    43    44    1
   114    43   113    1
   115    43   114    1
   116    44    45    1
   117    44   115    1
   118    44   116    1
   119    45    46    1
   120    45   117    1
   121    45   118    1
   122    46    47    1
   123    46   119    1
   124    46   120    1
   125    47    48    1
   126    47   121    1
   127    47   122    1
   128    48    49    1
   129    48   123    1
   130    48   124    1
   131    49   125    1
   132    49   126    1
   133    49   127    1
   134    50    51    1
   135    51    52    1
   136    52    53    1
   137   128   129    1
   138   128   180    1
   139   128   181    1
   140   128   182    1
   141   129   130    1
   142   129   183    1
   143   129   184    1
   144   130   131    1
   145   130   185    1
   146   130   186    1
   147   131   132    1
   148   131   187    1
   149   131   188    1
   150   132   133    1
   151   132   189    1
   152   132   190    1
   153   133   134    1
   154   133   191    1
   155   133   192    1
   156   134   135    1
   157   134   193    1
   158   134   194    1
   159   135   136    1
   160   135   195    1
   161   135   196    1
   162   136   137    1
   163   136   145    1
   164   137   138    1
   165   137   197    1
   166   137   198    1
   167   138   139    1
   168   138   199    1
   169   138   200    1
   170   139   140    1
   171   139   201    1
   172   139   202    1
   173   140   141    1
   174   140   203    1
   175   140   204    1
   176   141   142    1
   177   141   205    1
   178   141   206    1
   179   142   143    1
   180   142   207    1
   181   142   208    1
   182   143   144    1
   183   143   209    1
   184   143   210    1
   185   144   211    1
   186   144   212    1
   187   144   213    1
   188   145   146    2
   189   145   147    1
   190   147   148    1
   191   147   179    2
   192   148   149    2
   193   148   214    1
   194   149   150    1
   195   149   215    1
   196   150   151    1
   197   150   178    2
   198   151   152    2
   199   151   216    1
   200   152   153    1
   201   152   217    1
   202   153   154    1
   203   153   177    2
   204   154   155    2
   205   154   218    1
   206   155   156    1
   207   155   219    1
   208   156   157    1
   209   156   176    2
   210   157   158    2
   211   157   159    1
   212   159   160    1
   213   159   168    1
   214   160   161    1
   215   160   220    1
   216   160   221    1
   217   161   162    1
   218   161   222    1
   219   161   223    1
   220   162   163    1
   221   162   224    1
   222   162   225    1
   223   163   164    1
   224   163   226    1
   225   163   227    1
   226   164   165    1
   227   164   228    1
   228   164   229    1
   229   165   166    1
   230   165   230    1
   231   165   231    1
   232   166   167    1
   233   166   232    1
   234   166   233    1
   235   167   234    1
   236   167   235    1
   237   167   236    1
   238   168   169    1
   239   168   237    1
   240   168   238    1
   241   169   170    1
   242   169   239    1
   243   169   240    1
   244   170   171    1
   245   170   241    1
   246   170   242    1
   247   171   172    1
   248   171   243    1
   249   171   244    1
   250   172   173    1
   251   172   245    1
   252   172   246    1
   253   173   174    1
   254   173   247    1
   255   173   248    1
   256   174   175    1
   257   174   249    1
   258   174   250    1
   259   175   251    1
   260   175   252    1
   261   175   253    1
   262   176   177    1
   263   177   178    1
   264   178   179    1
@<TRIPOS>SUBSTRUCTURE
     1 RES1      253 GROUP             0 ****  ****    0  
