@<TRIPOS>MOLECULE
ICIGOT_geomtry_0_nunpairedes_0_charge_3 Charge: 3 Unpaired_Electrons: 5 XTB_Unpaired_Electrons: 0 XTB_Charge: 3
   137   140     1     0     0
SMALL
NoCharges
****
Generated from Architector

@<TRIPOS>ATOM
     1 Dy1      -0.0372   -0.3271   -0.1041   Dy        1 RES1   0.0000
     2 C1        2.4172    0.5804   -6.9142   C.3       1 RES1   0.0000
     3 C2        1.3792   -0.1106   -6.0359   C.3       1 RES1   0.0000
     4 C3        0.4999    0.8636   -5.2481   C.3       1 RES1   0.0000
     5 C4        1.3295    1.7281   -4.2964   C.3       1 RES1   0.0000
     6 N1        0.4870    2.5322   -3.4148   N.am      1 RES1   0.0000
     7 C5        0.2460    3.9062   -3.8363   C.3       1 RES1   0.0000
     8 C6        1.4865    4.8096   -3.8039   C.3       1 RES1   0.0000
     9 C7        2.0781    5.0754   -2.4195   C.3       1 RES1   0.0000
    10 C8        2.8923    3.9125   -1.8553   C.3       1 RES1   0.0000
    11 C9       -0.0095    1.9568   -2.3426   C.2       1 RES1   0.0000
    12 O1        0.2789    0.7770   -2.0127   O.2       1 RES1   0.0000
    13 C10      -0.9447    2.7352   -1.3999   C.3       1 RES1   0.0000
    14 O2       -1.4442    1.8639   -0.3760   O.3       1 RES1   0.0000
    15 C11      -2.8473    1.5620   -0.4389   C.3       1 RES1   0.0000
    16 C12      -3.0557    0.0464   -0.4714   C.2       1 RES1   0.0000
    17 O3       -2.0687   -0.6628   -0.7851   O.2       1 RES1   0.0000
    18 N2       -4.2116   -0.4843   -0.1177   N.am      1 RES1   0.0000
    19 C13      -5.3621    0.2950    0.3366   C.3       1 RES1   0.0000
    20 C14      -6.0617    1.2112   -0.6734   C.3       1 RES1   0.0000
    21 C15      -6.6840    0.4837   -1.8668   C.3       1 RES1   0.0000
    22 C16      -5.6919    0.1812   -2.9833   C.3       1 RES1   0.0000
    23 C17      -4.2300   -1.9396    0.0630   C.3       1 RES1   0.0000
    24 C18      -4.3525   -2.7805   -1.2104   C.3       1 RES1   0.0000
    25 C19      -4.4554   -4.2719   -0.8633   C.3       1 RES1   0.0000
    26 C20      -3.2132   -4.8518   -0.1928   C.3       1 RES1   0.0000
    27 H1        2.9027   -0.1482   -7.5574   H         1 RES1   0.0000
    28 H2        1.9544    1.3325   -7.5491   H         1 RES1   0.0000
    29 H3        3.1934    1.0557   -6.3184   H         1 RES1   0.0000
    30 H4        0.7230   -0.7106   -6.6659   H         1 RES1   0.0000
    31 H5        1.8863   -0.7865   -5.3427   H         1 RES1   0.0000
    32 H6       -0.0350    1.5061   -5.9491   H         1 RES1   0.0000
    33 H7       -0.2370    0.2993   -4.6700   H         1 RES1   0.0000
    34 H8        1.9588    1.0920   -3.6680   H         1 RES1   0.0000
    35 H9        1.9553    2.4056   -4.8689   H         1 RES1   0.0000
    36 H10      -0.1130    3.8699   -4.8677   H         1 RES1   0.0000
    37 H11      -0.5308    4.3498   -3.2177   H         1 RES1   0.0000
    38 H12       2.2676    4.4147   -4.4541   H         1 RES1   0.0000
    39 H13       1.1778    5.7641   -4.2344   H         1 RES1   0.0000
    40 H14       2.7446    5.9348   -2.5133   H         1 RES1   0.0000
    41 H15       1.2850    5.3580   -1.7230   H         1 RES1   0.0000
    42 H16       3.6477    3.6077   -2.5762   H         1 RES1   0.0000
    43 H17       3.4020    4.2445   -0.9542   H         1 RES1   0.0000
    44 H18       2.2745    3.0480   -1.6074   H         1 RES1   0.0000
    45 H19      -0.3841    3.5385   -0.8991   H         1 RES1   0.0000
    46 H20      -1.7738    3.1790   -1.9570   H         1 RES1   0.0000
    47 H21      -3.3230    1.9996    0.4504   H         1 RES1   0.0000
    48 H22      -3.2983    1.9835   -1.3394   H         1 RES1   0.0000
    49 H23      -6.1037   -0.4165    0.6964   H         1 RES1   0.0000
    50 H24      -5.0530    0.8961    1.1976   H         1 RES1   0.0000
    51 H25      -6.8599    1.6988   -0.1094   H         1 RES1   0.0000
    52 H26      -5.4001    1.9998   -1.0294   H         1 RES1   0.0000
    53 H27      -7.1563   -0.4363   -1.5190   H         1 RES1   0.0000
    54 H28      -7.4719    1.1184   -2.2760   H         1 RES1   0.0000
    55 H29      -4.8803   -0.4625   -2.6557   H         1 RES1   0.0000
    56 H30      -6.2123   -0.3099   -3.7988   H         1 RES1   0.0000
    57 H31      -5.2704    1.1048   -3.3714   H         1 RES1   0.0000
    58 H32      -3.2830   -2.2050    0.5458   H         1 RES1   0.0000
    59 H33      -5.0550   -2.1917    0.7263   H         1 RES1   0.0000
    60 H34      -5.2517   -2.4980   -1.7571   H         1 RES1   0.0000
    61 H35      -3.4859   -2.6066   -1.8532   H         1 RES1   0.0000
    62 H36      -5.3129   -4.4234   -0.2066   H         1 RES1   0.0000
    63 H37      -4.6499   -4.8254   -1.7835   H         1 RES1   0.0000
    64 H38      -3.0312   -4.4062    0.7834   H         1 RES1   0.0000
    65 H39      -3.3460   -5.9197   -0.0418   H         1 RES1   0.0000
    66 H40      -2.3293   -4.7136   -0.8156   H         1 RES1   0.0000
    67 C21      -1.5756   -3.7443    5.8112   C.3       1 RES1   0.0000
    68 C22      -0.7489   -3.7434    4.5287   C.3       1 RES1   0.0000
    69 C23       0.2732   -2.6024    4.4504   C.3       1 RES1   0.0000
    70 C24      -0.4416   -1.2592    4.6072   C.3       1 RES1   0.0000
    71 N3        0.3081   -0.0650    4.2067   N.am      1 RES1   0.0000
    72 C25       0.6043    0.8738    5.2920   C.3       1 RES1   0.0000
    73 C26      -0.6272    1.4503    6.0067   C.3       1 RES1   0.0000
    74 C27      -1.3127    2.6298    5.3160   C.3       1 RES1   0.0000
    75 C28      -2.1311    2.2574    4.0804   C.3       1 RES1   0.0000
    76 C29       0.6896    0.0883    2.9551   C.2       1 RES1   0.0000
    77 O4        0.4707   -0.7615    2.0511   O.2       1 RES1   0.0000
    78 C30       1.3618    1.4014    2.5097   C.3       1 RES1   0.0000
    79 O5        1.6367    1.3388    1.1083   O.3       1 RES1   0.0000
    80 C31       3.0117    1.0815    0.7876   C.3       1 RES1   0.0000
    81 C32       3.1007    0.0050   -0.2898   C.2       1 RES1   0.0000
    82 O6        2.0716   -0.6717   -0.5415   O.2       1 RES1   0.0000
    83 N4        4.2377   -0.1912   -0.9299   N.am      1 RES1   0.0000
    84 C33       5.4626    0.5776   -0.7179   C.3       1 RES1   0.0000
    85 C34       6.1693    0.4812    0.6404   C.3       1 RES1   0.0000
    86 C35       6.5257   -0.9407    1.0788   C.3       1 RES1   0.0000
    87 C36       5.3870   -1.6780    1.7769   C.3       1 RES1   0.0000
    88 C37       4.2041   -1.1894   -1.9987   C.3       1 RES1   0.0000
    89 C38       4.1548   -2.6287   -1.4787   C.3       1 RES1   0.0000
    90 C39       4.1360   -3.6490   -2.6192   C.3       1 RES1   0.0000
    91 C40       2.8250   -3.6644   -3.3979   C.3       1 RES1   0.0000
    92 H41      -2.1865   -4.6417    5.8532   H         1 RES1   0.0000
    93 H42      -0.9336   -3.7380    6.6880   H         1 RES1   0.0000
    94 H43      -2.2464   -2.8884    5.8633   H         1 RES1   0.0000
    95 H44      -0.2044   -4.6837    4.4573   H         1 RES1   0.0000
    96 H45      -1.4223   -3.6892    3.6675   H         1 RES1   0.0000
    97 H46       1.0081   -2.7197    5.2472   H         1 RES1   0.0000
    98 H47       0.7878   -2.6551    3.4893   H         1 RES1   0.0000
    99 H48      -1.3661   -1.2882    4.0248   H         1 RES1   0.0000
   100 H49      -0.7035   -1.1320    5.6535   H         1 RES1   0.0000
   101 H50       1.1885    0.3201    6.0313   H         1 RES1   0.0000
   102 H51       1.2154    1.6955    4.9235   H         1 RES1   0.0000
   103 H52      -1.3658    0.6704    6.1921   H         1 RES1   0.0000
   104 H53      -0.2886    1.7911    6.9870   H         1 RES1   0.0000
   105 H54      -1.9868    3.0739    6.0501   H         1 RES1   0.0000
   106 H55      -0.5757    3.3912    5.0553   H         1 RES1   0.0000
   107 H56      -2.8018    1.4310    4.3141   H         1 RES1   0.0000
   108 H57      -2.7443    3.1070    3.7952   H         1 RES1   0.0000
   109 H58      -1.4942    2.0020    3.2301   H         1 RES1   0.0000
   110 H59       0.6781    2.2503    2.6572   H         1 RES1   0.0000
   111 H60       2.2756    1.5926    3.0775   H         1 RES1   0.0000
   112 H61       3.4716    2.0194    0.4467   H         1 RES1   0.0000
   113 H62       3.5469    0.7208    1.6700   H         1 RES1   0.0000
   114 H63       6.1694    0.2317   -1.4680   H         1 RES1   0.0000
   115 H64       5.2581    1.6314   -0.9272   H         1 RES1   0.0000
   116 H65       7.0959    1.0449    0.5101   H         1 RES1   0.0000
   117 H66       5.6107    0.9836    1.4298   H         1 RES1   0.0000
   118 H67       6.8715   -1.5037    0.2097   H         1 RES1   0.0000
   119 H68       7.3622   -0.8782    1.7766   H         1 RES1   0.0000
   120 H69       4.5041   -1.7753    1.1500   H         1 RES1   0.0000
   121 H70       5.7216   -2.6736    2.0507   H         1 RES1   0.0000
   122 H71       5.1122   -1.1614    2.6940   H         1 RES1   0.0000
   123 H72       3.3103   -0.9865   -2.5959   H         1 RES1   0.0000
   124 H73       5.0853   -1.0643   -2.6234   H         1 RES1   0.0000
   125 H74       5.0359   -2.8074   -0.8650   H         1 RES1   0.0000
   126 H75       3.2671   -2.7687   -0.8562   H         1 RES1   0.0000
   127 H76       4.9628   -3.4457   -3.3000   H         1 RES1   0.0000
   128 H77       4.3015   -4.6370   -2.1874   H         1 RES1   0.0000
   129 H78       2.6625   -2.7292   -3.9298   H         1 RES1   0.0000
   130 H79       2.8378   -4.4644   -4.1326   H         1 RES1   0.0000
   131 H80       1.9899   -3.8458   -2.7210   H         1 RES1   0.0000
   132 O7       -2.0418   -0.2216    1.8427   O.3       1 RES1   0.0000
   133 H81      -2.2448    0.3530    2.5992   H         1 RES1   0.0000
   134 H82      -2.1414   -1.1339    2.1603   H         1 RES1   0.0000
   135 O8       -0.1387   -2.5087   -1.2489   O.3       1 RES1   0.0000
   136 H83      -0.8479   -3.1643   -1.3626   H         1 RES1   0.0000
   137 H84       0.4166   -2.5749   -2.0443   H         1 RES1   0.0000
@<TRIPOS>BOND
     1     1    12    1
     2     1    14    1
     3     1    17    1
     4     1    77    1
     5     1    79    1
     6     1    82    1
     7     1   132    1
     8     1   135    1
     9     2     3    1
    10     2    27    1
    11     2    28    1
    12     2    29    1
    13     3     4    1
    14     3    30    1
    15     3    31    1
    16     4     5    1
    17     4    32    1
    18     4    33    1
    19     5     6    1
    20     5    34    1
    21     5    35    1
    22     6     7    1
    23     6    11    1
    24     7     8    1
    25     7    36    1
    26     7    37    1
    27     8     9    1
    28     8    38    1
    29     8    39    1
    30     9    10    1
    31     9    40    1
    32     9    41    1
    33    10    42    1
    34    10    43    1
    35    10    44    1
    36    11    12    2
    37    11    13    1
    38    13    14    1
    39    13    45    1
    40    13    46    1
    41    14    15    1
    42    15    16    1
    43    15    47    1
    44    15    48    1
    45    16    17    2
    46    16    18    1
    47    18    19    1
    48    18    23    1
    49    19    20    1
    50    19    49    1
    51    19    50    1
    52    20    21    1
    53    20    51    1
    54    20    52    1
    55    21    22    1
    56    21    53    1
    57    21    54    1
    58    22    55    1
    59    22    56    1
    60    22    57    1
    61    23    24    1
    62    23    58    1
    63    23    59    1
    64    24    25    1
    65    24    60    1
    66    24    61    1
    67    25    26    1
    68    25    62    1
    69    25    63    1
    70    26    64    1
    71    26    65    1
    72    26    66    1
    73    67    68    1
    74    67    92    1
    75    67    93    1
    76    67    94    1
    77    68    69    1
    78    68    95    1
    79    68    96    1
    80    69    70    1
    81    69    97    1
    82    69    98    1
    83    70    71    1
    84    70    99    1
    85    70   100    1
    86    71    72    1
    87    71    76    1
    88    72    73    1
    89    72   101    1
    90    72   102    1
    91    73    74    1
    92    73   103    1
    93    73   104    1
    94    74    75    1
    95    74   105    1
    96    74   106    1
    97    75   107    1
    98    75   108    1
    99    75   109    1
   100    76    77    2
   101    76    78    1
   102    78    79    1
   103    78   110    1
   104    78   111    1
   105    79    80    1
   106    80    81    1
   107    80   112    1
   108    80   113    1
   109    81    82    2
   110    81    83    1
   111    83    84    1
   112    83    88    1
   113    84    85    1
   114    84   114    1
   115    84   115    1
   116    85    86    1
   117    85   116    1
   118    85   117    1
   119    86    87    1
   120    86   118    1
   121    86   119    1
   122    87   120    1
   123    87   121    1
   124    87   122    1
   125    88    89    1
   126    88   123    1
   127    88   124    1
   128    89    90    1
   129    89   125    1
   130    89   126    1
   131    90    91    1
   132    90   127    1
   133    90   128    1
   134    91   129    1
   135    91   130    1
   136    91   131    1
   137   132   133    1
   138   132   134    1
   139   135   136    1
   140   135   137    1
@<TRIPOS>SUBSTRUCTURE
     1 RES1      137 GROUP             0 ****  ****    0  
