@<TRIPOS>MOLECULE
ICIGOT_geomtry_0_nunpairedes_0_charge_2 Charge: 2 Unpaired_Electrons: 5 XTB_Unpaired_Electrons: 0 XTB_Charge: 2
   111   115     1     0     0
SMALL
NoCharges
****
Generated from Architector

@<TRIPOS>ATOM
     1 Dy1      -0.3821   -0.1291   -0.0757   Dy        1 RES1   0.0000
     2 C1       -0.5029    0.6886    7.4989   C.3       1 RES1   0.0000
     3 C2       -1.2393    0.4592    6.1873   C.3       1 RES1   0.0000
     4 C3       -0.6105   -0.6819    5.3853   C.3       1 RES1   0.0000
     5 N1       -1.1974   -0.8008    4.0607   N.am      1 RES1   0.0000
     6 C4       -2.3105   -1.7381    3.8662   C.3       1 RES1   0.0000
     7 C5       -3.5958   -1.1091    3.3210   C.3       1 RES1   0.0000
     8 C6       -4.1766   -0.0271    4.2199   C.3       1 RES1   0.0000
     9 C7       -0.7546   -0.1264    3.0148   C.2       1 RES1   0.0000
    10 O1       -1.2633   -0.2531    1.8832   O.2       1 RES1   0.0000
    11 C8        0.4596    0.8152    3.1245   C.3       1 RES1   0.0000
    12 O2        0.6652    1.4639    1.8717   O.3       1 RES1   0.0000
    13 C9        0.3120    2.8418    1.7708   C.3       1 RES1   0.0000
    14 C10      -0.5286    3.0384    0.4962   C.2       1 RES1   0.0000
    15 O3       -0.8206    2.0170   -0.1705   O.2       1 RES1   0.0000
    16 N2       -0.9547    4.2344    0.1444   N.am      1 RES1   0.0000
    17 C11      -0.5843    5.4837    0.7967   C.3       1 RES1   0.0000
    18 C12       0.3628    6.3282   -0.0646   C.3       1 RES1   0.0000
    19 C13       1.6592    5.6051   -0.4050   C.3       1 RES1   0.0000
    20 C14      -1.8412    4.3186   -1.0219   C.3       1 RES1   0.0000
    21 C15      -1.1752    3.9934   -2.3618   C.3       1 RES1   0.0000
    22 C16      -2.2161    4.0518   -3.4735   C.3       1 RES1   0.0000
    23 H1       -0.9640    1.5051    8.0461   H         1 RES1   0.0000
    24 H2       -0.5404   -0.2019    8.1194   H         1 RES1   0.0000
    25 H3        0.5398    0.9417    7.3221   H         1 RES1   0.0000
    26 H4       -2.2821    0.2189    6.3858   H         1 RES1   0.0000
    27 H5       -1.2195    1.3697    5.5865   H         1 RES1   0.0000
    28 H6        0.4667   -0.5281    5.2935   H         1 RES1   0.0000
    29 H7       -0.7595   -1.6217    5.9208   H         1 RES1   0.0000
    30 H8       -1.9719   -2.5094    3.1664   H         1 RES1   0.0000
    31 H9       -2.5154   -2.2015    4.8309   H         1 RES1   0.0000
    32 H10      -3.4084   -0.7061    2.3250   H         1 RES1   0.0000
    33 H11      -4.3226   -1.9151    3.2182   H         1 RES1   0.0000
    34 H12      -3.5037    0.8231    4.2924   H         1 RES1   0.0000
    35 H13      -5.1163    0.3228    3.8053   H         1 RES1   0.0000
    36 H14      -4.3807   -0.4038    5.2193   H         1 RES1   0.0000
    37 H15       0.3777    1.5342    3.9441   H         1 RES1   0.0000
    38 H16       1.3403    0.1832    3.2930   H         1 RES1   0.0000
    39 H17      -0.2632    3.1635    2.6450   H         1 RES1   0.0000
    40 H18       1.2369    3.4326    1.7114   H         1 RES1   0.0000
    41 H19      -1.4960    6.0561    0.9957   H         1 RES1   0.0000
    42 H20      -0.1073    5.2702    1.7515   H         1 RES1   0.0000
    43 H21      -0.1420    6.6180   -0.9846   H         1 RES1   0.0000
    44 H22       0.5933    7.2410    0.4867   H         1 RES1   0.0000
    45 H23       1.4697    4.6728   -0.9332   H         1 RES1   0.0000
    46 H24       2.2719    6.2356   -1.0424   H         1 RES1   0.0000
    47 H25       2.2324    5.3832    0.4915   H         1 RES1   0.0000
    48 H26      -2.6571    3.6065   -0.8614   H         1 RES1   0.0000
    49 H27      -2.2496    5.3286   -1.0546   H         1 RES1   0.0000
    50 H28      -0.3803    4.7126   -2.5607   H         1 RES1   0.0000
    51 H29      -0.7351    2.9926   -2.3285   H         1 RES1   0.0000
    52 H30      -2.6587    5.0417   -3.5410   H         1 RES1   0.0000
    53 H31      -1.7581    3.8223   -4.4295   H         1 RES1   0.0000
    54 H32      -3.0110    3.3323   -3.2966   H         1 RES1   0.0000
    55 C17      -1.7505   -5.3561    2.5564   C.3       1 RES1   0.0000
    56 C18      -0.8215   -4.7802    1.4945   C.3       1 RES1   0.0000
    57 C19      -1.5966   -4.5160    0.2017   C.3       1 RES1   0.0000
    58 N3       -0.7456   -4.1563   -0.9403   N.am      1 RES1   0.0000
    59 C20      -0.7415   -5.0018   -2.1321   C.3       1 RES1   0.0000
    60 C21       0.5686   -5.7566   -2.3868   C.3       1 RES1   0.0000
    61 C22       1.0422   -6.5494   -1.1784   C.3       1 RES1   0.0000
    62 C23      -0.1344   -2.9874   -0.8792   C.2       1 RES1   0.0000
    63 O4       -0.2063   -2.2623    0.1404   O.2       1 RES1   0.0000
    64 C24       0.6623   -2.4621   -2.0829   C.3       1 RES1   0.0000
    65 O5        1.1916   -1.1720   -1.7993   O.3       1 RES1   0.0000
    66 C25       2.6040   -1.0346   -1.7150   C.3       1 RES1   0.0000
    67 C26       2.9704   -0.5884   -0.2897   C.2       1 RES1   0.0000
    68 O6        2.0277   -0.3717    0.4980   O.2       1 RES1   0.0000
    69 N4        4.2529   -0.4798    0.0387   N.am      1 RES1   0.0000
    70 C27       5.3717   -0.6703   -0.8841   C.3       1 RES1   0.0000
    71 C28       6.1807    0.6080   -1.1399   C.3       1 RES1   0.0000
    72 C29       5.3614    1.7169   -1.7859   C.3       1 RES1   0.0000
    73 C30       4.6205   -0.1571    1.4182   C.3       1 RES1   0.0000
    74 C31       4.3664    1.2967    1.8195   C.3       1 RES1   0.0000
    75 C32       4.8948    1.5470    3.2274   C.3       1 RES1   0.0000
    76 H33      -1.2209   -5.4811    3.4961   H         1 RES1   0.0000
    77 H34      -2.6038   -4.7048    2.7263   H         1 RES1   0.0000
    78 H35      -2.1239   -6.3288    2.2490   H         1 RES1   0.0000
    79 H36      -0.3731   -3.8482    1.8420   H         1 RES1   0.0000
    80 H37      -0.0198   -5.4906    1.2987   H         1 RES1   0.0000
    81 H38      -2.1615   -5.4084   -0.0595   H         1 RES1   0.0000
    82 H39      -2.3008   -3.6917    0.3734   H         1 RES1   0.0000
    83 H40      -1.5369   -5.7367   -2.0140   H         1 RES1   0.0000
    84 H41      -0.9887   -4.3929   -3.0076   H         1 RES1   0.0000
    85 H42       0.3899   -6.4332   -3.2225   H         1 RES1   0.0000
    86 H43       1.3609   -5.0772   -2.6976   H         1 RES1   0.0000
    87 H44       0.2832   -7.2496   -0.8430   H         1 RES1   0.0000
    88 H45       1.9290   -7.1194   -1.4348   H         1 RES1   0.0000
    89 H46       1.2995   -5.8846   -0.3577   H         1 RES1   0.0000
    90 H47       1.4581   -3.1474   -2.3842   H         1 RES1   0.0000
    91 H48      -0.0402   -2.3542   -2.9218   H         1 RES1   0.0000
    92 H49       3.1055   -1.9728   -1.9681   H         1 RES1   0.0000
    93 H50       2.9032   -0.2556   -2.4275   H         1 RES1   0.0000
    94 H51       6.0413   -1.4340   -0.4725   H         1 RES1   0.0000
    95 H52       5.0051   -1.0351   -1.8389   H         1 RES1   0.0000
    96 H53       6.6205    0.9677   -0.2111   H         1 RES1   0.0000
    97 H54       7.0051    0.3467   -1.8057   H         1 RES1   0.0000
    98 H55       4.5094    1.9986   -1.1716   H         1 RES1   0.0000
    99 H56       5.9847    2.5953   -1.9241   H         1 RES1   0.0000
   100 H57       4.9911    1.4141   -2.7614   H         1 RES1   0.0000
   101 H58       4.0456   -0.8154    2.0745   H         1 RES1   0.0000
   102 H59       5.6824   -0.3759    1.5438   H         1 RES1   0.0000
   103 H60       4.8735    1.9618    1.1216   H         1 RES1   0.0000
   104 H61       3.2960    1.4990    1.7681   H         1 RES1   0.0000
   105 H62       5.9686    1.3860    3.2618   H         1 RES1   0.0000
   106 H63       4.6972    2.5688    3.5367   H         1 RES1   0.0000
   107 H64       4.4340    0.8748    3.9467   H         1 RES1   0.0000
   108 N5       -2.2387   -0.1256   -1.7744   N.3       1 RES1   0.0000
   109 O7       -3.1023    0.0390   -2.5687   O.2       1 RES1   0.0000
   110 O8       -2.4651   -0.4571   -0.5975   O.co2     1 RES1   0.0000
   111 O9       -1.0324   -0.0050   -2.0865   O.co2     1 RES1   0.0000
@<TRIPOS>BOND
     1     1    10    1
     2     1    12    1
     3     1    15    1
     4     1    63    1
     5     1    65    1
     6     1    68    1
     7     1   110    1
     8     1   111    1
     9     2     3    1
    10     2    23    1
    11     2    24    1
    12     2    25    1
    13     3     4    1
    14     3    26    1
    15     3    27    1
    16     4     5    1
    17     4    28    1
    18     4    29    1
    19     5     6    1
    20     5     9    1
    21     6     7    1
    22     6    30    1
    23     6    31    1
    24     7     8    1
    25     7    32    1
    26     7    33    1
    27     8    34    1
    28     8    35    1
    29     8    36    1
    30     9    10    2
    31     9    11    1
    32    11    12    1
    33    11    37    1
    34    11    38    1
    35    12    13    1
    36    13    14    1
    37    13    39    1
    38    13    40    1
    39    14    15    2
    40    14    16    1
    41    16    17    1
    42    16    20    1
    43    17    18    1
    44    17    41    1
    45    17    42    1
    46    18    19    1
    47    18    43    1
    48    18    44    1
    49    19    45    1
    50    19    46    1
    51    19    47    1
    52    20    21    1
    53    20    48    1
    54    20    49    1
    55    21    22    1
    56    21    50    1
    57    21    51    1
    58    22    52    1
    59    22    53    1
    60    22    54    1
    61    55    56    1
    62    55    76    1
    63    55    77    1
    64    55    78    1
    65    56    57    1
    66    56    79    1
    67    56    80    1
    68    57    58    1
    69    57    81    1
    70    57    82    1
    71    58    59    1
    72    58    62    1
    73    59    60    1
    74    59    83    1
    75    59    84    1
    76    60    61    1
    77    60    85    1
    78    60    86    1
    79    61    87    1
    80    61    88    1
    81    61    89    1
    82    62    63    2
    83    62    64    1
    84    64    65    1
    85    64    90    1
    86    64    91    1
    87    65    66    1
    88    66    67    1
    89    66    92    1
    90    66    93    1
    91    67    68    2
    92    67    69    1
    93    69    70    1
    94    69    73    1
    95    70    71    1
    96    70    94    1
    97    70    95    1
    98    71    72    1
    99    71    96    1
   100    71    97    1
   101    72    98    1
   102    72    99    1
   103    72   100    1
   104    73    74    1
   105    73   101    1
   106    73   102    1
   107    74    75    1
   108    74   103    1
   109    74   104    1
   110    75   105    1
   111    75   106    1
   112    75   107    1
   113   108   109    2
   114   108   110    1
   115   108   111    1
@<TRIPOS>SUBSTRUCTURE
     1 RES1      111 GROUP             0 ****  ****    0  
