@<TRIPOS>MOLECULE
ICIGOT_geomtry_0_nunpairedes_0_charge_2 Charge: 2 Unpaired_Electrons: 5 XTB_Unpaired_Electrons: 0 XTB_Charge: 2
   231   235     1     0     0
SMALL
NoCharges
****
Generated from Architector

@<TRIPOS>ATOM
     1 Dy1      -0.1004   -0.2116   -0.1529   Dy        1 RES1   0.0000
     2 C1       -3.4293   -4.2611   -1.8959   C.3       1 RES1   0.0000
     3 C2       -3.1967   -2.8980   -1.2559   C.3       1 RES1   0.0000
     4 C3       -4.4268   -2.3845   -0.5035   C.3       1 RES1   0.0000
     5 C4       -4.7552   -3.1171    0.8062   C.3       1 RES1   0.0000
     6 C5       -3.8716   -2.7906    2.0176   C.3       1 RES1   0.0000
     7 C6       -4.1486   -3.7774    3.1758   C.3       1 RES1   0.0000
     8 C7       -3.7052   -5.2166    2.9571   C.3       1 RES1   0.0000
     9 C8       -4.1325   -1.4120    2.6566   C.3       1 RES1   0.0000
    10 N1       -3.9861   -0.1808    1.8799   N.am      1 RES1   0.0000
    11 C9       -5.2186    0.5493    1.5712   C.3       1 RES1   0.0000
    12 C10      -5.8213    1.5656    2.5855   C.3       1 RES1   0.0000
    13 C11      -5.9330    1.0206    4.0209   C.3       1 RES1   0.0000
    14 C12      -4.6490    1.1185    4.8402   C.3       1 RES1   0.0000
    15 C13      -5.2116    2.9788    2.5993   C.3       1 RES1   0.0000
    16 C14      -5.3156    3.7347    1.2737   C.3       1 RES1   0.0000
    17 C15      -4.4377    4.9849    1.2525   C.3       1 RES1   0.0000
    18 C16      -4.4902    5.6785   -0.1034   C.3       1 RES1   0.0000
    19 C17      -2.7828    0.1972    1.4815   C.2       1 RES1   0.0000
    20 O1       -1.7514   -0.5086    1.5817   O.2       1 RES1   0.0000
    21 C18      -2.6101    1.6385    0.9883   C.3       1 RES1   0.0000
    22 O2       -1.2245    1.8028    0.7450   O.3       1 RES1   0.0000
    23 C19      -0.6144    2.9994    1.2110   C.3       1 RES1   0.0000
    24 C20       0.7886    2.5756    1.6703   C.2       1 RES1   0.0000
    25 O3        1.1843    1.4438    1.3040   O.2       1 RES1   0.0000
    26 N2        1.4689    3.3870    2.4697   N.am      1 RES1   0.0000
    27 C21       1.0507    4.7543    2.7742   C.3       1 RES1   0.0000
    28 C22       0.3995    5.1387    4.1352   C.3       1 RES1   0.0000
    29 C23      -0.8937    4.3934    4.5148   C.3       1 RES1   0.0000
    30 C24      -0.8429    2.8800    4.7342   C.3       1 RES1   0.0000
    31 C25       1.3981    5.3493    5.2975   C.3       1 RES1   0.0000
    32 C26       1.6648    4.2170    6.2915   C.3       1 RES1   0.0000
    33 C27       2.9055    4.5056    7.1420   C.3       1 RES1   0.0000
    34 C28       4.2138    4.4097    6.3643   C.3       1 RES1   0.0000
    35 C29       2.6769    2.9248    3.1479   C.3       1 RES1   0.0000
    36 C30       4.0529    3.1711    2.4924   C.3       1 RES1   0.0000
    37 C31       4.2261    4.6282    2.0413   C.3       1 RES1   0.0000
    38 C32       5.6557    5.0185    1.6750   C.3       1 RES1   0.0000
    39 C33       4.3330    2.1694    1.3646   C.3       1 RES1   0.0000
    40 C34       5.8086    1.7530    1.2699   C.3       1 RES1   0.0000
    41 C35       6.1847    0.5795    2.1756   C.3       1 RES1   0.0000
    42 C36       5.6344   -0.7532    1.6806   C.3       1 RES1   0.0000
    43 H1       -2.5514   -4.5736   -2.4568   H         1 RES1   0.0000
    44 H2       -4.2791   -4.2107   -2.5749   H         1 RES1   0.0000
    45 H3       -3.6438   -5.0170   -1.1446   H         1 RES1   0.0000
    46 H4       -2.9614   -2.1879   -2.0515   H         1 RES1   0.0000
    47 H5       -2.3321   -2.9237   -0.5864   H         1 RES1   0.0000
    48 H6       -5.2813   -2.5040   -1.1720   H         1 RES1   0.0000
    49 H7       -4.3032   -1.3160   -0.3239   H         1 RES1   0.0000
    50 H8       -4.6869   -4.1894    0.6183   H         1 RES1   0.0000
    51 H9       -5.7967   -2.9204    1.0724   H         1 RES1   0.0000
    52 H10      -2.8226   -2.8522    1.7171   H         1 RES1   0.0000
    53 H11      -5.2209   -3.7719    3.3793   H         1 RES1   0.0000
    54 H12      -3.6484   -3.4210    4.0809   H         1 RES1   0.0000
    55 H13      -4.1236   -5.6444    2.0509   H         1 RES1   0.0000
    56 H14      -4.0442   -5.8257    3.7911   H         1 RES1   0.0000
    57 H15      -2.6230   -5.2779    2.9135   H         1 RES1   0.0000
    58 H16      -3.4444   -1.3174    3.5017   H         1 RES1   0.0000
    59 H17      -5.1480   -1.4053    3.0500   H         1 RES1   0.0000
    60 H18      -5.9686   -0.2321    1.4142   H         1 RES1   0.0000
    61 H19      -5.0890    1.0520    0.6121   H         1 RES1   0.0000
    62 H20      -6.8455    1.6912    2.2140   H         1 RES1   0.0000
    63 H21      -6.2788   -0.0136    3.9923   H         1 RES1   0.0000
    64 H22      -6.7084    1.5871    4.5369   H         1 RES1   0.0000
    65 H23      -3.8014    0.7089    4.2983   H         1 RES1   0.0000
    66 H24      -4.7563    0.5694    5.7715   H         1 RES1   0.0000
    67 H25      -4.4329    2.1529    5.0944   H         1 RES1   0.0000
    68 H26      -4.1754    2.9468    2.9402   H         1 RES1   0.0000
    69 H27      -5.7517    3.5558    3.3522   H         1 RES1   0.0000
    70 H28      -6.3526    4.0288    1.1096   H         1 RES1   0.0000
    71 H29      -5.0254    3.0998    0.4364   H         1 RES1   0.0000
    72 H30      -3.4000    4.7087    1.4700   H         1 RES1   0.0000
    73 H31      -4.7653    5.6762    2.0308   H         1 RES1   0.0000
    74 H32      -4.1284    5.0194   -0.8915   H         1 RES1   0.0000
    75 H33      -3.8802    6.5787   -0.0984   H         1 RES1   0.0000
    76 H34      -5.5108    5.9635   -0.3439   H         1 RES1   0.0000
    77 H35      -2.9446    2.3084    1.7828   H         1 RES1   0.0000
    78 H36      -3.1800    1.8640    0.0761   H         1 RES1   0.0000
    79 H37      -1.1808    3.4152    2.0486   H         1 RES1   0.0000
    80 H38      -0.5583    3.7289    0.3888   H         1 RES1   0.0000
    81 H39       0.3824    5.0845    1.9800   H         1 RES1   0.0000
    82 H40       1.9535    5.3622    2.6966   H         1 RES1   0.0000
    83 H41       0.0624    6.1600    3.9039   H         1 RES1   0.0000
    84 H42      -1.6423    4.6212    3.7476   H         1 RES1   0.0000
    85 H43      -1.2640    4.8476    5.4352   H         1 RES1   0.0000
    86 H44      -0.3384    2.3571    3.9263   H         1 RES1   0.0000
    87 H45      -1.8596    2.4949    4.8133   H         1 RES1   0.0000
    88 H46      -0.3380    2.6336    5.6615   H         1 RES1   0.0000
    89 H47       1.0252    6.1918    5.8826   H         1 RES1   0.0000
    90 H48       2.3455    5.6735    4.8636   H         1 RES1   0.0000
    91 H49       1.8035    3.2614    5.7863   H         1 RES1   0.0000
    92 H50       0.8076    4.1185    6.9587   H         1 RES1   0.0000
    93 H51       2.9383    3.7876    7.9622   H         1 RES1   0.0000
    94 H52       2.8193    5.4990    7.5837   H         1 RES1   0.0000
    95 H53       4.3243    3.4262    5.9091   H         1 RES1   0.0000
    96 H54       5.0525    4.5658    7.0368   H         1 RES1   0.0000
    97 H55       4.2742    5.1638    5.5825   H         1 RES1   0.0000
    98 H56       2.5542    1.8489    3.2810   H         1 RES1   0.0000
    99 H57       2.6800    3.4062    4.1235   H         1 RES1   0.0000
   100 H58       4.7695    2.9766    3.2983   H         1 RES1   0.0000
   101 H59       3.9236    5.2804    2.8640   H         1 RES1   0.0000
   102 H60       3.5728    4.8227    1.1845   H         1 RES1   0.0000
   103 H61       6.3395    4.7452    2.4758   H         1 RES1   0.0000
   104 H62       5.7118    6.0960    1.5339   H         1 RES1   0.0000
   105 H63       5.9841    4.5473    0.7529   H         1 RES1   0.0000
   106 H64       4.0019    2.6300    0.4298   H         1 RES1   0.0000
   107 H65       3.7298    1.2748    1.5324   H         1 RES1   0.0000
   108 H66       6.4364    2.5979    1.5379   H         1 RES1   0.0000
   109 H67       6.0554    1.4831    0.2423   H         1 RES1   0.0000
   110 H68       5.8324    0.7635    3.1913   H         1 RES1   0.0000
   111 H69       7.2723    0.5140    2.2178   H         1 RES1   0.0000
   112 H70       4.5483   -0.7682    1.7567   H         1 RES1   0.0000
   113 H71       6.0343   -1.5699    2.2773   H         1 RES1   0.0000
   114 H72       5.9207   -0.9137    0.6415   H         1 RES1   0.0000
   115 C37       1.8271   -9.9875    1.5281   C.3       1 RES1   0.0000
   116 C38       0.5448   -9.2023    1.7610   C.3       1 RES1   0.0000
   117 C39       0.7344   -7.7099    1.5047   C.3       1 RES1   0.0000
   118 C40      -0.6006   -6.9765    1.5822   C.3       1 RES1   0.0000
   119 C41      -0.6469   -5.5598    0.9789   C.3       1 RES1   0.0000
   120 C42      -0.1178   -5.5142   -0.4605   C.3       1 RES1   0.0000
   121 C43      -0.7187   -6.5952   -1.3617   C.3       1 RES1   0.0000
   122 C44      -0.0378   -4.5002    1.9528   C.3       1 RES1   0.0000
   123 N3        1.2234   -3.8353    1.6046   N.am      1 RES1   0.0000
   124 C45       2.2957   -3.8911    2.6073   C.3       1 RES1   0.0000
   125 C46       3.3375   -5.0270    2.5822   C.3       1 RES1   0.0000
   126 C47       4.1546   -4.8795    3.8810   C.3       1 RES1   0.0000
   127 C48       5.1154   -6.0342    4.1344   C.3       1 RES1   0.0000
   128 C49       4.2441   -5.0438    1.3435   C.3       1 RES1   0.0000
   129 C50       3.5205   -5.5530    0.1031   C.3       1 RES1   0.0000
   130 C51       4.3350   -5.5021   -1.1860   C.3       1 RES1   0.0000
   131 C52       3.4669   -5.9054   -2.3753   C.3       1 RES1   0.0000
   132 C53       1.1687   -2.8596    0.7047   C.2       1 RES1   0.0000
   133 O4        0.1024   -2.4224    0.2156   O.2       1 RES1   0.0000
   134 C54       2.4562   -2.2615    0.1341   C.3       1 RES1   0.0000
   135 O5        2.2543   -0.8518    0.0373   O.3       1 RES1   0.0000
   136 C55       3.0662   -0.2079   -0.9436   C.3       1 RES1   0.0000
   137 C56       2.2551   -0.0333   -2.2404   C.2       1 RES1   0.0000
   138 O6        1.1041   -0.5131   -2.2330   O.2       1 RES1   0.0000
   139 N4        2.8171    0.6028   -3.2638   N.am      1 RES1   0.0000
   140 C57       2.1014    0.7005   -4.5528   C.3       1 RES1   0.0000
   141 C58       0.9245    1.6982   -4.7461   C.3       1 RES1   0.0000
   142 C59      -0.4573    1.0417   -4.5823   C.3       1 RES1   0.0000
   143 C60      -1.1794    0.8948   -5.9170   C.3       1 RES1   0.0000
   144 C61       1.0332    2.9859   -3.9277   C.3       1 RES1   0.0000
   145 C62       0.0059    4.0536   -4.3555   C.3       1 RES1   0.0000
   146 C63      -1.1055    4.3532   -3.3480   C.3       1 RES1   0.0000
   147 C64      -0.5718    5.0195   -2.0843   C.3       1 RES1   0.0000
   148 C65       4.2737    0.8059   -3.2987   C.3       1 RES1   0.0000
   149 C66       4.8898    1.9586   -2.4757   C.3       1 RES1   0.0000
   150 C67       4.3978    3.3259   -2.9502   C.3       1 RES1   0.0000
   151 C68       4.8869    4.5134   -2.1283   C.3       1 RES1   0.0000
   152 C69       6.4205    1.7951   -2.4709   C.3       1 RES1   0.0000
   153 C70       7.1570    1.9521   -3.8038   C.3       1 RES1   0.0000
   154 C71       7.5154    3.3903   -4.1756   C.3       1 RES1   0.0000
   155 C72       8.5623    3.4310   -5.2799   C.3       1 RES1   0.0000
   156 H73       1.6617  -11.0405    1.7341   H         1 RES1   0.0000
   157 H74       2.1526   -9.8907    0.4944   H         1 RES1   0.0000
   158 H75       2.6278   -9.6346    2.1745   H         1 RES1   0.0000
   159 H76      -0.2311   -9.5823    1.0922   H         1 RES1   0.0000
   160 H77       0.2008   -9.3538    2.7848   H         1 RES1   0.0000
   161 H78       1.4277   -7.2992    2.2402   H         1 RES1   0.0000
   162 H79       1.1749   -7.5848    0.5167   H         1 RES1   0.0000
   163 H80      -1.3451   -7.5788    1.0596   H         1 RES1   0.0000
   164 H81      -0.9266   -6.9312    2.6253   H         1 RES1   0.0000
   165 H82      -1.7109   -5.3090    0.9166   H         1 RES1   0.0000
   166 H83      -0.3562   -4.5368   -0.8848   H         1 RES1   0.0000
   167 H84       0.9621   -5.6331   -0.4626   H         1 RES1   0.0000
   168 H85      -1.7938   -6.6735   -1.2255   H         1 RES1   0.0000
   169 H86      -0.5290   -6.3531   -2.4061   H         1 RES1   0.0000
   170 H87      -0.2784   -7.5686   -1.1634   H         1 RES1   0.0000
   171 H88      -0.7693   -3.6973    2.0930   H         1 RES1   0.0000
   172 H89       0.1148   -4.9827    2.9172   H         1 RES1   0.0000
   173 H90       2.8285   -2.9404    2.5930   H         1 RES1   0.0000
   174 H91       1.7827   -3.9327    3.5765   H         1 RES1   0.0000
   175 H92       2.8048   -5.9785    2.6298   H         1 RES1   0.0000
   176 H93       4.7128   -3.9400    3.8618   H         1 RES1   0.0000
   177 H94       3.4604   -4.8296    4.7237   H         1 RES1   0.0000
   178 H95       5.9262   -6.0530    3.4123   H         1 RES1   0.0000
   179 H96       5.5544   -5.9377    5.1234   H         1 RES1   0.0000
   180 H97       4.5894   -6.9835    4.0887   H         1 RES1   0.0000
   181 H98       4.6700   -4.0524    1.1684   H         1 RES1   0.0000
   182 H99       5.0847   -5.7077    1.5343   H         1 RES1   0.0000
   183 H100      3.2215   -6.5878    0.2745   H         1 RES1   0.0000
   184 H101      2.6197   -4.9607   -0.0408   H         1 RES1   0.0000
   185 H102      4.7248   -4.4933   -1.3460   H         1 RES1   0.0000
   186 H103      5.1902   -6.1752   -1.1172   H         1 RES1   0.0000
   187 H104      2.6328   -5.2154   -2.5058   H         1 RES1   0.0000
   188 H105      4.0471   -5.9177   -3.2939   H         1 RES1   0.0000
   189 H106      3.0542   -6.9006   -2.2272   H         1 RES1   0.0000
   190 H107      3.3659   -2.4663    0.7102   H         1 RES1   0.0000
   191 H108      2.5561   -2.7137   -0.8635   H         1 RES1   0.0000
   192 H109      3.3132    0.7663   -0.5167   H         1 RES1   0.0000
   193 H110      3.9959   -0.7626   -1.1130   H         1 RES1   0.0000
   194 H111      2.8597    0.9530   -5.2932   H         1 RES1   0.0000
   195 H112      1.7309   -0.3035   -4.7797   H         1 RES1   0.0000
   196 H113      1.0156    1.9996   -5.7949   H         1 RES1   0.0000
   197 H114     -0.3566    0.0645   -4.1048   H         1 RES1   0.0000
   198 H115     -1.0743    1.6663   -3.9431   H         1 RES1   0.0000
   199 H116     -0.6148    0.2748   -6.6085   H         1 RES1   0.0000
   200 H117     -2.1532    0.4369   -5.7669   H         1 RES1   0.0000
   201 H118     -1.3273    1.8697   -6.3788   H         1 RES1   0.0000
   202 H119      0.9238    2.7394   -2.8713   H         1 RES1   0.0000
   203 H120      2.0248    3.4003   -4.0906   H         1 RES1   0.0000
   204 H121      0.5284    4.9921   -4.5484   H         1 RES1   0.0000
   205 H122     -0.4440    3.7470   -5.2986   H         1 RES1   0.0000
   206 H123     -1.8263    5.0241   -3.8202   H         1 RES1   0.0000
   207 H124     -1.6424    3.4451   -3.0804   H         1 RES1   0.0000
   208 H125     -0.1024    5.9710   -2.3273   H         1 RES1   0.0000
   209 H126     -1.3842    5.2110   -1.3841   H         1 RES1   0.0000
   210 H127      0.1718    4.3813   -1.6047   H         1 RES1   0.0000
   211 H128      4.7453   -0.1312   -2.9797   H         1 RES1   0.0000
   212 H129      4.5519    0.9506   -4.3428   H         1 RES1   0.0000
   213 H130      4.5726    1.8497   -1.4374   H         1 RES1   0.0000
   214 H131      4.6676    3.4734   -3.9948   H         1 RES1   0.0000
   215 H132      3.3138    3.3157   -2.8746   H         1 RES1   0.0000
   216 H133      5.9617    4.6411   -2.1920   H         1 RES1   0.0000
   217 H134      4.4278    5.4227   -2.5101   H         1 RES1   0.0000
   218 H135      4.6066    4.4039   -1.0827   H         1 RES1   0.0000
   219 H136      6.8375    2.5170   -1.7699   H         1 RES1   0.0000
   220 H137      6.6388    0.8003   -2.0683   H         1 RES1   0.0000
   221 H138      8.0882    1.3900   -3.7240   H         1 RES1   0.0000
   222 H139      6.5866    1.4983   -4.6127   H         1 RES1   0.0000
   223 H140      6.6333    3.9332   -4.5114   H         1 RES1   0.0000
   224 H141      7.9123    3.9050   -3.2991   H         1 RES1   0.0000
   225 H142      8.2251    2.8734   -6.1503   H         1 RES1   0.0000
   226 H143      8.7465    4.4574   -5.5850   H         1 RES1   0.0000
   227 H144      9.4993    3.0011   -4.9337   H         1 RES1   0.0000
   228 N5       -1.6159    0.9962   -1.5796   N.3       1 RES1   0.0000
   229 O7       -2.4949    1.7137   -1.9491   O.2       1 RES1   0.0000
   230 O8       -0.4431    1.3801   -1.5569   O.co2     1 RES1   0.0000
   231 O9       -1.8582   -0.1537   -1.1911   O.co2     1 RES1   0.0000
@<TRIPOS>BOND
     1     1    20    1
     2     1    22    1
     3     1    25    1
     4     1   133    1
     5     1   135    1
     6     1   138    1
     7     1   230    1
     8     1   231    1
     9     2     3    1
    10     2    43    1
    11     2    44    1
    12     2    45    1
    13     3     4    1
    14     3    46    1
    15     3    47    1
    16     4     5    1
    17     4    48    1
    18     4    49    1
    19     5     6    1
    20     5    50    1
    21     5    51    1
    22     6     7    1
    23     6     9    1
    24     6    52    1
    25     7     8    1
    26     7    53    1
    27     7    54    1
    28     8    55    1
    29     8    56    1
    30     8    57    1
    31     9    10    1
    32     9    58    1
    33     9    59    1
    34    10    11    1
    35    10    19    1
    36    11    12    1
    37    11    60    1
    38    11    61    1
    39    12    13    1
    40    12    15    1
    41    12    62    1
    42    13    14    1
    43    13    63    1
    44    13    64    1
    45    14    65    1
    46    14    66    1
    47    14    67    1
    48    15    16    1
    49    15    68    1
    50    15    69    1
    51    16    17    1
    52    16    70    1
    53    16    71    1
    54    17    18    1
    55    17    72    1
    56    17    73    1
    57    18    74    1
    58    18    75    1
    59    18    76    1
    60    19    20    2
    61    19    21    1
    62    21    22    1
    63    21    77    1
    64    21    78    1
    65    22    23    1
    66    23    24    1
    67    23    79    1
    68    23    80    1
    69    24    25    2
    70    24    26    1
    71    26    27    1
    72    26    35    1
    73    27    28    1
    74    27    81    1
    75    27    82    1
    76    28    29    1
    77    28    31    1
    78    28    83    1
    79    29    30    1
    80    29    84    1
    81    29    85    1
    82    30    86    1
    83    30    87    1
    84    30    88    1
    85    31    32    1
    86    31    89    1
    87    31    90    1
    88    32    33    1
    89    32    91    1
    90    32    92    1
    91    33    34    1
    92    33    93    1
    93    33    94    1
    94    34    95    1
    95    34    96    1
    96    34    97    1
    97    35    36    1
    98    35    98    1
    99    35    99    1
   100    36    37    1
   101    36    39    1
   102    36   100    1
   103    37    38    1
   104    37   101    1
   105    37   102    1
   106    38   103    1
   107    38   104    1
   108    38   105    1
   109    39    40    1
   110    39   106    1
   111    39   107    1
   112    40    41    1
   113    40   108    1
   114    40   109    1
   115    41    42    1
   116    41   110    1
   117    41   111    1
   118    42   112    1
   119    42   113    1
   120    42   114    1
   121   115   116    1
   122   115   156    1
   123   115   157    1
   124   115   158    1
   125   116   117    1
   126   116   159    1
   127   116   160    1
   128   117   118    1
   129   117   161    1
   130   117   162    1
   131   118   119    1
   132   118   163    1
   133   118   164    1
   134   119   120    1
   135   119   122    1
   136   119   165    1
   137   120   121    1
   138   120   166    1
   139   120   167    1
   140   121   168    1
   141   121   169    1
   142   121   170    1
   143   122   123    1
   144   122   171    1
   145   122   172    1
   146   123   124    1
   147   123   132    1
   148   124   125    1
   149   124   173    1
   150   124   174    1
   151   125   126    1
   152   125   128    1
   153   125   175    1
   154   126   127    1
   155   126   176    1
   156   126   177    1
   157   127   178    1
   158   127   179    1
   159   127   180    1
   160   128   129    1
   161   128   181    1
   162   128   182    1
   163   129   130    1
   164   129   183    1
   165   129   184    1
   166   130   131    1
   167   130   185    1
   168   130   186    1
   169   131   187    1
   170   131   188    1
   171   131   189    1
   172   132   133    2
   173   132   134    1
   174   134   135    1
   175   134   190    1
   176   134   191    1
   177   135   136    1
   178   136   137    1
   179   136   192    1
   180   136   193    1
   181   137   138    2
   182   137   139    1
   183   139   140    1
   184   139   148    1
   185   140   141    1
   186   140   194    1
   187   140   195    1
   188   141   142    1
   189   141   144    1
   190   141   196    1
   191   142   143    1
   192   142   197    1
   193   142   198    1
   194   143   199    1
   195   143   200    1
   196   143   201    1
   197   144   145    1
   198   144   202    1
   199   144   203    1
   200   145   146    1
   201   145   204    1
   202   145   205    1
   203   146   147    1
   204   146   206    1
   205   146   207    1
   206   147   208    1
   207   147   209    1
   208   147   210    1
   209   148   149    1
   210   148   211    1
   211   148   212    1
   212   149   150    1
   213   149   152    1
   214   149   213    1
   215   150   151    1
   216   150   214    1
   217   150   215    1
   218   151   216    1
   219   151   217    1
   220   151   218    1
   221   152   153    1
   222   152   219    1
   223   152   220    1
   224   153   154    1
   225   153   221    1
   226   153   222    1
   227   154   155    1
   228   154   223    1
   229   154   224    1
   230   155   225    1
   231   155   226    1
   232   155   227    1
   233   228   229    2
   234   228   230    1
   235   228   231    1
@<TRIPOS>SUBSTRUCTURE
     1 RES1      231 GROUP             0 ****  ****    0  
