@<TRIPOS>MOLECULE
ICIGOT_geomtry_0_nunpairedes_0_charge_3 Charge: 3 Unpaired_Electrons: 5 XTB_Unpaired_Electrons: 0 XTB_Charge: 3
   149   164     1     0     0
SMALL
NoCharges
****
Generated from Architector

@<TRIPOS>ATOM
     1 Dy1       0.0721    0.3970   -0.0564   Dy        1 RES1   0.0000
     2 C1       -3.2481    8.6985   -1.0951   C.3       1 RES1   0.0000
     3 C2       -2.0183    7.8781   -1.5055   C.3       1 RES1   0.0000
     4 C3       -2.3472    6.4207   -1.5204   C.ar      1 RES1   0.0000
     5 C4       -1.7892    5.5284   -0.6099   C.ar      1 RES1   0.0000
     6 C5       -2.1796    4.2015   -0.5708   C.ar      1 RES1   0.0000
     7 C6       -3.1323    3.7347   -1.4675   C.ar      1 RES1   0.0000
     8 N1       -3.6427    2.3940   -1.3867   N.am      1 RES1   0.0000
     9 C7       -5.1017    2.2945   -1.4245   C.3       1 RES1   0.0000
    10 C8       -5.7689    3.2686   -0.4561   C.3       1 RES1   0.0000
    11 C9       -2.7887    1.3959   -1.2095   C.2       1 RES1   0.0000
    12 O1       -1.5470    1.6061   -1.1524   O.2       1 RES1   0.0000
    13 C10      -3.1952   -0.0408   -0.9500   C.ar      1 RES1   0.0000
    14 C11      -4.2921   -0.7918   -1.4141   C.ar      1 RES1   0.0000
    15 C12      -4.5543   -2.0240   -0.8513   C.ar      1 RES1   0.0000
    16 C13      -3.7287   -2.5262    0.1746   C.ar      1 RES1   0.0000
    17 C14      -4.0120   -3.6446    1.0205   C.ar      1 RES1   0.0000
    18 C15      -3.2791   -3.8943    2.1436   C.ar      1 RES1   0.0000
    19 C16      -2.1591   -3.0783    2.5076   C.ar      1 RES1   0.0000
    20 C17      -1.5168   -3.0282    3.7645   C.ar      1 RES1   0.0000
    21 C18      -0.6987   -1.9643    4.0878   C.ar      1 RES1   0.0000
    22 C19      -0.3971   -1.0022    3.1003   C.ar      1 RES1   0.0000
    23 C20      -0.0021    0.4574    3.2099   C.2       1 RES1   0.0000
    24 O2       -0.1769    1.1524    2.1744   O.2       1 RES1   0.0000
    25 N2        0.2710    1.0451    4.3633   N.am      1 RES1   0.0000
    26 C21       0.2405    2.5135    4.3313   C.3       1 RES1   0.0000
    27 C22       0.8272    3.1799    5.5556   C.3       1 RES1   0.0000
    28 C23       0.5919    0.3532    5.5593   C.ar      1 RES1   0.0000
    29 C24      -0.2205    0.4504    6.6847   C.ar      1 RES1   0.0000
    30 C25       0.1261   -0.2291    7.8389   C.ar      1 RES1   0.0000
    31 C26       1.2760   -1.0121    7.9072   C.ar      1 RES1   0.0000
    32 C27       1.6293   -1.7442    9.1660   C.3       1 RES1   0.0000
    33 C28       1.6037   -3.2656    8.9714   C.3       1 RES1   0.0000
    34 C29       2.0647   -1.1170    6.7609   C.ar      1 RES1   0.0000
    35 C30       1.7300   -0.4476    5.5999   C.ar      1 RES1   0.0000
    36 N3       -0.8021   -1.1871    1.8496   N.ar      1 RES1   0.0000
    37 C31      -1.7389   -2.1030    1.5808   C.ar      1 RES1   0.0000
    38 C32      -2.5621   -1.7789    0.4429   C.ar      1 RES1   0.0000
    39 N4       -2.3123   -0.5851   -0.1191   N.ar      1 RES1   0.0000
    40 C33      -3.6515    4.5995   -2.4230   C.ar      1 RES1   0.0000
    41 C34      -3.2692    5.9229   -2.4379   C.ar      1 RES1   0.0000
    42 H1       -3.0034    9.7585   -1.0947   H         1 RES1   0.0000
    43 H2       -3.5754    8.4207   -0.0934   H         1 RES1   0.0000
    44 H3       -4.0740    8.5390   -1.7873   H         1 RES1   0.0000
    45 H4       -1.2050    8.0784   -0.8073   H         1 RES1   0.0000
    46 H5       -1.7067    8.1948   -2.5027   H         1 RES1   0.0000
    47 H6       -1.0473    5.8742    0.0916   H         1 RES1   0.0000
    48 H7       -1.7694    3.5284    0.1722   H         1 RES1   0.0000
    49 H8       -5.4032    1.2835   -1.1566   H         1 RES1   0.0000
    50 H9       -5.4360    2.5146   -2.4441   H         1 RES1   0.0000
    51 H10      -5.4230    3.1112    0.5638   H         1 RES1   0.0000
    52 H11      -6.8398    3.0929   -0.4797   H         1 RES1   0.0000
    53 H12      -5.5977    4.3043   -0.7384   H         1 RES1   0.0000
    54 H13      -4.9046   -0.4096   -2.2188   H         1 RES1   0.0000
    55 H14      -5.4223   -2.5822   -1.1676   H         1 RES1   0.0000
    56 H15      -4.8961   -4.2296    0.8118   H         1 RES1   0.0000
    57 H16      -3.5921   -4.6789    2.8170   H         1 RES1   0.0000
    58 H17      -1.7521   -3.7742    4.5094   H         1 RES1   0.0000
    59 H18      -0.3206   -1.8553    5.0931   H         1 RES1   0.0000
    60 H19      -0.8040    2.8079    4.1931   H         1 RES1   0.0000
    61 H20       0.7885    2.8098    3.4314   H         1 RES1   0.0000
    62 H21       0.2554    2.9606    6.4508   H         1 RES1   0.0000
    63 H22       0.7909    4.2521    5.3876   H         1 RES1   0.0000
    64 H23       1.8607    2.8776    5.7035   H         1 RES1   0.0000
    65 H24      -1.1318    1.0306    6.6466   H         1 RES1   0.0000
    66 H25      -0.5147   -0.1524    8.7023   H         1 RES1   0.0000
    67 H26       0.9268   -1.4806    9.9586   H         1 RES1   0.0000
    68 H27       2.6314   -1.4483    9.4855   H         1 RES1   0.0000
    69 H28       0.6140   -3.5961    8.6549   H         1 RES1   0.0000
    70 H29       1.8416   -3.7616    9.9103   H         1 RES1   0.0000
    71 H30       2.3342   -3.5814    8.2273   H         1 RES1   0.0000
    72 H31       2.9493   -1.7332    6.7724   H         1 RES1   0.0000
    73 H32       2.3453   -0.5332    4.7130   H         1 RES1   0.0000
    74 H33      -4.3652    4.2447   -3.1480   H         1 RES1   0.0000
    75 H34      -3.7180    6.5730   -3.1693   H         1 RES1   0.0000
    76 C35       4.7180    6.1991    4.4978   C.3       1 RES1   0.0000
    77 C36       3.4092    5.4189    4.3455   C.3       1 RES1   0.0000
    78 C37       3.6181    4.0775    3.7188   C.ar      1 RES1   0.0000
    79 C38       3.1335    3.8034    2.4464   C.ar      1 RES1   0.0000
    80 C39       3.2685    2.5528    1.8698   C.ar      1 RES1   0.0000
    81 C40       3.8403    1.5046    2.5880   C.ar      1 RES1   0.0000
    82 N5        3.8783    0.1454    2.1209   N.am      1 RES1   0.0000
    83 C41       5.0766   -0.6249    2.4399   C.3       1 RES1   0.0000
    84 C42       6.3224    0.1210    1.9746   C.3       1 RES1   0.0000
    85 C43       2.8683   -0.3019    1.3722   C.2       1 RES1   0.0000
    86 O3        2.0068    0.5006    0.9404   O.2       1 RES1   0.0000
    87 C44       2.5954   -1.7433    0.9656   C.ar      1 RES1   0.0000
    88 C45       3.1490   -2.9870    1.3218   C.ar      1 RES1   0.0000
    89 C46       2.7489   -4.1300    0.6548   C.ar      1 RES1   0.0000
    90 C47       1.7992   -4.0656   -0.3842   C.ar      1 RES1   0.0000
    91 C48       1.4114   -5.1111   -1.2785   C.ar      1 RES1   0.0000
    92 C49       0.6584   -4.8593   -2.3898   C.ar      1 RES1   0.0000
    93 C50       0.2043   -3.5360   -2.7027   C.ar      1 RES1   0.0000
    94 C51      -0.3136   -3.0620   -3.9261   C.ar      1 RES1   0.0000
    95 C52      -0.4480   -1.7062   -4.1594   C.ar      1 RES1   0.0000
    96 C53      -0.1949   -0.7931   -3.1235   C.ar      1 RES1   0.0000
    97 C54       0.1680    0.6750   -3.1443   C.2       1 RES1   0.0000
    98 O4        0.8414    1.0546   -2.1489   O.2       1 RES1   0.0000
    99 N6       -0.0161    1.4822   -4.1832   N.am      1 RES1   0.0000
   100 C55       0.6943    2.7655   -4.1674   C.3       1 RES1   0.0000
   101 C56      -0.2653    3.9467   -4.0951   C.3       1 RES1   0.0000
   102 C57      -0.9122    1.2957   -5.2640   C.ar      1 RES1   0.0000
   103 C58      -0.5415    1.7044   -6.5432   C.ar      1 RES1   0.0000
   104 C59      -1.4554    1.6786   -7.5772   C.ar      1 RES1   0.0000
   105 C60      -2.7623    1.2416   -7.3806   C.ar      1 RES1   0.0000
   106 C61      -3.7475    1.2861   -8.5077   C.3       1 RES1   0.0000
   107 C62      -4.2145   -0.1109   -8.9295   C.3       1 RES1   0.0000
   108 C63      -3.1036    0.7746   -6.1106   C.ar      1 RES1   0.0000
   109 C64      -2.2008    0.8054   -5.0637   C.ar      1 RES1   0.0000
   110 N7        0.0843   -1.2522   -1.9087   N.ar      1 RES1   0.0000
   111 C65       0.3891   -2.5405   -1.7265   C.ar      1 RES1   0.0000
   112 C66       1.2253   -2.7954   -0.5855   C.ar      1 RES1   0.0000
   113 N8        1.6015   -1.7082    0.0851   N.ar      1 RES1   0.0000
   114 C67       4.3739    1.7857    3.8442   C.ar      1 RES1   0.0000
   115 C68       4.2839    3.0507    4.3850   C.ar      1 RES1   0.0000
   116 H35       4.5187    7.1614    4.9652   H         1 RES1   0.0000
   117 H36       5.1747    6.3778    3.5259   H         1 RES1   0.0000
   118 H37       5.4232    5.6550    5.1230   H         1 RES1   0.0000
   119 H38       2.7148    6.0016    3.7368   H         1 RES1   0.0000
   120 H39       2.9741    5.2807    5.3373   H         1 RES1   0.0000
   121 H40       2.6338    4.5776    1.8840   H         1 RES1   0.0000
   122 H41       2.9334    2.4163    0.8526   H         1 RES1   0.0000
   123 H42       5.0320   -1.5669    1.9011   H         1 RES1   0.0000
   124 H43       5.1207   -0.8259    3.5164   H         1 RES1   0.0000
   125 H44       6.2773    0.2944    0.9015   H         1 RES1   0.0000
   126 H45       7.1946   -0.4881    2.1847   H         1 RES1   0.0000
   127 H46       6.4423    1.0764    2.4779   H         1 RES1   0.0000
   128 H47       3.8812   -3.0716    2.1075   H         1 RES1   0.0000
   129 H48       3.2042   -5.0756    0.9087   H         1 RES1   0.0000
   130 H49       1.7697   -6.1128   -1.0912   H         1 RES1   0.0000
   131 H50       0.4357   -5.6690   -3.0735   H         1 RES1   0.0000
   132 H51      -0.5205   -3.7546   -4.7260   H         1 RES1   0.0000
   133 H52      -0.7098   -1.3471   -5.1388   H         1 RES1   0.0000
   134 H53       1.3079    2.8235   -5.0686   H         1 RES1   0.0000
   135 H54       1.3557    2.7512   -3.3011   H         1 RES1   0.0000
   136 H55      -0.8945    3.9923   -4.9827   H         1 RES1   0.0000
   137 H56       0.3116    4.8667   -4.0303   H         1 RES1   0.0000
   138 H57      -0.8983    3.8692   -3.2121   H         1 RES1   0.0000
   139 H58       0.4673    2.0318   -6.7403   H         1 RES1   0.0000
   140 H59      -1.1456    2.0159   -8.5544   H         1 RES1   0.0000
   141 H60      -3.2916    1.7773   -9.3698   H         1 RES1   0.0000
   142 H61      -4.6165    1.8745   -8.2005   H         1 RES1   0.0000
   143 H62      -3.3711   -0.7122   -9.2670   H         1 RES1   0.0000
   144 H63      -4.9183   -0.0244   -9.7538   H         1 RES1   0.0000
   145 H64      -4.7095   -0.6273   -8.1084   H         1 RES1   0.0000
   146 H65      -4.0985    0.3961   -5.9332   H         1 RES1   0.0000
   147 H66      -2.4963    0.4698   -4.0766   H         1 RES1   0.0000
   148 H67       4.8481    1.0130    4.4265   H         1 RES1   0.0000
   149 H68       4.7288    3.2222    5.3520   H         1 RES1   0.0000
@<TRIPOS>BOND
     1     1    12    1
     2     1    24    1
     3     1    36    1
     4     1    39    1
     5     1    86    1
     6     1    98    1
     7     1   110    1
     8     1   113    1
     9     2     3    1
    10     2    42    1
    11     2    43    1
    12     2    44    1
    13     3     4    1
    14     3    45    1
    15     3    46    1
    16     4     5    1
    17     4    41    2
    18     5     6    2
    19     5    47    1
    20     6     7    1
    21     6    48    1
    22     7     8    1
    23     7    40    2
    24     8     9    1
    25     8    11    1
    26     9    10    1
    27     9    49    1
    28     9    50    1
    29    10    51    1
    30    10    52    1
    31    10    53    1
    32    11    12    2
    33    11    13    1
    34    13    14    1
    35    13    39    2
    36    14    15    2
    37    14    54    1
    38    15    16    1
    39    15    55    1
    40    16    17    1
    41    16    38    2
    42    17    18    2
    43    17    56    1
    44    18    19    1
    45    18    57    1
    46    19    20    1
    47    19    37    2
    48    20    21    2
    49    20    58    1
    50    21    22    1
    51    21    59    1
    52    22    23    1
    53    22    36    2
    54    23    24    2
    55    23    25    1
    56    25    26    1
    57    25    28    1
    58    26    27    1
    59    26    60    1
    60    26    61    1
    61    27    62    1
    62    27    63    1
    63    27    64    1
    64    28    29    1
    65    28    35    2
    66    29    30    2
    67    29    65    1
    68    30    31    1
    69    30    66    1
    70    31    32    1
    71    31    34    2
    72    32    33    1
    73    32    67    1
    74    32    68    1
    75    33    69    1
    76    33    70    1
    77    33    71    1
    78    34    35    1
    79    34    72    1
    80    35    73    1
    81    36    37    1
    82    37    38    1
    83    38    39    1
    84    40    41    1
    85    40    74    1
    86    41    75    1
    87    76    77    1
    88    76   116    1
    89    76   117    1
    90    76   118    1
    91    77    78    1
    92    77   119    1
    93    77   120    1
    94    78    79    1
    95    78   115    2
    96    79    80    2
    97    79   121    1
    98    80    81    1
    99    80   122    1
   100    81    82    1
   101    81   114    2
   102    82    83    1
   103    82    85    1
   104    83    84    1
   105    83   123    1
   106    83   124    1
   107    84   125    1
   108    84   126    1
   109    84   127    1
   110    85    86    2
   111    85    87    1
   112    87    88    1
   113    87   113    2
   114    88    89    2
   115    88   128    1
   116    89    90    1
   117    89   129    1
   118    90    91    1
   119    90   112    2
   120    91    92    2
   121    91   130    1
   122    92    93    1
   123    92   131    1
   124    93    94    1
   125    93   111    2
   126    94    95    2
   127    94   132    1
   128    95    96    1
   129    95   133    1
   130    96    97    1
   131    96   110    2
   132    97    98    2
   133    97    99    1
   134    99   100    1
   135    99   102    1
   136   100   101    1
   137   100   134    1
   138   100   135    1
   139   101   136    1
   140   101   137    1
   141   101   138    1
   142   102   103    1
   143   102   109    2
   144   103   104    2
   145   103   139    1
   146   104   105    1
   147   104   140    1
   148   105   106    1
   149   105   108    2
   150   106   107    1
   151   106   141    1
   152   106   142    1
   153   107   143    1
   154   107   144    1
   155   107   145    1
   156   108   109    1
   157   108   146    1
   158   109   147    1
   159   110   111    1
   160   111   112    1
   161   112   113    1
   162   114   115    1
   163   114   148    1
   164   115   149    1
@<TRIPOS>SUBSTRUCTURE
     1 RES1      149 GROUP             0 ****  ****    0  
