@<TRIPOS>MOLECULE
ICIGOT_geomtry_0_nunpairedes_0_charge_3 Charge: 3 Unpaired_Electrons: 5 XTB_Unpaired_Electrons: 0 XTB_Charge: 3
   173   176     1     0     0
SMALL
NoCharges
****
Generated from Architector

@<TRIPOS>ATOM
     1 Dy1      -0.6021   -0.0183    0.8434   Dy        1 RES1   0.0000
     2 C1        1.4763    3.5728   -8.6431   C.3       1 RES1   0.0000
     3 C2        0.0526    4.0839   -8.8244   C.3       1 RES1   0.0000
     4 C3       -0.3549    5.0637   -7.7182   C.3       1 RES1   0.0000
     5 C4       -1.1918    4.3777   -6.6408   C.3       1 RES1   0.0000
     6 C5       -1.5208    5.2933   -5.4526   C.3       1 RES1   0.0000
     7 C6       -2.8482    4.9674   -4.7590   C.3       1 RES1   0.0000
     8 C7       -2.8107    3.8419   -3.7222   C.3       1 RES1   0.0000
     9 C8       -1.9414    4.2101   -2.5096   C.3       1 RES1   0.0000
    10 N1       -2.3085    3.5778   -1.2395   N.am      1 RES1   0.0000
    11 C9       -3.0800    4.3453   -0.2535   C.3       1 RES1   0.0000
    12 C10      -4.4064    3.7041    0.1588   C.3       1 RES1   0.0000
    13 C11      -5.4913    3.8106   -0.9032   C.3       1 RES1   0.0000
    14 C12      -1.7973    2.4145   -0.8824   C.2       1 RES1   0.0000
    15 O1       -1.9030    1.8953    0.2547   O.2       1 RES1   0.0000
    16 C13      -1.0009    1.6209   -1.9356   C.3       1 RES1   0.0000
    17 O2       -0.9438    0.2397   -1.5681   O.3       1 RES1   0.0000
    18 C14      -2.0499   -0.5224   -2.0708   C.3       1 RES1   0.0000
    19 C15      -2.6320   -1.4127   -0.9595   C.2       1 RES1   0.0000
    20 O3       -2.4028   -1.0967    0.2336   O.2       1 RES1   0.0000
    21 N2       -3.3782   -2.4415   -1.3043   N.am      1 RES1   0.0000
    22 C16      -4.0755   -3.2186   -0.2814   C.3       1 RES1   0.0000
    23 C17      -5.4348   -2.6044    0.0617   C.3       1 RES1   0.0000
    24 C18      -6.2025   -3.5415    0.9844   C.3       1 RES1   0.0000
    25 C19      -3.6263   -2.8016   -2.6951   C.3       1 RES1   0.0000
    26 C20      -2.4832   -3.6266   -3.3134   C.3       1 RES1   0.0000
    27 C21      -2.5412   -5.1148   -2.9590   C.3       1 RES1   0.0000
    28 C22      -1.3704   -5.9161   -3.5535   C.3       1 RES1   0.0000
    29 C23      -0.2710   -6.2405   -2.5384   C.3       1 RES1   0.0000
    30 C24       0.3920   -4.9895   -1.9627   C.3       1 RES1   0.0000
    31 C25       1.5199   -5.2913   -0.9703   C.3       1 RES1   0.0000
    32 C26       1.0387   -5.7162    0.4137   C.3       1 RES1   0.0000
    33 H1        1.7442    2.8682   -9.4247   H         1 RES1   0.0000
    34 H2        1.6077    3.0976   -7.6709   H         1 RES1   0.0000
    35 H3        2.1660    4.4096   -8.7124   H         1 RES1   0.0000
    36 H4       -0.6569    3.2492   -8.8508   H         1 RES1   0.0000
    37 H5       -0.0062    4.5807   -9.7904   H         1 RES1   0.0000
    38 H6       -0.9414    5.8844   -8.1333   H         1 RES1   0.0000
    39 H7        0.5465    5.5061   -7.2841   H         1 RES1   0.0000
    40 H8       -0.6682    3.4864   -6.2921   H         1 RES1   0.0000
    41 H9       -2.1121    4.0449   -7.1179   H         1 RES1   0.0000
    42 H10      -1.5888    6.3193   -5.8033   H         1 RES1   0.0000
    43 H11      -0.7053    5.2609   -4.7270   H         1 RES1   0.0000
    44 H12      -3.5802    4.6811   -5.5206   H         1 RES1   0.0000
    45 H13      -3.2215    5.8655   -4.2603   H         1 RES1   0.0000
    46 H14      -2.4606    2.9212   -4.1975   H         1 RES1   0.0000
    47 H15      -3.8349    3.6763   -3.3900   H         1 RES1   0.0000
    48 H16      -2.0016    5.2892   -2.3592   H         1 RES1   0.0000
    49 H17      -0.8944    3.9714   -2.7081   H         1 RES1   0.0000
    50 H18      -3.2783    5.3317   -0.6653   H         1 RES1   0.0000
    51 H19      -2.4518    4.4567    0.6333   H         1 RES1   0.0000
    52 H20      -4.7529    4.2202    1.0557   H         1 RES1   0.0000
    53 H21      -4.2339    2.6620    0.4262   H         1 RES1   0.0000
    54 H22      -5.6237    4.8418   -1.2147   H         1 RES1   0.0000
    55 H23      -6.4417    3.4731   -0.5011   H         1 RES1   0.0000
    56 H24      -5.2687    3.2109   -1.7816   H         1 RES1   0.0000
    57 H25       0.0385    1.9756   -1.9482   H         1 RES1   0.0000
    58 H26      -1.4316    1.7334   -2.9359   H         1 RES1   0.0000
    59 H27      -1.7026   -1.1071   -2.9282   H         1 RES1   0.0000
    60 H28      -2.8604    0.1463   -2.3864   H         1 RES1   0.0000
    61 H29      -3.4533   -3.2670    0.6156   H         1 RES1   0.0000
    62 H30      -4.2249   -4.2276   -0.6666   H         1 RES1   0.0000
    63 H31      -6.0062   -2.4506   -0.8556   H         1 RES1   0.0000
    64 H32      -5.2887   -1.6345    0.5407   H         1 RES1   0.0000
    65 H33      -6.3919   -4.4881    0.4861   H         1 RES1   0.0000
    66 H34      -7.1575   -3.1075    1.2594   H         1 RES1   0.0000
    67 H35      -5.6458   -3.7357    1.8977   H         1 RES1   0.0000
    68 H36      -3.7963   -1.8884   -3.2666   H         1 RES1   0.0000
    69 H37      -4.5516   -3.3757   -2.7302   H         1 RES1   0.0000
    70 H38      -1.5228   -3.2084   -3.0066   H         1 RES1   0.0000
    71 H39      -2.5564   -3.5276   -4.3973   H         1 RES1   0.0000
    72 H40      -3.4791   -5.5122   -3.3440   H         1 RES1   0.0000
    73 H41      -2.5494   -5.2474   -1.8760   H         1 RES1   0.0000
    74 H42      -0.9401   -5.3724   -4.3969   H         1 RES1   0.0000
    75 H43      -1.7481   -6.8608   -3.9440   H         1 RES1   0.0000
    76 H44       0.4836   -6.8525   -3.0326   H         1 RES1   0.0000
    77 H45      -0.6973   -6.8361   -1.7301   H         1 RES1   0.0000
    78 H46      -0.3854   -4.4015   -1.4696   H         1 RES1   0.0000
    79 H47       0.8005   -4.4088   -2.7947   H         1 RES1   0.0000
    80 H48       2.1633   -4.4095   -0.8700   H         1 RES1   0.0000
    81 H49       2.1390   -6.0892   -1.3784   H         1 RES1   0.0000
    82 H50       0.4880   -4.9228    0.9283   H         1 RES1   0.0000
    83 H51       1.8889   -5.9918    1.0332   H         1 RES1   0.0000
    84 H52       0.3902   -6.5838    0.3463   H         1 RES1   0.0000
    85 C27       5.2683   -4.5346   -1.9739   C.3       1 RES1   0.0000
    86 C28       5.9327   -3.1614   -1.9417   C.3       1 RES1   0.0000
    87 C29       7.0975   -3.0209   -0.9539   C.3       1 RES1   0.0000
    88 C30       6.7111   -2.7235    0.5004   C.3       1 RES1   0.0000
    89 C31       6.3753   -3.9612    1.3322   C.3       1 RES1   0.0000
    90 C32       6.1508   -3.6528    2.8164   C.3       1 RES1   0.0000
    91 C33       4.9794   -2.7106    3.1290   C.3       1 RES1   0.0000
    92 C34       3.6474   -3.3124    2.6705   C.3       1 RES1   0.0000
    93 N3        2.4599   -2.5095    2.9588   N.am      1 RES1   0.0000
    94 C35       1.8387   -2.7051    4.2733   C.3       1 RES1   0.0000
    95 C36       1.6329   -1.4018    5.0516   C.3       1 RES1   0.0000
    96 C37       2.9408   -0.6616    5.3086   C.3       1 RES1   0.0000
    97 C38       1.8822   -1.7148    2.0792   C.2       1 RES1   0.0000
    98 O4        0.7431   -1.2063    2.2423   O.2       1 RES1   0.0000
    99 C39       2.6625   -1.3775    0.7948   C.3       1 RES1   0.0000
   100 O5        1.9631   -0.3913    0.0326   O.3       1 RES1   0.0000
   101 C40       2.6482    0.8425   -0.1684   C.3       1 RES1   0.0000
   102 C41       1.8585    1.9680    0.5049   C.2       1 RES1   0.0000
   103 O6        0.7472    1.6595    1.0085   O.2       1 RES1   0.0000
   104 N4        2.3240    3.1982    0.5385   N.am      1 RES1   0.0000
   105 C42       1.5525    4.2152    1.2576   C.3       1 RES1   0.0000
   106 C43       1.9708    4.2790    2.7314   C.3       1 RES1   0.0000
   107 C44       1.2830    5.4248    3.4651   C.3       1 RES1   0.0000
   108 C45       3.6138    3.6013   -0.0045   C.3       1 RES1   0.0000
   109 C46       3.6583    3.6510   -1.5353   C.3       1 RES1   0.0000
   110 C47       2.5723    4.5229   -2.1730   C.3       1 RES1   0.0000
   111 C48       2.6380    4.4879   -3.7066   C.3       1 RES1   0.0000
   112 C49       1.7599    3.4323   -4.3722   C.3       1 RES1   0.0000
   113 C50       2.1861    1.9857   -4.1189   C.3       1 RES1   0.0000
   114 C51       1.6728    0.9903   -5.1686   C.3       1 RES1   0.0000
   115 C52       0.1500    0.8735   -5.2213   C.3       1 RES1   0.0000
   116 H53       4.5051   -4.5622   -2.7512   H         1 RES1   0.0000
   117 H54       4.8006   -4.7892   -1.0254   H         1 RES1   0.0000
   118 H55       6.0055   -5.2992   -2.2023   H         1 RES1   0.0000
   119 H56       5.1808   -2.3888   -1.7370   H         1 RES1   0.0000
   120 H57       6.3242   -2.9691   -2.9421   H         1 RES1   0.0000
   121 H58       7.7185   -2.1930   -1.3019   H         1 RES1   0.0000
   122 H59       7.7085   -3.9232   -0.9879   H         1 RES1   0.0000
   123 H60       5.8725   -2.0181    0.5062   H         1 RES1   0.0000
   124 H61       7.5570   -2.2271    0.9805   H         1 RES1   0.0000
   125 H62       7.2199   -4.6487    1.2697   H         1 RES1   0.0000
   126 H63       5.5124   -4.4834    0.9168   H         1 RES1   0.0000
   127 H64       7.0609   -3.2006    3.2155   H         1 RES1   0.0000
   128 H65       5.9970   -4.5939    3.3482   H         1 RES1   0.0000
   129 H66       5.1533   -1.7434    2.6568   H         1 RES1   0.0000
   130 H67       4.9562   -2.5492    4.2057   H         1 RES1   0.0000
   131 H68       3.5161   -4.2669    3.1866   H         1 RES1   0.0000
   132 H69       3.6941   -3.5165    1.6011   H         1 RES1   0.0000
   133 H70       2.5007   -3.3530    4.8471   H         1 RES1   0.0000
   134 H71       0.8770   -3.2110    4.1350   H         1 RES1   0.0000
   135 H72       1.1856   -1.6721    6.0098   H         1 RES1   0.0000
   136 H73       0.9313   -0.7540    4.5172   H         1 RES1   0.0000
   137 H74       3.6348   -1.2850    5.8669   H         1 RES1   0.0000
   138 H75       2.7549    0.2276    5.9042   H         1 RES1   0.0000
   139 H76       3.4135   -0.3545    4.3771   H         1 RES1   0.0000
   140 H77       2.7791   -2.2681    0.1607   H         1 RES1   0.0000
   141 H78       3.6605   -1.0236    1.0734   H         1 RES1   0.0000
   142 H79       2.7037    1.0034   -1.2515   H         1 RES1   0.0000
   143 H80       3.6702    0.8082    0.2206   H         1 RES1   0.0000
   144 H81       0.4898    3.9629    1.1910   H         1 RES1   0.0000
   145 H82       1.7227    5.1788    0.7749   H         1 RES1   0.0000
   146 H83       3.0527    4.4165    2.7899   H         1 RES1   0.0000
   147 H84       1.7164    3.3308    3.2122   H         1 RES1   0.0000
   148 H85       1.5116    6.3766    2.9945   H         1 RES1   0.0000
   149 H86       1.6360    5.4696    4.4918   H         1 RES1   0.0000
   150 H87       0.2040    5.2951    3.4813   H         1 RES1   0.0000
   151 H88       4.3955    2.9305    0.3608   H         1 RES1   0.0000
   152 H89       3.8245    4.5936    0.3935   H         1 RES1   0.0000
   153 H90       3.6003    2.6509   -1.9516   H         1 RES1   0.0000
   154 H91       4.6400    4.0348   -1.8111   H         1 RES1   0.0000
   155 H92       2.7061    5.5576   -1.8431   H         1 RES1   0.0000
   156 H93       1.5770    4.1958   -1.8452   H         1 RES1   0.0000
   157 H94       3.6767    4.3437   -4.0084   H         1 RES1   0.0000
   158 H95       2.3288    5.4644   -4.0819   H         1 RES1   0.0000
   159 H96       1.7655    3.6339   -5.4419   H         1 RES1   0.0000
   160 H97       0.7298    3.5790   -4.0437   H         1 RES1   0.0000
   161 H98       1.8351    1.6616   -3.1281   H         1 RES1   0.0000
   162 H99       3.2794    1.9441   -4.1274   H         1 RES1   0.0000
   163 H100      2.1033    0.0048   -4.9623   H         1 RES1   0.0000
   164 H101      2.0550    1.3089   -6.1409   H         1 RES1   0.0000
   165 H102     -0.2173    0.1763   -4.4702   H         1 RES1   0.0000
   166 H103     -0.1656    0.5375   -6.2044   H         1 RES1   0.0000
   167 H104     -0.3104    1.8404   -5.0492   H         1 RES1   0.0000
   168 O7       -1.7529    0.2598    2.8953   O.3       1 RES1   0.0000
   169 H105     -1.9143   -0.4072    3.5819   H         1 RES1   0.0000
   170 H106     -2.2231    1.0577    3.1922   H         1 RES1   0.0000
   171 O8       -0.0300   -2.2629   -0.2819   O.3       1 RES1   0.0000
   172 H107      0.5629   -2.4231   -1.0346   H         1 RES1   0.0000
   173 H108     -0.0535   -3.1117    0.2024   H         1 RES1   0.0000
@<TRIPOS>BOND
     1     1    15    1
     2     1    17    1
     3     1    20    1
     4     1    98    1
     5     1   100    1
     6     1   103    1
     7     1   168    1
     8     1   171    1
     9     2     3    1
    10     2    33    1
    11     2    34    1
    12     2    35    1
    13     3     4    1
    14     3    36    1
    15     3    37    1
    16     4     5    1
    17     4    38    1
    18     4    39    1
    19     5     6    1
    20     5    40    1
    21     5    41    1
    22     6     7    1
    23     6    42    1
    24     6    43    1
    25     7     8    1
    26     7    44    1
    27     7    45    1
    28     8     9    1
    29     8    46    1
    30     8    47    1
    31     9    10    1
    32     9    48    1
    33     9    49    1
    34    10    11    1
    35    10    14    1
    36    11    12    1
    37    11    50    1
    38    11    51    1
    39    12    13    1
    40    12    52    1
    41    12    53    1
    42    13    54    1
    43    13    55    1
    44    13    56    1
    45    14    15    2
    46    14    16    1
    47    16    17    1
    48    16    57    1
    49    16    58    1
    50    17    18    1
    51    18    19    1
    52    18    59    1
    53    18    60    1
    54    19    20    2
    55    19    21    1
    56    21    22    1
    57    21    25    1
    58    22    23    1
    59    22    61    1
    60    22    62    1
    61    23    24    1
    62    23    63    1
    63    23    64    1
    64    24    65    1
    65    24    66    1
    66    24    67    1
    67    25    26    1
    68    25    68    1
    69    25    69    1
    70    26    27    1
    71    26    70    1
    72    26    71    1
    73    27    28    1
    74    27    72    1
    75    27    73    1
    76    28    29    1
    77    28    74    1
    78    28    75    1
    79    29    30    1
    80    29    76    1
    81    29    77    1
    82    30    31    1
    83    30    78    1
    84    30    79    1
    85    31    32    1
    86    31    80    1
    87    31    81    1
    88    32    82    1
    89    32    83    1
    90    32    84    1
    91    85    86    1
    92    85   116    1
    93    85   117    1
    94    85   118    1
    95    86    87    1
    96    86   119    1
    97    86   120    1
    98    87    88    1
    99    87   121    1
   100    87   122    1
   101    88    89    1
   102    88   123    1
   103    88   124    1
   104    89    90    1
   105    89   125    1
   106    89   126    1
   107    90    91    1
   108    90   127    1
   109    90   128    1
   110    91    92    1
   111    91   129    1
   112    91   130    1
   113    92    93    1
   114    92   131    1
   115    92   132    1
   116    93    94    1
   117    93    97    1
   118    94    95    1
   119    94   133    1
   120    94   134    1
   121    95    96    1
   122    95   135    1
   123    95   136    1
   124    96   137    1
   125    96   138    1
   126    96   139    1
   127    97    98    2
   128    97    99    1
   129    99   100    1
   130    99   140    1
   131    99   141    1
   132   100   101    1
   133   101   102    1
   134   101   142    1
   135   101   143    1
   136   102   103    2
   137   102   104    1
   138   104   105    1
   139   104   108    1
   140   105   106    1
   141   105   144    1
   142   105   145    1
   143   106   107    1
   144   106   146    1
   145   106   147    1
   146   107   148    1
   147   107   149    1
   148   107   150    1
   149   108   109    1
   150   108   151    1
   151   108   152    1
   152   109   110    1
   153   109   153    1
   154   109   154    1
   155   110   111    1
   156   110   155    1
   157   110   156    1
   158   111   112    1
   159   111   157    1
   160   111   158    1
   161   112   113    1
   162   112   159    1
   163   112   160    1
   164   113   114    1
   165   113   161    1
   166   113   162    1
   167   114   115    1
   168   114   163    1
   169   114   164    1
   170   115   165    1
   171   115   166    1
   172   115   167    1
   173   168   169    1
   174   168   170    1
   175   171   172    1
   176   171   173    1
@<TRIPOS>SUBSTRUCTURE
     1 RES1      173 GROUP             0 ****  ****    0  
