@<TRIPOS>MOLECULE
YEMSEP_geometry_0_nunpairedes_0_charge_2 Charge: 2 Unpaired_Electrons: 5 XTB_Unpaired_Electrons: 0 XTB_Charge: 2
   119   129     1     0     0
SMALL
NoCharges
****
Generated from Architector

@<TRIPOS>ATOM
     1 Dy1      -0.1390    0.2240    0.0337   Dy        1 RES1   0.0000
     2 C1        5.0154   -3.0033    0.7777   C.3       1 RES1   0.0000
     3 C2        3.5447   -3.4089    0.7241   C.3       1 RES1   0.0000
     4 N1        2.8893   -3.2051   -0.5690   N.am      1 RES1   0.0000
     5 C3        1.8337   -2.3836   -0.6559   C.2       1 RES1   0.0000
     6 O1        1.4785   -1.6567    0.2913   O.2       1 RES1   0.0000
     7 C4        0.9432   -2.3403   -1.8896   C.ar      1 RES1   0.0000
     8 C5        0.9512   -3.2474   -2.9439   C.ar      1 RES1   0.0000
     9 C6        0.0435   -3.0830   -3.9793   C.ar      1 RES1   0.0000
    10 C7       -0.8748   -2.0440   -3.9363   C.ar      1 RES1   0.0000
    11 C8       -0.8633   -1.1882   -2.8415   C.ar      1 RES1   0.0000
    12 C9       -1.7413    0.0208   -2.6047   C.2       1 RES1   0.0000
    13 O2       -1.4332    0.7153   -1.6067   O.2       1 RES1   0.0000
    14 N2       -2.7291    0.4397   -3.3871   N.am      1 RES1   0.0000
    15 C10      -3.3147    1.7377   -3.0306   C.3       1 RES1   0.0000
    16 C11      -4.2090    1.7201   -1.7948   C.3       1 RES1   0.0000
    17 C12      -3.3784   -0.2073   -4.4797   C.ar      1 RES1   0.0000
    18 C13      -3.4170    0.4554   -5.7075   C.ar      1 RES1   0.0000
    19 C14      -4.1407   -0.0779   -6.7557   C.ar      1 RES1   0.0000
    20 C15      -4.8212   -1.2757   -6.5857   C.ar      1 RES1   0.0000
    21 C16      -4.8054   -1.9145   -5.3629   C.ar      1 RES1   0.0000
    22 C17      -4.1054   -1.3800   -4.2850   C.ar      1 RES1   0.0000
    23 C18      -4.2047   -2.0559   -2.9551   C.3       1 RES1   0.0000
    24 N3        0.0412   -1.3490   -1.8581   N.ar      1 RES1   0.0000
    25 C19       3.5334   -3.9052   -1.6375   C.ar      1 RES1   0.0000
    26 C20       3.6634   -5.2903   -1.5847   C.ar      1 RES1   0.0000
    27 C21       4.3113   -5.9599   -2.6089   C.ar      1 RES1   0.0000
    28 C22       4.8289   -5.2502   -3.6809   C.ar      1 RES1   0.0000
    29 C23       4.7505   -3.8695   -3.7001   C.ar      1 RES1   0.0000
    30 C24       4.1296   -3.1780   -2.6695   C.ar      1 RES1   0.0000
    31 C25       4.1296   -1.6823   -2.6623   C.3       1 RES1   0.0000
    32 H1        5.3906   -3.2242    1.7749   H         1 RES1   0.0000
    33 H2        5.1620   -1.9442    0.5903   H         1 RES1   0.0000
    34 H3        5.6196   -3.5640    0.0678   H         1 RES1   0.0000
    35 H4        2.9647   -2.8563    1.4612   H         1 RES1   0.0000
    36 H5        3.4996   -4.4760    0.9546   H         1 RES1   0.0000
    37 H6        1.6559   -4.0558   -2.9573   H         1 RES1   0.0000
    38 H7        0.0477   -3.7579   -4.8238   H         1 RES1   0.0000
    39 H8       -1.5767   -1.9014   -4.7377   H         1 RES1   0.0000
    40 H9       -3.8994    2.0546   -3.8908   H         1 RES1   0.0000
    41 H10      -2.4970    2.4411   -2.8577   H         1 RES1   0.0000
    42 H11      -5.0597    1.0537   -1.9145   H         1 RES1   0.0000
    43 H12      -4.5774    2.7329   -1.6486   H         1 RES1   0.0000
    44 H13      -3.6643    1.4313   -0.8985   H         1 RES1   0.0000
    45 H14      -2.8886    1.3918   -5.8175   H         1 RES1   0.0000
    46 H15      -4.1838    0.4394   -7.7002   H         1 RES1   0.0000
    47 H16      -5.3720   -1.7019   -7.4054   H         1 RES1   0.0000
    48 H17      -5.3536   -2.8305   -5.1967   H         1 RES1   0.0000
    49 H18      -5.2525   -2.1443   -2.6746   H         1 RES1   0.0000
    50 H19      -3.6914   -1.5160   -2.1637   H         1 RES1   0.0000
    51 H20      -3.7978   -3.0637   -3.0089   H         1 RES1   0.0000
    52 H21       3.2543   -5.8361   -0.7472   H         1 RES1   0.0000
    53 H22       4.4085   -7.0333   -2.5795   H         1 RES1   0.0000
    54 H23       5.3040   -5.7687   -4.4960   H         1 RES1   0.0000
    55 H24       5.1783   -3.2979   -4.5106   H         1 RES1   0.0000
    56 H25       4.6645   -1.3155   -3.5312   H         1 RES1   0.0000
    57 H26       4.6295   -1.3014   -1.7730   H         1 RES1   0.0000
    58 H27       3.1240   -1.2657   -2.6826   H         1 RES1   0.0000
    59 C26       3.0467    3.5663   -1.5464   C.3       1 RES1   0.0000
    60 C27       3.9606    2.6381   -0.7546   C.3       1 RES1   0.0000
    61 N4        3.5097    2.3925    0.6176   N.am      1 RES1   0.0000
    62 C28       2.4458    1.6055    0.7831   C.2       1 RES1   0.0000
    63 O3        1.9316    1.0213   -0.1957   O.2       1 RES1   0.0000
    64 C29       1.7909    1.3953    2.1381   C.ar      1 RES1   0.0000
    65 C30       2.0361    2.0718    3.3298   C.ar      1 RES1   0.0000
    66 C31       1.2975    1.7091    4.4457   C.ar      1 RES1   0.0000
    67 C32       0.3232    0.7197    4.3713   C.ar      1 RES1   0.0000
    68 C33       0.0975    0.0948    3.1467   C.ar      1 RES1   0.0000
    69 C34      -0.9206   -0.9749    2.7281   C.2       1 RES1   0.0000
    70 O4       -0.9878   -1.2059    1.5014   O.2       1 RES1   0.0000
    71 N5       -1.6870   -1.6824    3.5592   N.am      1 RES1   0.0000
    72 C35      -1.7796   -1.6048    5.0104   C.3       1 RES1   0.0000
    73 C36      -2.7058   -0.5044    5.5322   C.3       1 RES1   0.0000
    74 C37      -2.5016   -2.7226    2.9689   C.ar      1 RES1   0.0000
    75 C38      -3.8872   -2.6337    3.0305   C.ar      1 RES1   0.0000
    76 C39      -4.6697   -3.6310    2.4771   C.ar      1 RES1   0.0000
    77 C40      -4.0781   -4.7201    1.8569   C.ar      1 RES1   0.0000
    78 C41      -2.7037   -4.8243    1.8302   C.ar      1 RES1   0.0000
    79 C42      -1.9003   -3.8393    2.3940   C.ar      1 RES1   0.0000
    80 C43      -0.4222   -4.0517    2.3575   C.3       1 RES1   0.0000
    81 N6        0.8441    0.4555    2.0938   N.ar      1 RES1   0.0000
    82 C44       4.4010    2.8438    1.6322   C.ar      1 RES1   0.0000
    83 C45       4.7655    4.1885    1.6535   C.ar      1 RES1   0.0000
    84 C46       5.6351    4.6538    2.6217   C.ar      1 RES1   0.0000
    85 C47       6.1525    3.7782    3.5656   C.ar      1 RES1   0.0000
    86 C48       5.8490    2.4334    3.4968   C.ar      1 RES1   0.0000
    87 C49       4.9916    1.9412    2.5185   C.ar      1 RES1   0.0000
    88 C50       4.7583    0.4644    2.4611   C.3       1 RES1   0.0000
    89 H28       3.4645    3.7070   -2.5417   H         1 RES1   0.0000
    90 H29       2.9519    4.5425   -1.0777   H         1 RES1   0.0000
    91 H30       2.0541    3.1324   -1.6437   H         1 RES1   0.0000
    92 H31       4.9621    3.0604   -0.6886   H         1 RES1   0.0000
    93 H32       4.0126    1.6739   -1.2655   H         1 RES1   0.0000
    94 H33       2.7629    2.8591    3.3919   H         1 RES1   0.0000
    95 H34       1.4777    2.1855    5.3988   H         1 RES1   0.0000
    96 H35      -0.2358    0.4908    5.2588   H         1 RES1   0.0000
    97 H36      -0.7823   -1.4911    5.4419   H         1 RES1   0.0000
    98 H37      -2.1660   -2.5735    5.3308   H         1 RES1   0.0000
    99 H38      -2.4346    0.4681    5.1309   H         1 RES1   0.0000
   100 H39      -2.6432   -0.4662    6.6186   H         1 RES1   0.0000
   101 H40      -3.7445   -0.6943    5.2772   H         1 RES1   0.0000
   102 H41      -4.3480   -1.7811    3.5027   H         1 RES1   0.0000
   103 H42      -5.7436   -3.5619    2.5304   H         1 RES1   0.0000
   104 H43      -4.6882   -5.4872    1.4103   H         1 RES1   0.0000
   105 H44      -2.2141   -5.6775    1.3820   H         1 RES1   0.0000
   106 H45      -0.1821   -5.0158    2.8016   H         1 RES1   0.0000
   107 H46       0.1252   -3.2804    2.8881   H         1 RES1   0.0000
   108 H47      -0.0832   -4.0648    1.3227   H         1 RES1   0.0000
   109 H48       4.3515    4.8545    0.9119   H         1 RES1   0.0000
   110 H49       5.9041    5.6969    2.6505   H         1 RES1   0.0000
   111 H50       6.7978    4.1438    4.3454   H         1 RES1   0.0000
   112 H51       6.2685    1.7267    4.1980   H         1 RES1   0.0000
   113 H52       5.7162   -0.0485    2.3969   H         1 RES1   0.0000
   114 H53       4.1532    0.1657    1.6095   H         1 RES1   0.0000
   115 H54       4.2664    0.1200    3.3694   H         1 RES1   0.0000
   116 N7       -1.4278    2.3505    0.5748   N.3       1 RES1   0.0000
   117 O5       -2.1414    3.2984    0.6062   O.2       1 RES1   0.0000
   118 O6       -0.2794    2.4095    0.1019   O.co2     1 RES1   0.0000
   119 O7       -1.7841    1.2525    1.0460   O.co2     1 RES1   0.0000
@<TRIPOS>BOND
     1     1     6    1
     2     1    13    1
     3     1    24    1
     4     1    63    1
     5     1    70    1
     6     1    81    1
     7     1   118    1
     8     1   119    1
     9     2     3    1
    10     2    32    1
    11     2    33    1
    12     2    34    1
    13     3     4    1
    14     3    35    1
    15     3    36    1
    16     4     5    1
    17     4    25    1
    18     5     6    2
    19     5     7    1
    20     7     8    1
    21     7    24    2
    22     8     9    2
    23     8    37    1
    24     9    10    1
    25     9    38    1
    26    10    11    2
    27    10    39    1
    28    11    12    1
    29    11    24    1
    30    12    13    2
    31    12    14    1
    32    14    15    1
    33    14    17    1
    34    15    16    1
    35    15    40    1
    36    15    41    1
    37    16    42    1
    38    16    43    1
    39    16    44    1
    40    17    18    1
    41    17    22    2
    42    18    19    2
    43    18    45    1
    44    19    20    1
    45    19    46    1
    46    20    21    2
    47    20    47    1
    48    21    22    1
    49    21    48    1
    50    22    23    1
    51    23    49    1
    52    23    50    1
    53    23    51    1
    54    25    26    1
    55    25    30    2
    56    26    27    2
    57    26    52    1
    58    27    28    1
    59    27    53    1
    60    28    29    2
    61    28    54    1
    62    29    30    1
    63    29    55    1
    64    30    31    1
    65    31    56    1
    66    31    57    1
    67    31    58    1
    68    59    60    1
    69    59    89    1
    70    59    90    1
    71    59    91    1
    72    60    61    1
    73    60    92    1
    74    60    93    1
    75    61    62    1
    76    61    82    1
    77    62    63    2
    78    62    64    1
    79    64    65    1
    80    64    81    2
    81    65    66    2
    82    65    94    1
    83    66    67    1
    84    66    95    1
    85    67    68    2
    86    67    96    1
    87    68    69    1
    88    68    81    1
    89    69    70    2
    90    69    71    1
    91    71    72    1
    92    71    74    1
    93    72    73    1
    94    72    97    1
    95    72    98    1
    96    73    99    1
    97    73   100    1
    98    73   101    1
    99    74    75    1
   100    74    79    2
   101    75    76    2
   102    75   102    1
   103    76    77    1
   104    76   103    1
   105    77    78    2
   106    77   104    1
   107    78    79    1
   108    78   105    1
   109    79    80    1
   110    80   106    1
   111    80   107    1
   112    80   108    1
   113    82    83    1
   114    82    87    2
   115    83    84    2
   116    83   109    1
   117    84    85    1
   118    84   110    1
   119    85    86    2
   120    85   111    1
   121    86    87    1
   122    86   112    1
   123    87    88    1
   124    88   113    1
   125    88   114    1
   126    88   115    1
   127   116   117    2
   128   116   118    1
   129   116   119    1
@<TRIPOS>SUBSTRUCTURE
     1 RES1      119 GROUP             0 ****  ****    0  
