@<TRIPOS>MOLECULE
ICIGOT_geomtry_0_nunpairedes_0_charge_3 Charge: 3 Unpaired_Electrons: 5 XTB_Unpaired_Electrons: 0 XTB_Charge: 3
    38    44     1     0     0
SMALL
NoCharges
****
Generated from Architector

@<TRIPOS>ATOM
     1 Dy1       0.4506   -0.5106    0.1544   Dy        1 RES1   0.0000
     2 O1       -0.4932    0.8357   -1.1900   O.2       1 RES1   0.0000
     3 C1       -0.2734    0.7886   -2.4084   C.2       1 RES1   0.0000
     4 O2       -0.0627    1.8704   -3.0632   O.2       1 RES1   0.0000
     5 C2       -0.2361   -0.6122   -3.0365   C.3       1 RES1   0.0000
     6 N1        0.2314   -1.5812   -1.9989   N.4       1 RES1   0.0000
     7 C3        1.6160   -2.0485   -2.3279   C.3       1 RES1   0.0000
     8 C4        2.6308   -0.8940   -2.2835   C.3       1 RES1   0.0000
     9 O3        2.4390   -0.1330   -1.0629   O.3       1 RES1   0.0000
    10 C5       -0.7154   -2.7149   -1.7780   C.3       1 RES1   0.0000
    11 C6       -1.9168   -2.3606   -0.8640   C.3       1 RES1   0.0000
    12 N2       -1.5698   -2.1305    0.5734   N.4       1 RES1   0.0000
    13 C7       -2.6636   -1.4315    1.2978   C.3       1 RES1   0.0000
    14 C8       -2.1404   -0.0845    1.8083   C.2       1 RES1   0.0000
    15 O4       -0.9471    0.1845    1.6389   O.2       1 RES1   0.0000
    16 O5       -2.9262    0.7490    2.3872   O.2       1 RES1   0.0000
    17 C9       -1.1121   -3.3444    1.3044   C.3       1 RES1   0.0000
    18 C10       0.3657   -3.2005    1.6974   C.2       1 RES1   0.0000
    19 O6        1.0181   -2.3080    1.1336   O.2       1 RES1   0.0000
    20 O7        0.9356   -3.9761    2.5431   O.3       1 RES1   0.0000
    21 H1        0.0934    1.8673   -4.0257   H         1 RES1   0.0000
    22 H2        0.4104   -0.6465   -3.9190   H         1 RES1   0.0000
    23 H3       -1.2579   -0.8524   -3.3656   H         1 RES1   0.0000
    24 H4        1.6565   -2.5106   -3.3254   H         1 RES1   0.0000
    25 H5        1.9201   -2.8001   -1.5867   H         1 RES1   0.0000
    26 H6        2.5345   -0.2243   -3.1511   H         1 RES1   0.0000
    27 H7        3.6395   -1.3276   -2.3017   H         1 RES1   0.0000
    28 H8        3.2250    0.4444   -0.9821   H         1 RES1   0.0000
    29 H9       -0.1381   -3.5385   -1.3480   H         1 RES1   0.0000
    30 H10      -1.1159   -3.0685   -2.7392   H         1 RES1   0.0000
    31 H11      -2.6664   -3.1634   -0.9545   H         1 RES1   0.0000
    32 H12      -2.3712   -1.4299   -1.2382   H         1 RES1   0.0000
    33 H13      -3.0248   -2.0218    2.1534   H         1 RES1   0.0000
    34 H14      -3.5423   -1.2729    0.6566   H         1 RES1   0.0000
    35 H15      -3.8731    0.5444    2.5130   H         1 RES1   0.0000
    36 H16      -1.2166   -4.2413    0.6794   H         1 RES1   0.0000
    37 H17      -1.7094   -3.5303    2.2087   H         1 RES1   0.0000
    38 H18       0.4504   -4.6874    3.0047   H         1 RES1   0.0000
@<TRIPOS>BOND
     1     1     2    1
     2     1     4    1
     3     1     6    1
     4     1     9    1
     5     1    12    1
     6     1    15    1
     7     1    16    1
     8     1    19    1
     9     2     3    2
    10     3     4    1
    11     3     5    1
    12     4    21    1
    13     5     6    1
    14     5    22    1
    15     5    23    1
    16     6     7    1
    17     6    10    1
    18     7     8    1
    19     7    24    1
    20     7    25    1
    21     8     9    1
    22     8    26    1
    23     8    27    1
    24     9    28    1
    25    10    11    1
    26    10    29    1
    27    10    30    1
    28    11    12    1
    29    11    31    1
    30    11    32    1
    31    12    13    1
    32    12    17    1
    33    13    14    1
    34    13    33    1
    35    13    34    1
    36    14    15    2
    37    14    16    1
    38    16    35    1
    39    17    18    1
    40    17    36    1
    41    17    37    1
    42    18    19    2
    43    18    20    1
    44    20    38    1
@<TRIPOS>SUBSTRUCTURE
     1 RES1       38 GROUP             0 ****  ****    0  
