@<TRIPOS>MOLECULE
ICIGOT_geomtry_0_nunpairedes_0_charge_3 Charge: 3 Unpaired_Electrons: 5 XTB_Unpaired_Electrons: 0 XTB_Charge: 3
   117   130     1     0     0
SMALL
NoCharges
****
Generated from Architector

@<TRIPOS>ATOM
     1 Dy1      -0.9148   -0.9630    0.6836   Dy        1 RES1   0.0000
     2 C1       -5.2347    6.5601    2.7073   C.3       1 RES1   0.0000
     3 C2       -4.6525    5.7003    3.8259   C.3       1 RES1   0.0000
     4 C3       -3.1903    5.3007    3.5741   C.3       1 RES1   0.0000
     5 C4       -2.8354    4.7939    2.1705   C.3       1 RES1   0.0000
     6 C5       -3.5552    3.4900    1.8133   C.3       1 RES1   0.0000
     7 C6       -3.8984    3.3507    0.3263   C.3       1 RES1   0.0000
     8 N1       -2.7697    2.9944   -0.5378   N.ar      1 RES1   0.0000
     9 C7       -2.6155    3.6594   -1.7519   C.ar      1 RES1   0.0000
    10 C8       -3.8912    4.0320   -2.4089   C.ar      1 RES1   0.0000
    11 C9       -4.5795    5.2262   -2.2602   C.ar      1 RES1   0.0000
    12 C10      -5.8443    5.3631   -2.8111   C.ar      1 RES1   0.0000
    13 C11      -6.4133    4.3222   -3.5265   C.ar      1 RES1   0.0000
    14 C12      -5.7098    3.1483   -3.7287   C.ar      1 RES1   0.0000
    15 C13      -4.4563    3.0015   -3.1660   C.ar      1 RES1   0.0000
    16 C14      -1.4408    3.6636   -2.4605   C.ar      1 RES1   0.0000
    17 C15      -1.3745    4.5100   -3.6734   C.ar      1 RES1   0.0000
    18 C16      -1.4183    4.0266   -4.9812   C.ar      1 RES1   0.0000
    19 C17      -1.5843    4.9060   -6.0433   C.ar      1 RES1   0.0000
    20 C18      -1.6856    6.2670   -5.8132   C.ar      1 RES1   0.0000
    21 C19      -1.5405    6.7558   -4.5254   C.ar      1 RES1   0.0000
    22 C20      -1.3892    5.8856   -3.4634   C.ar      1 RES1   0.0000
    23 C21      -0.3786    2.8344   -2.0142   C.ar      1 RES1   0.0000
    24 C22       0.8919    2.7704   -2.6030   C.ar      1 RES1   0.0000
    25 C23       1.7345    1.7172   -2.2751   C.ar      1 RES1   0.0000
    26 C24       3.0500    1.5070   -2.8097   C.ar      1 RES1   0.0000
    27 C25       3.7808    0.3959   -2.5267   C.ar      1 RES1   0.0000
    28 C26       3.2674   -0.6443   -1.6725   C.ar      1 RES1   0.0000
    29 C27       3.9591   -1.7819   -1.2411   C.ar      1 RES1   0.0000
    30 C28       3.3504   -2.6472   -0.3027   C.ar      1 RES1   0.0000
    31 C29       3.9898   -3.5680    0.5879   C.ar      1 RES1   0.0000
    32 C30       5.3985   -3.9757    0.5101   C.ar      1 RES1   0.0000
    33 C31       6.4595   -3.0691    0.4713   C.ar      1 RES1   0.0000
    34 C32       7.7659   -3.5244    0.5471   C.ar      1 RES1   0.0000
    35 C33       8.0246   -4.8849    0.6349   C.ar      1 RES1   0.0000
    36 C34       6.9738   -5.7909    0.6373   C.ar      1 RES1   0.0000
    37 C35       5.6689   -5.3454    0.5743   C.ar      1 RES1   0.0000
    38 C36       3.2652   -4.0007    1.6902   C.ar      1 RES1   0.0000
    39 C37       3.9133   -4.5806    2.8806   C.ar      1 RES1   0.0000
    40 C38       3.6004   -5.8758    3.2924   C.ar      1 RES1   0.0000
    41 C39       4.1272   -6.3582    4.4749   C.ar      1 RES1   0.0000
    42 C40       4.9196   -5.5495    5.2706   C.ar      1 RES1   0.0000
    43 C41       5.2294   -4.2621    4.8699   C.ar      1 RES1   0.0000
    44 C42       4.7313   -3.7771    3.6748   C.ar      1 RES1   0.0000
    45 N2        1.9112   -3.7846    1.8200   N.ar      1 RES1   0.0000
    46 C43       1.2670   -3.6741    3.1227   C.3       1 RES1   0.0000
    47 C44       1.2510   -2.1759    3.4822   C.3       1 RES1   0.0000
    48 C45       0.2543   -1.8575    4.5840   C.3       1 RES1   0.0000
    49 C46      -1.2051   -1.8225    4.1102   C.3       1 RES1   0.0000
    50 C47      -2.1495   -2.1835    5.2740   C.3       1 RES1   0.0000
    51 C48      -1.9798   -1.3375    6.5298   C.3       1 RES1   0.0000
    52 C49       1.1807   -3.2206    0.8372   C.ar      1 RES1   0.0000
    53 O1       -0.0771   -3.0267    0.9449   O.2       1 RES1   0.0000
    54 C50       1.9509   -2.4905   -0.1248   C.ar      1 RES1   0.0000
    55 N3        1.2711   -1.4141   -0.5390   N.ar      1 RES1   0.0000
    56 C51       1.9412   -0.4738   -1.1918   C.ar      1 RES1   0.0000
    57 C52       1.2145    0.7442   -1.3864   C.ar      1 RES1   0.0000
    58 N4        0.0667    0.8579   -0.7160   N.ar      1 RES1   0.0000
    59 C53      -0.7159    1.9048   -0.9983   C.ar      1 RES1   0.0000
    60 C54      -1.9404    1.9827   -0.2280   C.ar      1 RES1   0.0000
    61 O2       -2.2005    1.0821    0.6423   O.2       1 RES1   0.0000
    62 H1       -6.0814    7.1415    3.0618   H         1 RES1   0.0000
    63 H2       -5.5830    5.9486    1.8768   H         1 RES1   0.0000
    64 H3       -4.4829    7.2597    2.3470   H         1 RES1   0.0000
    65 H4       -5.2792    4.8218    4.0049   H         1 RES1   0.0000
    66 H5       -4.6613    6.2696    4.7575   H         1 RES1   0.0000
    67 H6       -2.8988    4.5292    4.2860   H         1 RES1   0.0000
    68 H7       -2.5692    6.1752    3.7737   H         1 RES1   0.0000
    69 H8       -1.7526    4.6573    2.1134   H         1 RES1   0.0000
    70 H9       -3.0869    5.5620    1.4451   H         1 RES1   0.0000
    71 H10      -4.5024    3.4779    2.3507   H         1 RES1   0.0000
    72 H11      -2.9873    2.6271    2.1608   H         1 RES1   0.0000
    73 H12      -4.2895    4.3067   -0.0231   H         1 RES1   0.0000
    74 H13      -4.6857    2.6042    0.1951   H         1 RES1   0.0000
    75 H14      -4.1270    6.0369   -1.7109   H         1 RES1   0.0000
    76 H15      -6.3958    6.2783   -2.6659   H         1 RES1   0.0000
    77 H16      -7.4117    4.4191   -3.9142   H         1 RES1   0.0000
    78 H17      -6.1363    2.3364   -4.2995   H         1 RES1   0.0000
    79 H18      -3.9111    2.0773   -3.2977   H         1 RES1   0.0000
    80 H19      -1.3938    2.9633   -5.1716   H         1 RES1   0.0000
    81 H20      -1.6565    4.5275   -7.0540   H         1 RES1   0.0000
    82 H21      -1.8821    6.9430   -6.6302   H         1 RES1   0.0000
    83 H22      -1.5427    7.8168   -4.3394   H         1 RES1   0.0000
    84 H23      -1.2936    6.2586   -2.4544   H         1 RES1   0.0000
    85 H24       1.1775    3.5054   -3.3387   H         1 RES1   0.0000
    86 H25       3.4256    2.2718   -3.4729   H         1 RES1   0.0000
    87 H26       4.7697    0.2576   -2.9426   H         1 RES1   0.0000
    88 H27       4.9745   -1.9656   -1.5717   H         1 RES1   0.0000
    89 H28       6.2595   -2.0073    0.4508   H         1 RES1   0.0000
    90 H29       8.5830   -2.8149    0.5536   H         1 RES1   0.0000
    91 H30       9.0458   -5.2254    0.7283   H         1 RES1   0.0000
    92 H31       7.1782   -6.8468    0.6962   H         1 RES1   0.0000
    93 H32       4.8555   -6.0558    0.5520   H         1 RES1   0.0000
    94 H33       2.9473   -6.4969    2.6968   H         1 RES1   0.0000
    95 H34       3.9177   -7.3695    4.7788   H         1 RES1   0.0000
    96 H35       5.2880   -5.9193    6.2094   H         1 RES1   0.0000
    97 H36       5.8480   -3.6323    5.4907   H         1 RES1   0.0000
    98 H37       4.9427   -2.7613    3.3779   H         1 RES1   0.0000
    99 H38       1.8569   -4.2262    3.8510   H         1 RES1   0.0000
   100 H39       0.2611   -4.0909    3.0470   H         1 RES1   0.0000
   101 H40       1.0082   -1.5299    2.5967   H         1 RES1   0.0000
   102 H41       2.2598   -1.9068    3.7976   H         1 RES1   0.0000
   103 H42       0.5251   -0.8971    5.0238   H         1 RES1   0.0000
   104 H43       0.3611   -2.6227    5.3521   H         1 RES1   0.0000
   105 H44      -1.3588   -2.5813    3.3129   H         1 RES1   0.0000
   106 H45      -1.4434   -0.8028    3.7139   H         1 RES1   0.0000
   107 H46      -1.9535   -3.2260    5.5279   H         1 RES1   0.0000
   108 H47      -3.1814   -2.1133    4.9343   H         1 RES1   0.0000
   109 H48      -0.9630   -1.3882    6.9064   H         1 RES1   0.0000
   110 H49      -2.6369   -1.7210    7.3055   H         1 RES1   0.0000
   111 H50      -2.2480   -0.3019    6.3443   H         1 RES1   0.0000
   112 O3       -3.2337   -1.5767    1.0460   O.3       1 RES1   0.0000
   113 H51      -3.9202   -0.8878    0.9916   H         1 RES1   0.0000
   114 H52      -3.6991   -2.3410    1.4260   H         1 RES1   0.0000
   115 O4       -1.9741   -1.0922   -1.6066   O.3       1 RES1   0.0000
   116 H53      -1.7227   -1.6044   -2.3884   H         1 RES1   0.0000
   117 H54      -2.6880   -0.5011   -1.8988   H         1 RES1   0.0000
@<TRIPOS>BOND
     1     1     8    1
     2     1    45    1
     3     1    53    1
     4     1    55    1
     5     1    58    1
     6     1    61    1
     7     1   112    1
     8     1   115    1
     9     2     3    1
    10     2    62    1
    11     2    63    1
    12     2    64    1
    13     3     4    1
    14     3    65    1
    15     3    66    1
    16     4     5    1
    17     4    67    1
    18     4    68    1
    19     5     6    1
    20     5    69    1
    21     5    70    1
    22     6     7    1
    23     6    71    1
    24     6    72    1
    25     7     8    1
    26     7    73    1
    27     7    74    1
    28     8     9    1
    29     8    60    1
    30     9    10    1
    31     9    16    2
    32    10    11    1
    33    10    15    2
    34    11    12    2
    35    11    75    1
    36    12    13    1
    37    12    76    1
    38    13    14    2
    39    13    77    1
    40    14    15    1
    41    14    78    1
    42    15    79    1
    43    16    17    1
    44    16    23    1
    45    17    18    1
    46    17    22    2
    47    18    19    2
    48    18    80    1
    49    19    20    1
    50    19    81    1
    51    20    21    2
    52    20    82    1
    53    21    22    1
    54    21    83    1
    55    22    84    1
    56    23    24    1
    57    23    59    2
    58    24    25    2
    59    24    85    1
    60    25    26    1
    61    25    57    1
    62    26    27    2
    63    26    86    1
    64    27    28    1
    65    27    87    1
    66    28    29    1
    67    28    56    2
    68    29    30    2
    69    29    88    1
    70    30    31    1
    71    30    54    1
    72    31    32    1
    73    31    38    2
    74    32    33    1
    75    32    37    2
    76    33    34    2
    77    33    89    1
    78    34    35    1
    79    34    90    1
    80    35    36    2
    81    35    91    1
    82    36    37    1
    83    36    92    1
    84    37    93    1
    85    38    39    1
    86    38    45    1
    87    39    40    1
    88    39    44    2
    89    40    41    2
    90    40    94    1
    91    41    42    1
    92    41    95    1
    93    42    43    2
    94    42    96    1
    95    43    44    1
    96    43    97    1
    97    44    98    1
    98    45    46    1
    99    45    52    1
   100    46    47    1
   101    46    99    1
   102    46   100    1
   103    47    48    1
   104    47   101    1
   105    47   102    1
   106    48    49    1
   107    48   103    1
   108    48   104    1
   109    49    50    1
   110    49   105    1
   111    49   106    1
   112    50    51    1
   113    50   107    1
   114    50   108    1
   115    51   109    1
   116    51   110    1
   117    51   111    1
   118    52    53    2
   119    52    54    1
   120    54    55    2
   121    55    56    1
   122    56    57    1
   123    57    58    2
   124    58    59    1
   125    59    60    1
   126    60    61    2
   127   112   113    1
   128   112   114    1
   129   115   116    1
   130   115   117    1
@<TRIPOS>SUBSTRUCTURE
     1 RES1      117 GROUP             0 ****  ****    0  
