@<TRIPOS>MOLECULE
ICIGOT_geomtry_0_nunpairedes_0_charge_3 Charge: 3 Unpaired_Electrons: 5 XTB_Unpaired_Electrons: 0 XTB_Charge: 3
   233   236     1     0     0
SMALL
NoCharges
****
Generated from Architector

@<TRIPOS>ATOM
     1 Dy1      -0.1466   -0.2635    0.1624   Dy        1 RES1   0.0000
     2 C1       -3.2721   -3.6507    3.7707   C.3       1 RES1   0.0000
     3 C2       -3.8398   -2.9238    2.5546   C.3       1 RES1   0.0000
     4 C3       -4.2911   -3.9083    1.4732   C.3       1 RES1   0.0000
     5 C4       -5.1973   -3.3108    0.3955   C.3       1 RES1   0.0000
     6 C5       -4.5575   -2.2285   -0.4792   C.3       1 RES1   0.0000
     7 C6       -3.6061   -2.8100   -1.5316   C.3       1 RES1   0.0000
     8 N1       -3.0771   -1.7907   -2.4477   N.am      1 RES1   0.0000
     9 C7       -3.6047   -1.7437   -3.8037   C.3       1 RES1   0.0000
    10 C8       -3.2996   -2.9309   -4.7369   C.3       1 RES1   0.0000
    11 C9       -1.8515   -3.4230   -4.9441   C.3       1 RES1   0.0000
    12 C10      -1.4117   -4.3128   -3.7812   C.3       1 RES1   0.0000
    13 C11      -0.8214   -2.3185   -5.2457   C.3       1 RES1   0.0000
    14 C12       0.4084   -2.8424   -6.0018   C.3       1 RES1   0.0000
    15 C13       1.6066   -1.8911   -5.9525   C.3       1 RES1   0.0000
    16 C14       2.8639   -2.4745   -6.6249   C.3       1 RES1   0.0000
    17 C15       2.8306   -2.2602   -8.1347   C.3       1 RES1   0.0000
    18 C16       4.1320   -1.8528   -6.0357   C.3       1 RES1   0.0000
    19 C17      -2.2651   -0.8931   -1.9243   C.2       1 RES1   0.0000
    20 O1       -1.9664   -0.9359   -0.7030   O.2       1 RES1   0.0000
    21 C18      -1.6906    0.2617   -2.7618   C.3       1 RES1   0.0000
    22 O2       -0.4745    0.7502   -2.1733   O.3       1 RES1   0.0000
    23 C19      -0.3285    2.1716   -2.2549   C.3       1 RES1   0.0000
    24 C20      -0.7809    2.7588   -0.9039   C.2       1 RES1   0.0000
    25 O3       -0.8487    1.9377    0.0433   O.2       1 RES1   0.0000
    26 N2       -1.1021    4.0322   -0.7947   N.am      1 RES1   0.0000
    27 C21      -0.9513    4.9932   -1.8851   C.3       1 RES1   0.0000
    28 C22      -2.1742    5.0953   -2.8074   C.3       1 RES1   0.0000
    29 C23      -3.4573    5.6266   -2.1625   C.3       1 RES1   0.0000
    30 C24      -3.3833    7.0988   -1.7552   C.3       1 RES1   0.0000
    31 C25      -4.6931    7.5742   -1.1236   C.3       1 RES1   0.0000
    32 C26      -4.6234    9.0362   -0.7055   C.3       1 RES1   0.0000
    33 C27      -1.7204    4.5010    0.4507   C.3       1 RES1   0.0000
    34 C28      -0.8236    4.3550    1.6924   C.3       1 RES1   0.0000
    35 C29      -1.5652    3.6262    2.8266   C.3       1 RES1   0.0000
    36 C30      -0.5597    3.0598    3.8221   C.3       1 RES1   0.0000
    37 C31      -2.6010    4.5418    3.4911   C.3       1 RES1   0.0000
    38 C32      -3.4895    3.9143    4.5732   C.3       1 RES1   0.0000
    39 C33      -4.7065    3.1230    4.0790   C.3       1 RES1   0.0000
    40 C34      -4.4645    1.7612    3.4116   C.3       1 RES1   0.0000
    41 C35      -3.7406    0.8024    4.3597   C.3       1 RES1   0.0000
    42 C36      -5.7971    1.1447    2.9841   C.3       1 RES1   0.0000
    43 H1       -2.8523   -2.9474    4.4861   H         1 RES1   0.0000
    44 H2       -2.4901   -4.3395    3.4633   H         1 RES1   0.0000
    45 H3       -4.0455   -4.2175    4.2811   H         1 RES1   0.0000
    46 H4       -3.0559   -2.2752    2.1343   H         1 RES1   0.0000
    47 H5       -4.6848   -2.3050    2.8689   H         1 RES1   0.0000
    48 H6       -4.8399   -4.7163    1.9580   H         1 RES1   0.0000
    49 H7       -3.4044   -4.3523    1.0178   H         1 RES1   0.0000
    50 H8       -6.0715   -2.8747    0.8799   H         1 RES1   0.0000
    51 H9       -5.5471   -4.1284   -0.2360   H         1 RES1   0.0000
    52 H10      -4.0223   -1.5156    0.1495   H         1 RES1   0.0000
    53 H11      -5.3541   -1.6920   -0.9946   H         1 RES1   0.0000
    54 H12      -4.1349   -3.5488   -2.1295   H         1 RES1   0.0000
    55 H13      -2.7574   -3.2953   -1.0402   H         1 RES1   0.0000
    56 H14      -3.2764   -0.8196   -4.2719   H         1 RES1   0.0000
    57 H15      -4.6941   -1.7008   -3.7160   H         1 RES1   0.0000
    58 H16      -3.6965   -2.6206   -5.7056   H         1 RES1   0.0000
    59 H17      -3.8872   -3.7988   -4.4311   H         1 RES1   0.0000
    60 H18      -1.9011   -4.0623   -5.8323   H         1 RES1   0.0000
    61 H19      -1.3355   -3.7479   -2.8551   H         1 RES1   0.0000
    62 H20      -0.4496   -4.7589   -4.0111   H         1 RES1   0.0000
    63 H21      -2.1244   -5.1221   -3.6374   H         1 RES1   0.0000
    64 H22      -0.4925   -1.8689   -4.3021   H         1 RES1   0.0000
    65 H23      -1.3040   -1.5418   -5.8434   H         1 RES1   0.0000
    66 H24       0.1319   -3.0364   -7.0357   H         1 RES1   0.0000
    67 H25       0.7164   -3.7961   -5.5750   H         1 RES1   0.0000
    68 H26       1.8480   -1.6682   -4.9065   H         1 RES1   0.0000
    69 H27       1.3622   -0.9409   -6.4300   H         1 RES1   0.0000
    70 H28       2.8984   -3.5532   -6.4330   H         1 RES1   0.0000
    71 H29       2.8304   -1.1986   -8.3700   H         1 RES1   0.0000
    72 H30       1.9455   -2.7131   -8.5713   H         1 RES1   0.0000
    73 H31       3.7023   -2.7091   -8.6020   H         1 RES1   0.0000
    74 H32       4.1368   -0.7749   -6.1818   H         1 RES1   0.0000
    75 H33       5.0107   -2.2624   -6.5268   H         1 RES1   0.0000
    76 H34       4.2131   -2.0605   -4.9690   H         1 RES1   0.0000
    77 H35      -2.4491    1.0519   -2.7638   H         1 RES1   0.0000
    78 H36      -1.4626   -0.0383   -3.7898   H         1 RES1   0.0000
    79 H37      -0.9132    2.5642   -3.0897   H         1 RES1   0.0000
    80 H38       0.7343    2.3779   -2.4356   H         1 RES1   0.0000
    81 H39      -0.0733    4.7312   -2.4792   H         1 RES1   0.0000
    82 H40      -0.7606    5.9684   -1.4404   H         1 RES1   0.0000
    83 H41      -2.3841    4.1112   -3.2302   H         1 RES1   0.0000
    84 H42      -1.9020    5.7631   -3.6264   H         1 RES1   0.0000
    85 H43      -3.7334    5.0152   -1.3008   H         1 RES1   0.0000
    86 H44      -4.2630    5.5197   -2.8923   H         1 RES1   0.0000
    87 H45      -3.1703    7.7026   -2.6395   H         1 RES1   0.0000
    88 H46      -2.5719    7.2665   -1.0413   H         1 RES1   0.0000
    89 H47      -4.9165    6.9558   -0.2492   H         1 RES1   0.0000
    90 H48      -5.5029    7.4377   -1.8425   H         1 RES1   0.0000
    91 H49      -3.8330    9.1929    0.0238   H         1 RES1   0.0000
    92 H50      -5.5634    9.3443   -0.2606   H         1 RES1   0.0000
    93 H51      -4.4293    9.6699   -1.5649   H         1 RES1   0.0000
    94 H52      -2.6358    3.9173    0.6032   H         1 RES1   0.0000
    95 H53      -2.0025    5.5389    0.2960   H         1 RES1   0.0000
    96 H54      -0.4825    5.3312    2.0388   H         1 RES1   0.0000
    97 H55       0.0659    3.7774    1.4282   H         1 RES1   0.0000
    98 H56      -2.0833    2.7826    2.3604   H         1 RES1   0.0000
    99 H57       0.0348    3.8541    4.2612   H         1 RES1   0.0000
   100 H58       0.0950    2.3553    3.3089   H         1 RES1   0.0000
   101 H59      -1.0659    2.5385    4.6277   H         1 RES1   0.0000
   102 H60      -3.2501    4.9572    2.7177   H         1 RES1   0.0000
   103 H61      -2.0637    5.3766    3.9436   H         1 RES1   0.0000
   104 H62      -3.8970    4.7447    5.1505   H         1 RES1   0.0000
   105 H63      -2.8996    3.3186    5.2683   H         1 RES1   0.0000
   106 H64      -5.2575    3.7517    3.3765   H         1 RES1   0.0000
   107 H65      -5.3561    2.9540    4.9412   H         1 RES1   0.0000
   108 H66      -3.8748    1.9158    2.4968   H         1 RES1   0.0000
   109 H67      -4.2854    0.7511    5.2985   H         1 RES1   0.0000
   110 H68      -2.7305    1.1392    4.5840   H         1 RES1   0.0000
   111 H69      -3.7029   -0.2085    3.9548   H         1 RES1   0.0000
   112 H70      -6.4137    0.9329    3.8520   H         1 RES1   0.0000
   113 H71      -5.6349    0.2140    2.4427   H         1 RES1   0.0000
   114 H72      -6.3470    1.8192    2.3344   H         1 RES1   0.0000
   115 C37      -0.4369   -6.0735    0.2719   C.3       1 RES1   0.0000
   116 C38       0.0063   -4.8013    0.9881   C.3       1 RES1   0.0000
   117 C39       0.8753   -5.1239    2.2052   C.3       1 RES1   0.0000
   118 C40       1.3972   -3.8851    2.9373   C.3       1 RES1   0.0000
   119 C41       0.2494   -3.1342    3.6098   C.3       1 RES1   0.0000
   120 C42       0.6585   -2.0309    4.5833   C.3       1 RES1   0.0000
   121 N3        1.5359   -0.9674    4.0800   N.am      1 RES1   0.0000
   122 C43       2.3809   -0.3433    5.0854   C.3       1 RES1   0.0000
   123 C44       1.5993    0.7220    5.8599   C.3       1 RES1   0.0000
   124 C45       2.4331    1.4416    6.9322   C.3       1 RES1   0.0000
   125 C46       2.8515    0.4471    8.0158   C.3       1 RES1   0.0000
   126 C47       3.6618    2.1660    6.3662   C.3       1 RES1   0.0000
   127 C48       3.3923    3.3366    5.4147   C.3       1 RES1   0.0000
   128 C49       2.8527    4.5653    6.1461   C.3       1 RES1   0.0000
   129 C50       2.8698    5.8807    5.3492   C.3       1 RES1   0.0000
   130 C51       4.2574    6.2267    4.8144   C.3       1 RES1   0.0000
   131 C52       1.8471    5.8874    4.2143   C.3       1 RES1   0.0000
   132 C53       1.4009   -0.4599    2.8741   C.2       1 RES1   0.0000
   133 O4        0.6421   -0.9494    2.0040   O.2       1 RES1   0.0000
   134 C54       2.2400    0.7625    2.4632   C.3       1 RES1   0.0000
   135 O5        1.8293    1.2218    1.1661   O.3       1 RES1   0.0000
   136 C55       2.9135    1.2707    0.2371   C.3       1 RES1   0.0000
   137 C56       3.1106   -0.1687   -0.2550   C.2       1 RES1   0.0000
   138 O6        2.0358   -0.7900   -0.4423   O.2       1 RES1   0.0000
   139 N4        4.2993   -0.7304   -0.3759   N.am      1 RES1   0.0000
   140 C57       5.5690   -0.0160   -0.3401   C.3       1 RES1   0.0000
   141 C58       6.4919   -0.4722    0.7982   C.3       1 RES1   0.0000
   142 C59       5.7906   -0.5254    2.1531   C.3       1 RES1   0.0000
   143 C60       6.6344   -1.2507    3.2015   C.3       1 RES1   0.0000
   144 C61       5.8618   -1.4687    4.5007   C.3       1 RES1   0.0000
   145 C62       6.6634   -2.2913    5.4976   C.3       1 RES1   0.0000
   146 C63       4.3679   -2.1727   -0.6193   C.3       1 RES1   0.0000
   147 C64       3.8043   -2.5621   -1.9903   C.3       1 RES1   0.0000
   148 C65       3.1392   -3.9463   -1.9755   C.3       1 RES1   0.0000
   149 C66       2.3866   -4.1763   -3.2803   C.3       1 RES1   0.0000
   150 C67       4.1469   -5.0759   -1.7420   C.3       1 RES1   0.0000
   151 C68       3.4685   -6.4471   -1.7886   C.3       1 RES1   0.0000
   152 C69       4.3153   -7.5856   -1.2154   C.3       1 RES1   0.0000
   153 C70       4.0307   -7.9075    0.2562   C.3       1 RES1   0.0000
   154 C71       4.4643   -6.7855    1.1980   C.3       1 RES1   0.0000
   155 C72       4.7298   -9.2105    0.6345   C.3       1 RES1   0.0000
   156 H73      -1.0524   -5.8525   -0.5973   H         1 RES1   0.0000
   157 H74       0.4237   -6.6502   -0.0561   H         1 RES1   0.0000
   158 H75      -1.0181   -6.7000    0.9426   H         1 RES1   0.0000
   159 H76       0.5882   -4.1642    0.3041   H         1 RES1   0.0000
   160 H77      -0.8778   -4.2342    1.2955   H         1 RES1   0.0000
   161 H78       0.2979   -5.7317    2.9035   H         1 RES1   0.0000
   162 H79       1.7197   -5.7319    1.8780   H         1 RES1   0.0000
   163 H80       2.1172   -4.2109    3.6890   H         1 RES1   0.0000
   164 H81       1.9179   -3.2294    2.2312   H         1 RES1   0.0000
   165 H82      -0.4136   -2.7266    2.8439   H         1 RES1   0.0000
   166 H83      -0.3198   -3.8488    4.2074   H         1 RES1   0.0000
   167 H84      -0.2554   -1.5596    4.9624   H         1 RES1   0.0000
   168 H85       1.1815   -2.4776    5.4297   H         1 RES1   0.0000
   169 H86       2.7368   -1.1157    5.7658   H         1 RES1   0.0000
   170 H87       3.2560    0.0894    4.6067   H         1 RES1   0.0000
   171 H88       1.2041    1.4570    5.1586   H         1 RES1   0.0000
   172 H89       0.7491    0.2478    6.3559   H         1 RES1   0.0000
   173 H90       1.7697    2.1836    7.3878   H         1 RES1   0.0000
   174 H91       3.5895   -0.2545    7.6346   H         1 RES1   0.0000
   175 H92       3.2928    0.9644    8.8619   H         1 RES1   0.0000
   176 H93       1.9876   -0.1109    8.3720   H         1 RES1   0.0000
   177 H94       4.2306    2.5466    7.2153   H         1 RES1   0.0000
   178 H95       4.3028    1.4363    5.8670   H         1 RES1   0.0000
   179 H96       4.3447    3.5961    4.9535   H         1 RES1   0.0000
   180 H97       2.7072    3.0444    4.6130   H         1 RES1   0.0000
   181 H98       1.8283    4.3790    6.4759   H         1 RES1   0.0000
   182 H99       3.4590    4.7172    7.0398   H         1 RES1   0.0000
   183 H100      2.5798    6.6649    6.0565   H         1 RES1   0.0000
   184 H101      4.5501    5.5572    4.0079   H         1 RES1   0.0000
   185 H102      4.2627    7.2410    4.4245   H         1 RES1   0.0000
   186 H103      4.9965    6.1670    5.6077   H         1 RES1   0.0000
   187 H104      2.0430    5.0792    3.5108   H         1 RES1   0.0000
   188 H105      0.8389    5.7827    4.6118   H         1 RES1   0.0000
   189 H106      1.9002    6.8283    3.6718   H         1 RES1   0.0000
   190 H107      2.1183    1.6043    3.1531   H         1 RES1   0.0000
   191 H108      3.2962    0.4825    2.4608   H         1 RES1   0.0000
   192 H109      2.5869    1.9034   -0.5992   H         1 RES1   0.0000
   193 H110      3.7835    1.7136    0.7255   H         1 RES1   0.0000
   194 H111      6.0653   -0.2073   -1.2936   H         1 RES1   0.0000
   195 H112      5.3785    1.0541   -0.2809   H         1 RES1   0.0000
   196 H113      6.9042   -1.4593    0.5867   H         1 RES1   0.0000
   197 H114      7.3396    0.2106    0.8396   H         1 RES1   0.0000
   198 H115      5.5638    0.4879    2.4997   H         1 RES1   0.0000
   199 H116      4.8519   -1.0800    2.0382   H         1 RES1   0.0000
   200 H117      6.9253   -2.2227    2.8002   H         1 RES1   0.0000
   201 H118      7.5482   -0.6901    3.3996   H         1 RES1   0.0000
   202 H119      5.6124   -0.4986    4.9396   H         1 RES1   0.0000
   203 H120      4.9261   -1.9892    4.2672   H         1 RES1   0.0000
   204 H121      7.5927   -1.7904    5.7455   H         1 RES1   0.0000
   205 H122      6.1011   -2.4373    6.4135   H         1 RES1   0.0000
   206 H123      6.8993   -3.2657    5.0819   H         1 RES1   0.0000
   207 H124      5.4107   -2.4692   -0.5410   H         1 RES1   0.0000
   208 H125      3.8058   -2.6790    0.1744   H         1 RES1   0.0000
   209 H126      3.0542   -1.8167   -2.2695   H         1 RES1   0.0000
   210 H127      4.5967   -2.5363   -2.7409   H         1 RES1   0.0000
   211 H128      2.4159   -3.9595   -1.1472   H         1 RES1   0.0000
   212 H129      3.0940   -4.2899   -4.0952   H         1 RES1   0.0000
   213 H130      1.7889   -5.0788   -3.2125   H         1 RES1   0.0000
   214 H131      1.7322   -3.3436   -3.5214   H         1 RES1   0.0000
   215 H132      4.9169   -5.0348   -2.5133   H         1 RES1   0.0000
   216 H133      4.6353   -4.9338   -0.7789   H         1 RES1   0.0000
   217 H134      2.5178   -6.4058   -1.2499   H         1 RES1   0.0000
   218 H135      3.2442   -6.6847   -2.8271   H         1 RES1   0.0000
   219 H136      4.1011   -8.4886   -1.7885   H         1 RES1   0.0000
   220 H137      5.3766   -7.3650   -1.3424   H         1 RES1   0.0000
   221 H138      2.9483   -8.0532    0.3712   H         1 RES1   0.0000
   222 H139      5.5136   -6.5462    1.0424   H         1 RES1   0.0000
   223 H140      3.8722   -5.8847    1.0421   H         1 RES1   0.0000
   224 H141      4.3383   -7.0999    2.2313   H         1 RES1   0.0000
   225 H142      5.8052   -9.1185    0.5070   H         1 RES1   0.0000
   226 H143      4.5248   -9.4703    1.6691   H         1 RES1   0.0000
   227 H144      4.3791  -10.0244    0.0064   H         1 RES1   0.0000
   228 O7       -1.8496    0.0794    1.9930   O.3       1 RES1   0.0000
   229 H145     -2.6319   -0.4821    2.1517   H         1 RES1   0.0000
   230 H146     -2.0389    0.8979    2.4902   H         1 RES1   0.0000
   231 O8        0.1669   -2.1766   -1.6555   O.3       1 RES1   0.0000
   232 H147      0.6549   -2.0973   -2.4953   H         1 RES1   0.0000
   233 H148      0.3852   -3.0660   -1.3262   H         1 RES1   0.0000
@<TRIPOS>BOND
     1     1    20    1
     2     1    22    1
     3     1    25    1
     4     1   133    1
     5     1   135    1
     6     1   138    1
     7     1   228    1
     8     1   231    1
     9     2     3    1
    10     2    43    1
    11     2    44    1
    12     2    45    1
    13     3     4    1
    14     3    46    1
    15     3    47    1
    16     4     5    1
    17     4    48    1
    18     4    49    1
    19     5     6    1
    20     5    50    1
    21     5    51    1
    22     6     7    1
    23     6    52    1
    24     6    53    1
    25     7     8    1
    26     7    54    1
    27     7    55    1
    28     8     9    1
    29     8    19    1
    30     9    10    1
    31     9    56    1
    32     9    57    1
    33    10    11    1
    34    10    58    1
    35    10    59    1
    36    11    12    1
    37    11    13    1
    38    11    60    1
    39    12    61    1
    40    12    62    1
    41    12    63    1
    42    13    14    1
    43    13    64    1
    44    13    65    1
    45    14    15    1
    46    14    66    1
    47    14    67    1
    48    15    16    1
    49    15    68    1
    50    15    69    1
    51    16    17    1
    52    16    18    1
    53    16    70    1
    54    17    71    1
    55    17    72    1
    56    17    73    1
    57    18    74    1
    58    18    75    1
    59    18    76    1
    60    19    20    2
    61    19    21    1
    62    21    22    1
    63    21    77    1
    64    21    78    1
    65    22    23    1
    66    23    24    1
    67    23    79    1
    68    23    80    1
    69    24    25    2
    70    24    26    1
    71    26    27    1
    72    26    33    1
    73    27    28    1
    74    27    81    1
    75    27    82    1
    76    28    29    1
    77    28    83    1
    78    28    84    1
    79    29    30    1
    80    29    85    1
    81    29    86    1
    82    30    31    1
    83    30    87    1
    84    30    88    1
    85    31    32    1
    86    31    89    1
    87    31    90    1
    88    32    91    1
    89    32    92    1
    90    32    93    1
    91    33    34    1
    92    33    94    1
    93    33    95    1
    94    34    35    1
    95    34    96    1
    96    34    97    1
    97    35    36    1
    98    35    37    1
    99    35    98    1
   100    36    99    1
   101    36   100    1
   102    36   101    1
   103    37    38    1
   104    37   102    1
   105    37   103    1
   106    38    39    1
   107    38   104    1
   108    38   105    1
   109    39    40    1
   110    39   106    1
   111    39   107    1
   112    40    41    1
   113    40    42    1
   114    40   108    1
   115    41   109    1
   116    41   110    1
   117    41   111    1
   118    42   112    1
   119    42   113    1
   120    42   114    1
   121   115   116    1
   122   115   156    1
   123   115   157    1
   124   115   158    1
   125   116   117    1
   126   116   159    1
   127   116   160    1
   128   117   118    1
   129   117   161    1
   130   117   162    1
   131   118   119    1
   132   118   163    1
   133   118   164    1
   134   119   120    1
   135   119   165    1
   136   119   166    1
   137   120   121    1
   138   120   167    1
   139   120   168    1
   140   121   122    1
   141   121   132    1
   142   122   123    1
   143   122   169    1
   144   122   170    1
   145   123   124    1
   146   123   171    1
   147   123   172    1
   148   124   125    1
   149   124   126    1
   150   124   173    1
   151   125   174    1
   152   125   175    1
   153   125   176    1
   154   126   127    1
   155   126   177    1
   156   126   178    1
   157   127   128    1
   158   127   179    1
   159   127   180    1
   160   128   129    1
   161   128   181    1
   162   128   182    1
   163   129   130    1
   164   129   131    1
   165   129   183    1
   166   130   184    1
   167   130   185    1
   168   130   186    1
   169   131   187    1
   170   131   188    1
   171   131   189    1
   172   132   133    2
   173   132   134    1
   174   134   135    1
   175   134   190    1
   176   134   191    1
   177   135   136    1
   178   136   137    1
   179   136   192    1
   180   136   193    1
   181   137   138    2
   182   137   139    1
   183   139   140    1
   184   139   146    1
   185   140   141    1
   186   140   194    1
   187   140   195    1
   188   141   142    1
   189   141   196    1
   190   141   197    1
   191   142   143    1
   192   142   198    1
   193   142   199    1
   194   143   144    1
   195   143   200    1
   196   143   201    1
   197   144   145    1
   198   144   202    1
   199   144   203    1
   200   145   204    1
   201   145   205    1
   202   145   206    1
   203   146   147    1
   204   146   207    1
   205   146   208    1
   206   147   148    1
   207   147   209    1
   208   147   210    1
   209   148   149    1
   210   148   150    1
   211   148   211    1
   212   149   212    1
   213   149   213    1
   214   149   214    1
   215   150   151    1
   216   150   215    1
   217   150   216    1
   218   151   152    1
   219   151   217    1
   220   151   218    1
   221   152   153    1
   222   152   219    1
   223   152   220    1
   224   153   154    1
   225   153   155    1
   226   153   221    1
   227   154   222    1
   228   154   223    1
   229   154   224    1
   230   155   225    1
   231   155   226    1
   232   155   227    1
   233   228   229    1
   234   228   230    1
   235   231   232    1
   236   231   233    1
@<TRIPOS>SUBSTRUCTURE
     1 RES1      233 GROUP             0 ****  ****    0  
