@<TRIPOS>MOLECULE
ICIGOT_geomtry_0_nunpairedes_0_charge_3 Charge: 3 Unpaired_Electrons: 5 XTB_Unpaired_Electrons: 0 XTB_Charge: 3
   269   272     1     0     0
SMALL
NoCharges
****
Generated from Architector

@<TRIPOS>ATOM
     1 Dy1      -0.0243   -0.0297    0.0904   Dy        1 RES1   0.0000
     2 C1       -1.5435    0.6774   -6.2232   C.3       1 RES1   0.0000
     3 C2       -2.3260    1.9588   -5.9444   C.3       1 RES1   0.0000
     4 C3       -3.7783    1.9072   -6.4499   C.3       1 RES1   0.0000
     5 C4       -4.8247    1.6988   -5.3509   C.3       1 RES1   0.0000
     6 C5       -4.6479    0.3867   -4.5882   C.3       1 RES1   0.0000
     7 C6       -5.8717    0.0349   -3.7421   C.3       1 RES1   0.0000
     8 C7       -5.8373   -1.3635   -3.1122   C.3       1 RES1   0.0000
     9 C8       -5.1900   -1.5071   -1.7283   C.3       1 RES1   0.0000
    10 N1       -3.7334   -1.3940   -1.6661   N.am      1 RES1   0.0000
    11 C9       -3.0010   -2.0120   -2.7621   C.3       1 RES1   0.0000
    12 C10      -3.0442   -1.0695   -0.5752   C.2       1 RES1   0.0000
    13 O1       -1.8058   -1.2057   -0.5485   O.2       1 RES1   0.0000
    14 C11      -3.8138   -0.5713    0.6538   C.3       1 RES1   0.0000
    15 C12      -2.9252   -0.0100    1.7669   C.2       1 RES1   0.0000
    16 O2       -1.7216   -0.3124    1.8507   O.2       1 RES1   0.0000
    17 N2       -3.4964    0.8038    2.6661   N.am      1 RES1   0.0000
    18 C13      -2.6579    1.3005    3.7322   C.3       1 RES1   0.0000
    19 C14      -4.9042    1.2113    2.6629   C.3       1 RES1   0.0000
    20 C15      -5.4866    1.7233    4.0025   C.3       1 RES1   0.0000
    21 C16      -5.5843    3.2447    4.2186   C.3       1 RES1   0.0000
    22 C17      -4.3185    4.0146    4.5892   C.3       1 RES1   0.0000
    23 C18      -4.6184    5.4679    4.9563   C.3       1 RES1   0.0000
    24 C19      -3.3329    6.2780    5.1526   C.3       1 RES1   0.0000
    25 C20      -2.7082    6.7473    3.8375   C.3       1 RES1   0.0000
    26 C21      -1.4470    7.5671    4.0846   C.3       1 RES1   0.0000
    27 H1       -0.5470    0.7377   -5.7834   H         1 RES1   0.0000
    28 H2       -1.4365    0.5257   -7.2949   H         1 RES1   0.0000
    29 H3       -2.0560   -0.1866   -5.8056   H         1 RES1   0.0000
    30 H4       -1.8039    2.7879   -6.4292   H         1 RES1   0.0000
    31 H5       -2.3287    2.1451   -4.8676   H         1 RES1   0.0000
    32 H6       -3.8717    1.1131   -7.1931   H         1 RES1   0.0000
    33 H7       -4.0128    2.8446   -6.9566   H         1 RES1   0.0000
    34 H8       -5.8063    1.7110   -5.8249   H         1 RES1   0.0000
    35 H9       -4.7845    2.5341   -4.6487   H         1 RES1   0.0000
    36 H10      -3.7643    0.4683   -3.9531   H         1 RES1   0.0000
    37 H11      -4.4986   -0.4153   -5.3124   H         1 RES1   0.0000
    38 H12      -6.7420    0.0697   -4.4006   H         1 RES1   0.0000
    39 H13      -6.0240    0.7883   -2.9682   H         1 RES1   0.0000
    40 H14      -5.3950   -2.0610   -3.8189   H         1 RES1   0.0000
    41 H15      -6.8707   -1.6797   -2.9612   H         1 RES1   0.0000
    42 H16      -5.4517   -2.5089   -1.3587   H         1 RES1   0.0000
    43 H17      -5.6423   -0.7669   -1.0676   H         1 RES1   0.0000
    44 H18      -3.0586   -1.4044   -3.6600   H         1 RES1   0.0000
    45 H19      -3.4238   -2.9936   -2.9557   H         1 RES1   0.0000
    46 H20      -1.9598   -2.1128   -2.4653   H         1 RES1   0.0000
    47 H21      -4.3727   -1.4197    1.0672   H         1 RES1   0.0000
    48 H22      -4.5319    0.1826    0.3415   H         1 RES1   0.0000
    49 H23      -1.6169    1.2064    3.4330   H         1 RES1   0.0000
    50 H24      -2.8295    0.7353    4.6465   H         1 RES1   0.0000
    51 H25      -2.8855    2.3337    3.9364   H         1 RES1   0.0000
    52 H26      -5.4961    0.3419    2.3739   H         1 RES1   0.0000
    53 H27      -5.0488    1.9951    1.9077   H         1 RES1   0.0000
    54 H28      -4.9819    1.2652    4.8478   H         1 RES1   0.0000
    55 H29      -6.5182    1.3607    4.0260   H         1 RES1   0.0000
    56 H30      -6.3024    3.3978    5.0260   H         1 RES1   0.0000
    57 H31      -6.0066    3.7047    3.3266   H         1 RES1   0.0000
    58 H32      -3.6295    4.0303    3.7391   H         1 RES1   0.0000
    59 H33      -3.8291    3.5440    5.4435   H         1 RES1   0.0000
    60 H34      -5.2019    5.4885    5.8770   H         1 RES1   0.0000
    61 H35      -5.2142    5.9316    4.1671   H         1 RES1   0.0000
    62 H36      -2.6032    5.6851    5.7132   H         1 RES1   0.0000
    63 H37      -3.5555    7.1601    5.7508   H         1 RES1   0.0000
    64 H38      -3.4345    7.3522    3.2911   H         1 RES1   0.0000
    65 H39      -2.4634    5.8874    3.2047   H         1 RES1   0.0000
    66 H40      -1.6960    8.4757    4.6237   H         1 RES1   0.0000
    67 H41      -0.9693    7.8458    3.1473   H         1 RES1   0.0000
    68 H42      -0.7378    7.0035    4.6873   H         1 RES1   0.0000
    69 C22       4.9131   -1.7739    0.6400   C.3       1 RES1   0.0000
    70 C23       5.2324   -0.2849    0.7151   C.3       1 RES1   0.0000
    71 C24       6.2957    0.1486   -0.2999   C.3       1 RES1   0.0000
    72 C25       5.7796    0.5345   -1.6880   C.3       1 RES1   0.0000
    73 C26       5.1282   -0.5941   -2.4942   C.3       1 RES1   0.0000
    74 C27       5.1492   -0.2706   -3.9918   C.3       1 RES1   0.0000
    75 C28       4.1709   -1.0910   -4.8418   C.3       1 RES1   0.0000
    76 C29       2.8008   -0.4316   -5.0801   C.3       1 RES1   0.0000
    77 N3        1.7925   -0.7378   -4.0741   N.am      1 RES1   0.0000
    78 C30       1.0119   -1.9357   -4.3390   C.3       1 RES1   0.0000
    79 C31       1.4644   -0.0186   -3.0084   C.2       1 RES1   0.0000
    80 O3        0.5235   -0.3474   -2.2619   O.2       1 RES1   0.0000
    81 C32       2.2200    1.2621   -2.6612   C.3       1 RES1   0.0000
    82 C33       1.1041    2.2647   -2.4029   C.2       1 RES1   0.0000
    83 O4        0.4976    2.1420   -1.3224   O.2       1 RES1   0.0000
    84 N4        0.7159    3.1268   -3.3360   N.am      1 RES1   0.0000
    85 C34      -0.5293    3.8434   -3.1336   C.3       1 RES1   0.0000
    86 C35       1.3752    3.4078   -4.6003   C.3       1 RES1   0.0000
    87 C36       1.8257    4.8658   -4.7746   C.3       1 RES1   0.0000
    88 C37       2.8123    5.3670   -3.7178   C.3       1 RES1   0.0000
    89 C38       2.1362    5.8675   -2.4424   C.3       1 RES1   0.0000
    90 C39       3.1372    6.4563   -1.4521   C.3       1 RES1   0.0000
    91 C40       2.4808    7.2770   -0.3409   C.3       1 RES1   0.0000
    92 C41       1.4916    6.5142    0.5556   C.3       1 RES1   0.0000
    93 C42       0.0289    6.7701    0.1944   C.3       1 RES1   0.0000
    94 H43       4.1756   -2.0445    1.3910   H         1 RES1   0.0000
    95 H44       5.8118   -2.3608    0.8132   H         1 RES1   0.0000
    96 H45       4.5130   -2.0279   -0.3348   H         1 RES1   0.0000
    97 H46       5.6062   -0.0614    1.7175   H         1 RES1   0.0000
    98 H47       4.3134    0.2934    0.5709   H         1 RES1   0.0000
    99 H48       7.0317   -0.6492   -0.4037   H         1 RES1   0.0000
   100 H49       6.8207    1.0179    0.1010   H         1 RES1   0.0000
   101 H50       6.6375    0.9046   -2.2511   H         1 RES1   0.0000
   102 H51       5.0781    1.3670   -1.5874   H         1 RES1   0.0000
   103 H52       4.1015   -0.7576   -2.1604   H         1 RES1   0.0000
   104 H53       5.6869   -1.5185   -2.3376   H         1 RES1   0.0000
   105 H54       6.1624   -0.4550   -4.3502   H         1 RES1   0.0000
   106 H55       4.9528    0.7921   -4.1505   H         1 RES1   0.0000
   107 H56       4.0234   -2.0746   -4.3942   H         1 RES1   0.0000
   108 H57       4.6177   -1.2449   -5.8232   H         1 RES1   0.0000
   109 H58       2.3993   -0.7954   -6.0288   H         1 RES1   0.0000
   110 H59       2.9185    0.6475   -5.1851   H         1 RES1   0.0000
   111 H60       1.6619   -2.7357   -4.6828   H         1 RES1   0.0000
   112 H61       0.2682   -1.7278   -5.1096   H         1 RES1   0.0000
   113 H62       0.4981   -2.2368   -3.4275   H         1 RES1   0.0000
   114 H63       2.9759    1.5578   -3.3747   H         1 RES1   0.0000
   115 H64       2.6967    1.0833   -1.6912   H         1 RES1   0.0000
   116 H65      -1.0814    3.3469   -2.3386   H         1 RES1   0.0000
   117 H66      -1.0997    3.8199   -4.0596   H         1 RES1   0.0000
   118 H67      -0.3481    4.8800   -2.8592   H         1 RES1   0.0000
   119 H68       0.6700    3.1694   -5.4055   H         1 RES1   0.0000
   120 H69       2.2441    2.7635   -4.7141   H         1 RES1   0.0000
   121 H70       0.9594    5.5245   -4.8114   H         1 RES1   0.0000
   122 H71       2.3043    4.9162   -5.7531   H         1 RES1   0.0000
   123 H72       3.3754    6.1986   -4.1425   H         1 RES1   0.0000
   124 H73       3.5290    4.5769   -3.4825   H         1 RES1   0.0000
   125 H74       1.6078    5.0505   -1.9508   H         1 RES1   0.0000
   126 H75       1.4181    6.6420   -2.7199   H         1 RES1   0.0000
   127 H76       3.8248    7.1145   -1.9854   H         1 RES1   0.0000
   128 H77       3.7258    5.6483   -1.0129   H         1 RES1   0.0000
   129 H78       1.9683    8.1278   -0.7914   H         1 RES1   0.0000
   130 H79       3.2795    7.6800    0.2821   H         1 RES1   0.0000
   131 H80       1.6457    6.8347    1.5880   H         1 RES1   0.0000
   132 H81       1.6964    5.4409    0.5115   H         1 RES1   0.0000
   133 H82      -0.1456    7.8330    0.0490   H         1 RES1   0.0000
   134 H83      -0.6271    6.4434    1.0030   H         1 RES1   0.0000
   135 H84      -0.2510    6.2506   -0.7213   H         1 RES1   0.0000
   136 C43      -0.8447   -2.4221    4.4515   C.3       1 RES1   0.0000
   137 C44      -0.9658   -1.0526    5.0951   C.3       1 RES1   0.0000
   138 C45      -0.1136   -0.7970    6.3361   C.3       1 RES1   0.0000
   139 C46      -0.2468    0.6593    6.7992   C.3       1 RES1   0.0000
   140 C47       0.4864    1.6441    5.8804   C.3       1 RES1   0.0000
   141 C48       0.0109    3.0814    6.0848   C.3       1 RES1   0.0000
   142 C49       0.7792    4.1411    5.2855   C.3       1 RES1   0.0000
   143 C50       0.4212    4.3372    3.7996   C.3       1 RES1   0.0000
   144 N5        0.7523    3.2355    2.9115   N.am      1 RES1   0.0000
   145 C51       2.0950    2.6710    2.9862   C.3       1 RES1   0.0000
   146 C52      -0.0143    2.7225    1.9456   C.2       1 RES1   0.0000
   147 O5        0.4003    1.7100    1.3500   O.2       1 RES1   0.0000
   148 C53      -1.3166    3.4337    1.5556   C.3       1 RES1   0.0000
   149 C54      -2.1140    2.7654    0.4386   C.2       1 RES1   0.0000
   150 O6       -1.8071    1.6555   -0.0307   O.2       1 RES1   0.0000
   151 N6       -3.1854    3.4281   -0.0405   N.am      1 RES1   0.0000
   152 C55      -3.7676    2.9454   -1.2808   C.3       1 RES1   0.0000
   153 C56      -3.5960    4.7477    0.4466   C.3       1 RES1   0.0000
   154 C57      -4.9245    5.3308   -0.0709   C.3       1 RES1   0.0000
   155 C58      -6.1829    5.0040    0.7462   C.3       1 RES1   0.0000
   156 C59      -6.8792    3.6810    0.4181   C.3       1 RES1   0.0000
   157 C60      -8.0236    3.3845    1.3959   C.3       1 RES1   0.0000
   158 C61      -9.1269    2.4612    0.8721   C.3       1 RES1   0.0000
   159 C62      -8.7005    1.0153    0.5935   C.3       1 RES1   0.0000
   160 C63      -8.1724    0.7962   -0.8204   C.3       1 RES1   0.0000
   161 H85       0.1894   -2.6181    4.2096   H         1 RES1   0.0000
   162 H86      -1.4225   -2.4315    3.5274   H         1 RES1   0.0000
   163 H87      -1.2081   -3.1984    5.1108   H         1 RES1   0.0000
   164 H88      -2.0099   -0.9040    5.3726   H         1 RES1   0.0000
   165 H89      -0.6942   -0.3285    4.3289   H         1 RES1   0.0000
   166 H90       0.9351   -1.0070    6.1242   H         1 RES1   0.0000
   167 H91      -0.4247   -1.4667    7.1407   H         1 RES1   0.0000
   168 H92       0.1451    0.7530    7.8129   H         1 RES1   0.0000
   169 H93      -1.3069    0.9122    6.8446   H         1 RES1   0.0000
   170 H94       0.3321    1.3581    4.8394   H         1 RES1   0.0000
   171 H95       1.5542    1.5846    6.0963   H         1 RES1   0.0000
   172 H96       0.1420    3.3331    7.1379   H         1 RES1   0.0000
   173 H97      -1.0574    3.1481    5.8693   H         1 RES1   0.0000
   174 H98       1.8463    3.9577    5.4047   H         1 RES1   0.0000
   175 H99       0.5722    5.1121    5.7411   H         1 RES1   0.0000
   176 H100      0.9507    5.2323    3.4481   H         1 RES1   0.0000
   177 H101     -0.6463    4.5370    3.7297   H         1 RES1   0.0000
   178 H102      2.7090    3.2748    3.6458   H         1 RES1   0.0000
   179 H103      2.5402    2.6625    1.9890   H         1 RES1   0.0000
   180 H104      2.0618    1.6409    3.3439   H         1 RES1   0.0000
   181 H105     -1.9565    3.5549    2.4312   H         1 RES1   0.0000
   182 H106     -1.0443    4.4386    1.2135   H         1 RES1   0.0000
   183 H107     -3.6286    3.6919   -2.0623   H         1 RES1   0.0000
   184 H108     -4.8320    2.7537   -1.1713   H         1 RES1   0.0000
   185 H109     -3.2604    2.0264   -1.5653   H         1 RES1   0.0000
   186 H110     -2.8084    5.4584    0.1708   H         1 RES1   0.0000
   187 H111     -3.6479    4.7142    1.5377   H         1 RES1   0.0000
   188 H112     -5.0862    5.0918   -1.1189   H         1 RES1   0.0000
   189 H113     -4.7919    6.4131   -0.0145   H         1 RES1   0.0000
   190 H114     -6.9074    5.7977    0.5606   H         1 RES1   0.0000
   191 H115     -5.9253    5.0522    1.8055   H         1 RES1   0.0000
   192 H116     -6.1628    2.8563    0.4514   H         1 RES1   0.0000
   193 H117     -7.2819    3.7498   -0.5936   H         1 RES1   0.0000
   194 H118     -8.4916    4.3283    1.6815   H         1 RES1   0.0000
   195 H119     -7.6194    2.9354    2.3035   H         1 RES1   0.0000
   196 H120     -9.5671    2.8884   -0.0289   H         1 RES1   0.0000
   197 H121     -9.9042    2.4437    1.6375   H         1 RES1   0.0000
   198 H122     -9.5651    0.3636    0.7309   H         1 RES1   0.0000
   199 H123     -7.9470    0.7072    1.3245   H         1 RES1   0.0000
   200 H124     -7.9101   -0.2497   -0.9643   H         1 RES1   0.0000
   201 H125     -7.2966    1.4087   -1.0182   H         1 RES1   0.0000
   202 H126     -8.9336    1.0538   -1.5521   H         1 RES1   0.0000
   203 C64      -3.9291   -4.4661    4.9323   C.3       1 RES1   0.0000
   204 C65      -2.7780   -5.4425    5.1708   C.3       1 RES1   0.0000
   205 C66      -2.1982   -5.2781    6.5787   C.3       1 RES1   0.0000
   206 C67      -0.8426   -5.9677    6.8174   C.3       1 RES1   0.0000
   207 C68       0.3743   -5.0220    6.7707   C.3       1 RES1   0.0000
   208 C69       1.1200   -5.0168    5.4296   C.3       1 RES1   0.0000
   209 C70       2.2152   -3.9365    5.3989   C.3       1 RES1   0.0000
   210 C71       2.8351   -3.7107    3.9964   C.3       1 RES1   0.0000
   211 N7        2.5083   -2.4119    3.4062   N.am      1 RES1   0.0000
   212 C72       3.1515   -1.2734    4.0460   C.3       1 RES1   0.0000
   213 C73       1.7050   -2.1540    2.3719   C.2       1 RES1   0.0000
   214 O7        1.4802   -0.9872    1.9787   O.2       1 RES1   0.0000
   215 C74       1.0790   -3.2873    1.5717   C.3       1 RES1   0.0000
   216 C75       1.6131   -3.1189    0.1589   C.2       1 RES1   0.0000
   217 O8        1.2255   -2.1248   -0.4872   O.2       1 RES1   0.0000
   218 N8        2.4743   -3.9978   -0.3522   N.am      1 RES1   0.0000
   219 C76       2.8622   -3.8751   -1.7427   C.3       1 RES1   0.0000
   220 C77       3.1795   -5.0438    0.3721   C.3       1 RES1   0.0000
   221 C78       2.6644   -6.4751    0.1765   C.3       1 RES1   0.0000
   222 C79       1.2557   -6.7655    0.6947   C.3       1 RES1   0.0000
   223 C80       0.1703   -6.3056   -0.2772   C.3       1 RES1   0.0000
   224 C81      -1.2346   -6.4401    0.3045   C.3       1 RES1   0.0000
   225 C82      -2.3337   -6.5018   -0.7557   C.3       1 RES1   0.0000
   226 C83      -2.4252   -5.2897   -1.6911   C.3       1 RES1   0.0000
   227 C84      -1.5059   -5.3649   -2.9098   C.3       1 RES1   0.0000
   228 H127     -4.3980   -4.6440    3.9647   H         1 RES1   0.0000
   229 H128     -4.6867   -4.5786    5.7035   H         1 RES1   0.0000
   230 H129     -3.5686   -3.4388    4.9585   H         1 RES1   0.0000
   231 H130     -2.0076   -5.2864    4.4114   H         1 RES1   0.0000
   232 H131     -3.1457   -6.4627    5.0498   H         1 RES1   0.0000
   233 H132     -2.9349   -5.6700    7.2798   H         1 RES1   0.0000
   234 H133     -2.0999   -4.2142    6.8030   H         1 RES1   0.0000
   235 H134     -0.7078   -6.7705    6.0921   H         1 RES1   0.0000
   236 H135     -0.8713   -6.4295    7.8039   H         1 RES1   0.0000
   237 H136      1.0786   -5.3124    7.5516   H         1 RES1   0.0000
   238 H137      0.0375   -4.0119    7.0047   H         1 RES1   0.0000
   239 H138      0.4064   -4.8544    4.6193   H         1 RES1   0.0000
   240 H139      1.5735   -5.9971    5.2788   H         1 RES1   0.0000
   241 H140      3.0040   -4.2248    6.0968   H         1 RES1   0.0000
   242 H141      1.8018   -2.9986    5.7672   H         1 RES1   0.0000
   243 H142      2.5129   -4.5192    3.3452   H         1 RES1   0.0000
   244 H143      3.9263   -3.7567    4.0516   H         1 RES1   0.0000
   245 H144      3.6277   -1.6015    4.9622   H         1 RES1   0.0000
   246 H145      2.4153   -0.5032    4.2710   H         1 RES1   0.0000
   247 H146      3.9164   -0.8517    3.3935   H         1 RES1   0.0000
   248 H147      0.0099   -3.0578    1.5051   H         1 RES1   0.0000
   249 H148      1.1987   -4.2836    1.9778   H         1 RES1   0.0000
   250 H149      2.3943   -2.9923   -2.1660   H         1 RES1   0.0000
   251 H150      2.5457   -4.7642   -2.2885   H         1 RES1   0.0000
   252 H151      3.9458   -3.7855   -1.8133   H         1 RES1   0.0000
   253 H152      3.2152   -4.7933    1.4299   H         1 RES1   0.0000
   254 H153      4.2108   -5.0226    0.0074   H         1 RES1   0.0000
   255 H154      3.3706   -7.1202    0.6995   H         1 RES1   0.0000
   256 H155      2.7113   -6.7343   -0.8805   H         1 RES1   0.0000
   257 H156      1.1198   -6.3226    1.6840   H         1 RES1   0.0000
   258 H157      1.1493   -7.8440    0.8197   H         1 RES1   0.0000
   259 H158      0.2491   -6.9249   -1.1717   H         1 RES1   0.0000
   260 H159      0.3348   -5.2665   -0.5621   H         1 RES1   0.0000
   261 H160     -1.4267   -5.6044    0.9816   H         1 RES1   0.0000
   262 H161     -1.2920   -7.3561    0.8934   H         1 RES1   0.0000
   263 H162     -3.2861   -6.6060   -0.2324   H         1 RES1   0.0000
   264 H163     -2.1982   -7.4024   -1.3546   H         1 RES1   0.0000
   265 H164     -2.2188   -4.3746   -1.1283   H         1 RES1   0.0000
   266 H165     -3.4564   -5.2356   -2.0494   H         1 RES1   0.0000
   267 H166     -0.4663   -5.2117   -2.6377   H         1 RES1   0.0000
   268 H167     -1.7741   -4.6063   -3.6421   H         1 RES1   0.0000
   269 H168     -1.5956   -6.3354   -3.3900   H         1 RES1   0.0000
@<TRIPOS>BOND
     1     1    13    1
     2     1    16    1
     3     1    80    1
     4     1    83    1
     5     1   147    1
     6     1   150    1
     7     1   214    1
     8     1   217    1
     9     2     3    1
    10     2    27    1
    11     2    28    1
    12     2    29    1
    13     3     4    1
    14     3    30    1
    15     3    31    1
    16     4     5    1
    17     4    32    1
    18     4    33    1
    19     5     6    1
    20     5    34    1
    21     5    35    1
    22     6     7    1
    23     6    36    1
    24     6    37    1
    25     7     8    1
    26     7    38    1
    27     7    39    1
    28     8     9    1
    29     8    40    1
    30     8    41    1
    31     9    10    1
    32     9    42    1
    33     9    43    1
    34    10    11    1
    35    10    12    1
    36    11    44    1
    37    11    45    1
    38    11    46    1
    39    12    13    2
    40    12    14    1
    41    14    15    1
    42    14    47    1
    43    14    48    1
    44    15    16    2
    45    15    17    1
    46    17    18    1
    47    17    19    1
    48    18    49    1
    49    18    50    1
    50    18    51    1
    51    19    20    1
    52    19    52    1
    53    19    53    1
    54    20    21    1
    55    20    54    1
    56    20    55    1
    57    21    22    1
    58    21    56    1
    59    21    57    1
    60    22    23    1
    61    22    58    1
    62    22    59    1
    63    23    24    1
    64    23    60    1
    65    23    61    1
    66    24    25    1
    67    24    62    1
    68    24    63    1
    69    25    26    1
    70    25    64    1
    71    25    65    1
    72    26    66    1
    73    26    67    1
    74    26    68    1
    75    69    70    1
    76    69    94    1
    77    69    95    1
    78    69    96    1
    79    70    71    1
    80    70    97    1
    81    70    98    1
    82    71    72    1
    83    71    99    1
    84    71   100    1
    85    72    73    1
    86    72   101    1
    87    72   102    1
    88    73    74    1
    89    73   103    1
    90    73   104    1
    91    74    75    1
    92    74   105    1
    93    74   106    1
    94    75    76    1
    95    75   107    1
    96    75   108    1
    97    76    77    1
    98    76   109    1
    99    76   110    1
   100    77    78    1
   101    77    79    1
   102    78   111    1
   103    78   112    1
   104    78   113    1
   105    79    80    2
   106    79    81    1
   107    81    82    1
   108    81   114    1
   109    81   115    1
   110    82    83    2
   111    82    84    1
   112    84    85    1
   113    84    86    1
   114    85   116    1
   115    85   117    1
   116    85   118    1
   117    86    87    1
   118    86   119    1
   119    86   120    1
   120    87    88    1
   121    87   121    1
   122    87   122    1
   123    88    89    1
   124    88   123    1
   125    88   124    1
   126    89    90    1
   127    89   125    1
   128    89   126    1
   129    90    91    1
   130    90   127    1
   131    90   128    1
   132    91    92    1
   133    91   129    1
   134    91   130    1
   135    92    93    1
   136    92   131    1
   137    92   132    1
   138    93   133    1
   139    93   134    1
   140    93   135    1
   141   136   137    1
   142   136   161    1
   143   136   162    1
   144   136   163    1
   145   137   138    1
   146   137   164    1
   147   137   165    1
   148   138   139    1
   149   138   166    1
   150   138   167    1
   151   139   140    1
   152   139   168    1
   153   139   169    1
   154   140   141    1
   155   140   170    1
   156   140   171    1
   157   141   142    1
   158   141   172    1
   159   141   173    1
   160   142   143    1
   161   142   174    1
   162   142   175    1
   163   143   144    1
   164   143   176    1
   165   143   177    1
   166   144   145    1
   167   144   146    1
   168   145   178    1
   169   145   179    1
   170   145   180    1
   171   146   147    2
   172   146   148    1
   173   148   149    1
   174   148   181    1
   175   148   182    1
   176   149   150    2
   177   149   151    1
   178   151   152    1
   179   151   153    1
   180   152   183    1
   181   152   184    1
   182   152   185    1
   183   153   154    1
   184   153   186    1
   185   153   187    1
   186   154   155    1
   187   154   188    1
   188   154   189    1
   189   155   156    1
   190   155   190    1
   191   155   191    1
   192   156   157    1
   193   156   192    1
   194   156   193    1
   195   157   158    1
   196   157   194    1
   197   157   195    1
   198   158   159    1
   199   158   196    1
   200   158   197    1
   201   159   160    1
   202   159   198    1
   203   159   199    1
   204   160   200    1
   205   160   201    1
   206   160   202    1
   207   203   204    1
   208   203   228    1
   209   203   229    1
   210   203   230    1
   211   204   205    1
   212   204   231    1
   213   204   232    1
   214   205   206    1
   215   205   233    1
   216   205   234    1
   217   206   207    1
   218   206   235    1
   219   206   236    1
   220   207   208    1
   221   207   237    1
   222   207   238    1
   223   208   209    1
   224   208   239    1
   225   208   240    1
   226   209   210    1
   227   209   241    1
   228   209   242    1
   229   210   211    1
   230   210   243    1
   231   210   244    1
   232   211   212    1
   233   211   213    1
   234   212   245    1
   235   212   246    1
   236   212   247    1
   237   213   214    2
   238   213   215    1
   239   215   216    1
   240   215   248    1
   241   215   249    1
   242   216   217    2
   243   216   218    1
   244   218   219    1
   245   218   220    1
   246   219   250    1
   247   219   251    1
   248   219   252    1
   249   220   221    1
   250   220   253    1
   251   220   254    1
   252   221   222    1
   253   221   255    1
   254   221   256    1
   255   222   223    1
   256   222   257    1
   257   222   258    1
   258   223   224    1
   259   223   259    1
   260   223   260    1
   261   224   225    1
   262   224   261    1
   263   224   262    1
   264   225   226    1
   265   225   263    1
   266   225   264    1
   267   226   227    1
   268   226   265    1
   269   226   266    1
   270   227   267    1
   271   227   268    1
   272   227   269    1
@<TRIPOS>SUBSTRUCTURE
     1 RES1      269 GROUP             0 ****  ****    0  
