@<TRIPOS>MOLECULE
ICIGOT_geomtry_0_nunpairedes_0_charge_2 Charge: 2 Unpaired_Electrons: 5 XTB_Unpaired_Electrons: 0 XTB_Charge: 2
   243   247     1     0     0
SMALL
NoCharges
****
Generated from Architector

@<TRIPOS>ATOM
     1 Dy1      -0.1821   -0.0600   -0.0837   Dy        1 RES1   0.0000
     2 C1       -0.3014    1.5890    5.0379   C.3       1 RES1   0.0000
     3 C2       -1.0595    0.3742    5.5597   C.3       1 RES1   0.0000
     4 C3       -2.2168    0.7417    6.4924   C.3       1 RES1   0.0000
     5 C4       -3.2690    1.6688    5.8797   C.3       1 RES1   0.0000
     6 C5       -3.9407    1.0693    4.6454   C.3       1 RES1   0.0000
     7 C6       -5.0621    1.9627    4.1161   C.3       1 RES1   0.0000
     8 C7       -5.8694    1.3533    2.9674   C.3       1 RES1   0.0000
     9 C8       -5.2000    1.4224    1.5872   C.3       1 RES1   0.0000
    10 N1       -4.0748    0.5181    1.4244   N.am      1 RES1   0.0000
    11 C9       -4.3934   -0.8952    1.6331   C.3       1 RES1   0.0000
    12 C10      -3.8163   -1.8542    0.5921   C.3       1 RES1   0.0000
    13 C11      -4.4055   -1.7945   -0.8170   C.3       1 RES1   0.0000
    14 C12      -3.7931   -2.9299   -1.6456   C.3       1 RES1   0.0000
    15 C13      -4.4041   -3.1090   -3.0362   C.3       1 RES1   0.0000
    16 C14      -3.9883   -2.0333   -4.0369   C.3       1 RES1   0.0000
    17 C15      -4.4717   -2.3391   -5.4547   C.3       1 RES1   0.0000
    18 C16      -5.9876   -2.2839   -5.5937   C.3       1 RES1   0.0000
    19 C17      -2.8154    0.8890    1.2574   C.2       1 RES1   0.0000
    20 O1       -1.8558    0.0977    1.4210   O.2       1 RES1   0.0000
    21 C18      -2.4576    2.3233    0.7885   C.3       1 RES1   0.0000
    22 C19      -3.1581    2.6997   -0.5232   C.3       1 RES1   0.0000
    23 O2       -1.0569    2.2445    0.5283   O.3       1 RES1   0.0000
    24 C20      -0.1929    3.3202    0.8969   C.3       1 RES1   0.0000
    25 C21       0.2542    4.0754   -0.3542   C.3       1 RES1   0.0000
    26 C22       1.0114    2.6152    1.5554   C.2       1 RES1   0.0000
    27 O3        1.1686    1.4034    1.2781   O.2       1 RES1   0.0000
    28 N2        1.8236    3.2538    2.3857   N.am      1 RES1   0.0000
    29 C23       1.6823    4.6588    2.7555   C.3       1 RES1   0.0000
    30 C24       2.9227    5.5456    2.5654   C.3       1 RES1   0.0000
    31 C25       3.2548    5.9750    1.1289   C.3       1 RES1   0.0000
    32 C26       4.0535    4.9373    0.3417   C.3       1 RES1   0.0000
    33 C27       4.4485    5.4100   -1.0565   C.3       1 RES1   0.0000
    34 C28       5.5026    4.5025   -1.6969   C.3       1 RES1   0.0000
    35 C29       4.9833    3.1054   -2.0354   C.3       1 RES1   0.0000
    36 C30       6.0494    2.2698   -2.7343   C.3       1 RES1   0.0000
    37 C31       2.7151    2.4514    3.2330   C.3       1 RES1   0.0000
    38 C32       4.1976    2.3940    2.8372   C.3       1 RES1   0.0000
    39 C33       5.1177    2.6137    4.0435   C.3       1 RES1   0.0000
    40 C34       5.1178    1.4744    5.0741   C.3       1 RES1   0.0000
    41 C35       6.2296    0.4396    4.8702   C.3       1 RES1   0.0000
    42 C36       6.1213   -0.4410    3.6235   C.3       1 RES1   0.0000
    43 C37       4.8711   -1.3198    3.5683   C.3       1 RES1   0.0000
    44 C38       4.8122   -2.3544    4.6842   C.3       1 RES1   0.0000
    45 H1        0.5777    1.2612    4.4910   H         1 RES1   0.0000
    46 H2       -0.9203    2.1794    4.3650   H         1 RES1   0.0000
    47 H3        0.0144    2.2212    5.8643   H         1 RES1   0.0000
    48 H4       -1.4283   -0.2100    4.7125   H         1 RES1   0.0000
    49 H5       -0.3647   -0.2611    6.1154   H         1 RES1   0.0000
    50 H6       -2.7026   -0.1827    6.8138   H         1 RES1   0.0000
    51 H7       -1.8070    1.2189    7.3861   H         1 RES1   0.0000
    52 H8       -4.0293    1.8540    6.6382   H         1 RES1   0.0000
    53 H9       -2.8160    2.6313    5.6357   H         1 RES1   0.0000
    54 H10      -3.1906    0.9149    3.8699   H         1 RES1   0.0000
    55 H11      -4.3570    0.0966    4.9182   H         1 RES1   0.0000
    56 H12      -5.7543    2.1553    4.9370   H         1 RES1   0.0000
    57 H13      -4.6538    2.9284    3.8063   H         1 RES1   0.0000
    58 H14      -6.1282    0.3281    3.2222   H         1 RES1   0.0000
    59 H15      -6.8018    1.9115    2.8715   H         1 RES1   0.0000
    60 H16      -5.9411    1.1739    0.8232   H         1 RES1   0.0000
    61 H17      -4.8754    2.4476    1.4401   H         1 RES1   0.0000
    62 H18      -4.0280   -1.1904    2.6241   H         1 RES1   0.0000
    63 H19      -5.4813   -0.9741    1.6222   H         1 RES1   0.0000
    64 H20      -2.7370   -1.7198    0.5193   H         1 RES1   0.0000
    65 H21      -4.0059   -2.8560    0.9786   H         1 RES1   0.0000
    66 H22      -5.4896   -1.9175   -0.7781   H         1 RES1   0.0000
    67 H23      -4.1720   -0.8366   -1.2811   H         1 RES1   0.0000
    68 H24      -2.7158   -2.7575   -1.7319   H         1 RES1   0.0000
    69 H25      -3.9365   -3.8675   -1.0991   H         1 RES1   0.0000
    70 H26      -4.0871   -4.0820   -3.4218   H         1 RES1   0.0000
    71 H27      -5.4910   -3.1312   -2.9421   H         1 RES1   0.0000
    72 H28      -4.3903   -1.0658   -3.7278   H         1 RES1   0.0000
    73 H29      -2.8971   -1.9555   -4.0408   H         1 RES1   0.0000
    74 H30      -4.0263   -1.6113   -6.1327   H         1 RES1   0.0000
    75 H31      -4.1172   -3.3254   -5.7576   H         1 RES1   0.0000
    76 H32      -6.3703   -1.3392   -5.2148   H         1 RES1   0.0000
    77 H33      -6.2740   -2.3754   -6.6376   H         1 RES1   0.0000
    78 H34      -6.4602   -3.0929   -5.0443   H         1 RES1   0.0000
    79 H35      -2.6568    3.0506    1.5862   H         1 RES1   0.0000
    80 H36      -3.0916    1.8652   -1.2157   H         1 RES1   0.0000
    81 H37      -4.2019    2.9574   -0.3893   H         1 RES1   0.0000
    82 H38      -2.6600    3.5577   -0.9648   H         1 RES1   0.0000
    83 H39      -0.7071    3.9884    1.5982   H         1 RES1   0.0000
    84 H40       0.6226    3.3626   -1.0902   H         1 RES1   0.0000
    85 H41      -0.5749    4.6289   -0.7852   H         1 RES1   0.0000
    86 H42       1.0485    4.7736   -0.1228   H         1 RES1   0.0000
    87 H43       0.8651    5.1105    2.2007   H         1 RES1   0.0000
    88 H44       1.4173    4.6849    3.8161   H         1 RES1   0.0000
    89 H45       2.7239    6.4517    3.1414   H         1 RES1   0.0000
    90 H46       3.7944    5.0708    3.0099   H         1 RES1   0.0000
    91 H47       2.3400    6.2429    0.5938   H         1 RES1   0.0000
    92 H48       3.8582    6.8840    1.1880   H         1 RES1   0.0000
    93 H49       4.9759    4.7406    0.8926   H         1 RES1   0.0000
    94 H50       3.4831    4.0101    0.2621   H         1 RES1   0.0000
    95 H51       3.5716    5.4609   -1.7044   H         1 RES1   0.0000
    96 H52       4.8615    6.4171   -0.9854   H         1 RES1   0.0000
    97 H53       5.8584    4.9732   -2.6167   H         1 RES1   0.0000
    98 H54       6.3585    4.4134   -1.0215   H         1 RES1   0.0000
    99 H55       4.6654    2.5973   -1.1220   H         1 RES1   0.0000
   100 H56       4.1121    3.1994   -2.6864   H         1 RES1   0.0000
   101 H57       6.9237    2.1514   -2.0977   H         1 RES1   0.0000
   102 H58       5.6632    1.2829   -2.9831   H         1 RES1   0.0000
   103 H59       6.3658    2.7539   -3.6548   H         1 RES1   0.0000
   104 H60       2.6357    2.8668    4.2391   H         1 RES1   0.0000
   105 H61       2.3058    1.4376    3.2340   H         1 RES1   0.0000
   106 H62       4.4167    1.4320    2.3832   H         1 RES1   0.0000
   107 H63       4.4139    3.1542    2.0929   H         1 RES1   0.0000
   108 H64       6.1390    2.7527    3.6850   H         1 RES1   0.0000
   109 H65       4.8250    3.5466    4.5334   H         1 RES1   0.0000
   110 H66       5.2808    1.9130    6.0602   H         1 RES1   0.0000
   111 H67       4.1422    0.9873    5.0991   H         1 RES1   0.0000
   112 H68       7.1862    0.9641    4.8298   H         1 RES1   0.0000
   113 H69       6.2616   -0.2050    5.7486   H         1 RES1   0.0000
   114 H70       6.1585    0.1897    2.7316   H         1 RES1   0.0000
   115 H71       7.0022   -1.0853    3.5930   H         1 RES1   0.0000
   116 H72       3.9849   -0.6835    3.6199   H         1 RES1   0.0000
   117 H73       4.8564   -1.8404    2.6062   H         1 RES1   0.0000
   118 H74       4.7817   -1.8758    5.6574   H         1 RES1   0.0000
   119 H75       3.9235   -2.9744    4.5877   H         1 RES1   0.0000
   120 H76       5.6842   -3.0005    4.6520   H         1 RES1   0.0000
   121 C39       8.7422   -1.6451    0.5688   C.3       1 RES1   0.0000
   122 C40       7.3315   -1.5094    0.0094   C.3       1 RES1   0.0000
   123 C41       6.6345   -2.8566   -0.2057   C.3       1 RES1   0.0000
   124 C42       7.2246   -3.7175   -1.3280   C.3       1 RES1   0.0000
   125 C43       7.0952   -3.1492   -2.7474   C.3       1 RES1   0.0000
   126 C44       5.8789   -3.6382   -3.5416   C.3       1 RES1   0.0000
   127 C45       4.5167   -3.1863   -3.0104   C.3       1 RES1   0.0000
   128 C46       4.3965   -1.6644   -2.9192   C.3       1 RES1   0.0000
   129 N3        3.0023   -1.2423   -2.8390   N.am      1 RES1   0.0000
   130 C47       2.4078   -0.8329   -4.1171   C.3       1 RES1   0.0000
   131 C48       2.8751    0.5850   -4.4727   C.3       1 RES1   0.0000
   132 C49       2.2862    1.1236   -5.7844   C.3       1 RES1   0.0000
   133 C50       0.8756    1.7195   -5.6852   C.3       1 RES1   0.0000
   134 C51       0.8362    3.2376   -5.4725   C.3       1 RES1   0.0000
   135 C52       1.2723    3.6892   -4.0802   C.3       1 RES1   0.0000
   136 C53       1.1270    5.1943   -3.8378   C.3       1 RES1   0.0000
   137 C54      -0.3118    5.6951   -3.8579   C.3       1 RES1   0.0000
   138 C55       2.2604   -1.2819   -1.7462   C.2       1 RES1   0.0000
   139 O4        1.0169   -1.1616   -1.7529   O.2       1 RES1   0.0000
   140 C56       2.8982   -1.3613   -0.3425   C.3       1 RES1   0.0000
   141 C57       3.7354   -0.1122   -0.0603   C.3       1 RES1   0.0000
   142 O5        1.8224   -1.3092    0.6067   O.3       1 RES1   0.0000
   143 C58       1.5172   -2.4425    1.4154   C.3       1 RES1   0.0000
   144 C59       1.2100   -1.9048    2.8184   C.3       1 RES1   0.0000
   145 C60       0.1886   -3.0687    0.9300   C.2       1 RES1   0.0000
   146 O6       -0.5735   -2.2935    0.3137   O.2       1 RES1   0.0000
   147 N4       -0.1490   -4.2970    1.2848   N.am      1 RES1   0.0000
   148 C61      -1.4582   -4.8395    0.8969   C.3       1 RES1   0.0000
   149 C62      -2.2241   -5.6488    1.9489   C.3       1 RES1   0.0000
   150 C63      -3.0612   -4.8410    2.9533   C.3       1 RES1   0.0000
   151 C64      -4.4701   -5.4440    3.0655   C.3       1 RES1   0.0000
   152 C65      -5.2773   -5.4004    1.7559   C.3       1 RES1   0.0000
   153 C66      -6.3738   -4.3380    1.7609   C.3       1 RES1   0.0000
   154 C67      -7.0957   -4.2500    0.4168   C.3       1 RES1   0.0000
   155 C68      -8.0504   -3.0647    0.3699   C.3       1 RES1   0.0000
   156 C69       0.7786   -5.2420    1.8850   C.3       1 RES1   0.0000
   157 C70       1.2411   -6.3503    0.9330   C.3       1 RES1   0.0000
   158 C71       2.3088   -5.9471   -0.0864   C.3       1 RES1   0.0000
   159 C72       1.8741   -5.0634   -1.2652   C.3       1 RES1   0.0000
   160 C73       0.6711   -5.5589   -2.0685   C.3       1 RES1   0.0000
   161 C74       0.8105   -6.9819   -2.6032   C.3       1 RES1   0.0000
   162 C75      -0.4301   -7.4376   -3.3754   C.3       1 RES1   0.0000
   163 C76      -1.6544   -7.6402   -2.4890   C.3       1 RES1   0.0000
   164 H77       9.1642   -0.6622    0.7628   H         1 RES1   0.0000
   165 H78       9.3945   -2.1551   -0.1331   H         1 RES1   0.0000
   166 H79       8.7342   -2.2057    1.5009   H         1 RES1   0.0000
   167 H80       7.3697   -0.9521   -0.9290   H         1 RES1   0.0000
   168 H81       6.7377   -0.9217    0.7148   H         1 RES1   0.0000
   169 H82       5.5734   -2.6761   -0.3986   H         1 RES1   0.0000
   170 H83       6.6987   -3.4238    0.7277   H         1 RES1   0.0000
   171 H84       6.7506   -4.7000   -1.2948   H         1 RES1   0.0000
   172 H85       8.2794   -3.8695   -1.1039   H         1 RES1   0.0000
   173 H86       7.9758   -3.4564   -3.3122   H         1 RES1   0.0000
   174 H87       7.1052   -2.0599   -2.7238   H         1 RES1   0.0000
   175 H88       5.8903   -4.7304   -3.5641   H         1 RES1   0.0000
   176 H89       5.9822   -3.2916   -4.5729   H         1 RES1   0.0000
   177 H90       4.3503   -3.6266   -2.0279   H         1 RES1   0.0000
   178 H91       3.7437   -3.5624   -3.6832   H         1 RES1   0.0000
   179 H92       4.8158   -1.2212   -3.8218   H         1 RES1   0.0000
   180 H93       4.9718   -1.3055   -2.0707   H         1 RES1   0.0000
   181 H94       1.3216   -0.8637   -4.0316   H         1 RES1   0.0000
   182 H95       2.7255   -1.5426   -4.8806   H         1 RES1   0.0000
   183 H96       3.9645    0.5822   -4.5720   H         1 RES1   0.0000
   184 H97       2.6112    1.2454   -3.6483   H         1 RES1   0.0000
   185 H98       2.2883    0.3143   -6.5167   H         1 RES1   0.0000
   186 H99       2.9560    1.8968   -6.1629   H         1 RES1   0.0000
   187 H100      0.3127    1.2218   -4.8990   H         1 RES1   0.0000
   188 H101      0.3536    1.5160   -6.6212   H         1 RES1   0.0000
   189 H102     -0.1891    3.5680   -5.6419   H         1 RES1   0.0000
   190 H103      1.4645    3.7224   -6.2222   H         1 RES1   0.0000
   191 H104      2.3234    3.4337   -3.9352   H         1 RES1   0.0000
   192 H105      0.6879    3.1447   -3.3337   H         1 RES1   0.0000
   193 H106      1.7037    5.7403   -4.5851   H         1 RES1   0.0000
   194 H107      1.5627    5.4268   -2.8618   H         1 RES1   0.0000
   195 H108     -0.7174    5.6835   -4.8639   H         1 RES1   0.0000
   196 H109     -0.3604    6.7177   -3.4921   H         1 RES1   0.0000
   197 H110     -0.9457    5.0741   -3.2290   H         1 RES1   0.0000
   198 H111      3.4903   -2.2728   -0.2089   H         1 RES1   0.0000
   199 H112      3.0677    0.7522   -0.0408   H         1 RES1   0.0000
   200 H113      4.5105    0.0657   -0.7939   H         1 RES1   0.0000
   201 H114      4.2008   -0.2244    0.9145   H         1 RES1   0.0000
   202 H115      2.3698   -3.1251    1.4220   H         1 RES1   0.0000
   203 H116      0.3904   -1.1808    2.7353   H         1 RES1   0.0000
   204 H117      2.0892   -1.4162    3.2338   H         1 RES1   0.0000
   205 H118      0.9060   -2.7066    3.4828   H         1 RES1   0.0000
   206 H119     -1.2917   -5.5029    0.0464   H         1 RES1   0.0000
   207 H120     -2.0631   -4.0045    0.5524   H         1 RES1   0.0000
   208 H121     -1.5605   -6.3278    2.4803   H         1 RES1   0.0000
   209 H122     -2.9086   -6.2818    1.3821   H         1 RES1   0.0000
   210 H123     -3.1276   -3.7983    2.6459   H         1 RES1   0.0000
   211 H124     -2.5947   -4.8572    3.9405   H         1 RES1   0.0000
   212 H125     -5.0282   -4.9211    3.8432   H         1 RES1   0.0000
   213 H126     -4.3611   -6.4794    3.3880   H         1 RES1   0.0000
   214 H127     -5.7434   -6.3699    1.5726   H         1 RES1   0.0000
   215 H128     -4.6190   -5.2038    0.9076   H         1 RES1   0.0000
   216 H129     -5.9360   -3.3665    2.0012   H         1 RES1   0.0000
   217 H130     -7.0974   -4.5714    2.5410   H         1 RES1   0.0000
   218 H131     -7.6512   -5.1716    0.2427   H         1 RES1   0.0000
   219 H132     -6.3633   -4.1577   -0.3868   H         1 RES1   0.0000
   220 H133     -8.7770   -3.1276    1.1747   H         1 RES1   0.0000
   221 H134     -8.5891   -3.0401   -0.5723   H         1 RES1   0.0000
   222 H135     -7.5066   -2.1268    0.4767   H         1 RES1   0.0000
   223 H136      0.2686   -5.6982    2.7339   H         1 RES1   0.0000
   224 H137      1.6472   -4.7217    2.2853   H         1 RES1   0.0000
   225 H138      0.3867   -6.7861    0.4199   H         1 RES1   0.0000
   226 H139      1.6750   -7.1293    1.5624   H         1 RES1   0.0000
   227 H140      2.7151   -6.8702   -0.5000   H         1 RES1   0.0000
   228 H141      3.1363   -5.4516    0.4342   H         1 RES1   0.0000
   229 H142      2.7266   -5.0116   -1.9455   H         1 RES1   0.0000
   230 H143      1.6551   -4.0441   -0.9297   H         1 RES1   0.0000
   231 H144      0.5263   -4.8786   -2.9101   H         1 RES1   0.0000
   232 H145     -0.2274   -5.4921   -1.4631   H         1 RES1   0.0000
   233 H146      0.9830   -7.6791   -1.7810   H         1 RES1   0.0000
   234 H147      1.6783   -7.0301   -3.2639   H         1 RES1   0.0000
   235 H148     -0.1998   -8.3815   -3.8703   H         1 RES1   0.0000
   236 H149     -0.6639   -6.7092   -4.1526   H         1 RES1   0.0000
   237 H150     -1.4158   -8.2946   -1.6528   H         1 RES1   0.0000
   238 H151     -2.4526   -8.1037   -3.0611   H         1 RES1   0.0000
   239 H152     -2.0300   -6.6947   -2.1018   H         1 RES1   0.0000
   240 N5       -0.8496    0.3586   -2.2795   N.3       1 RES1   0.0000
   241 O7       -0.8674    0.0176   -3.4142   O.2       1 RES1   0.0000
   242 O8        0.0118    1.1325   -1.8345   O.co2     1 RES1   0.0000
   243 O9       -1.7217    0.0012   -1.4726   O.co2     1 RES1   0.0000
@<TRIPOS>BOND
     1     1    20    1
     2     1    23    1
     3     1    27    1
     4     1   139    1
     5     1   142    1
     6     1   146    1
     7     1   242    1
     8     1   243    1
     9     2     3    1
    10     2    45    1
    11     2    46    1
    12     2    47    1
    13     3     4    1
    14     3    48    1
    15     3    49    1
    16     4     5    1
    17     4    50    1
    18     4    51    1
    19     5     6    1
    20     5    52    1
    21     5    53    1
    22     6     7    1
    23     6    54    1
    24     6    55    1
    25     7     8    1
    26     7    56    1
    27     7    57    1
    28     8     9    1
    29     8    58    1
    30     8    59    1
    31     9    10    1
    32     9    60    1
    33     9    61    1
    34    10    11    1
    35    10    19    1
    36    11    12    1
    37    11    62    1
    38    11    63    1
    39    12    13    1
    40    12    64    1
    41    12    65    1
    42    13    14    1
    43    13    66    1
    44    13    67    1
    45    14    15    1
    46    14    68    1
    47    14    69    1
    48    15    16    1
    49    15    70    1
    50    15    71    1
    51    16    17    1
    52    16    72    1
    53    16    73    1
    54    17    18    1
    55    17    74    1
    56    17    75    1
    57    18    76    1
    58    18    77    1
    59    18    78    1
    60    19    20    2
    61    19    21    1
    62    21    22    1
    63    21    23    1
    64    21    79    1
    65    22    80    1
    66    22    81    1
    67    22    82    1
    68    23    24    1
    69    24    25    1
    70    24    26    1
    71    24    83    1
    72    25    84    1
    73    25    85    1
    74    25    86    1
    75    26    27    2
    76    26    28    1
    77    28    29    1
    78    28    37    1
    79    29    30    1
    80    29    87    1
    81    29    88    1
    82    30    31    1
    83    30    89    1
    84    30    90    1
    85    31    32    1
    86    31    91    1
    87    31    92    1
    88    32    33    1
    89    32    93    1
    90    32    94    1
    91    33    34    1
    92    33    95    1
    93    33    96    1
    94    34    35    1
    95    34    97    1
    96    34    98    1
    97    35    36    1
    98    35    99    1
    99    35   100    1
   100    36   101    1
   101    36   102    1
   102    36   103    1
   103    37    38    1
   104    37   104    1
   105    37   105    1
   106    38    39    1
   107    38   106    1
   108    38   107    1
   109    39    40    1
   110    39   108    1
   111    39   109    1
   112    40    41    1
   113    40   110    1
   114    40   111    1
   115    41    42    1
   116    41   112    1
   117    41   113    1
   118    42    43    1
   119    42   114    1
   120    42   115    1
   121    43    44    1
   122    43   116    1
   123    43   117    1
   124    44   118    1
   125    44   119    1
   126    44   120    1
   127   121   122    1
   128   121   164    1
   129   121   165    1
   130   121   166    1
   131   122   123    1
   132   122   167    1
   133   122   168    1
   134   123   124    1
   135   123   169    1
   136   123   170    1
   137   124   125    1
   138   124   171    1
   139   124   172    1
   140   125   126    1
   141   125   173    1
   142   125   174    1
   143   126   127    1
   144   126   175    1
   145   126   176    1
   146   127   128    1
   147   127   177    1
   148   127   178    1
   149   128   129    1
   150   128   179    1
   151   128   180    1
   152   129   130    1
   153   129   138    1
   154   130   131    1
   155   130   181    1
   156   130   182    1
   157   131   132    1
   158   131   183    1
   159   131   184    1
   160   132   133    1
   161   132   185    1
   162   132   186    1
   163   133   134    1
   164   133   187    1
   165   133   188    1
   166   134   135    1
   167   134   189    1
   168   134   190    1
   169   135   136    1
   170   135   191    1
   171   135   192    1
   172   136   137    1
   173   136   193    1
   174   136   194    1
   175   137   195    1
   176   137   196    1
   177   137   197    1
   178   138   139    2
   179   138   140    1
   180   140   141    1
   181   140   142    1
   182   140   198    1
   183   141   199    1
   184   141   200    1
   185   141   201    1
   186   142   143    1
   187   143   144    1
   188   143   145    1
   189   143   202    1
   190   144   203    1
   191   144   204    1
   192   144   205    1
   193   145   146    2
   194   145   147    1
   195   147   148    1
   196   147   156    1
   197   148   149    1
   198   148   206    1
   199   148   207    1
   200   149   150    1
   201   149   208    1
   202   149   209    1
   203   150   151    1
   204   150   210    1
   205   150   211    1
   206   151   152    1
   207   151   212    1
   208   151   213    1
   209   152   153    1
   210   152   214    1
   211   152   215    1
   212   153   154    1
   213   153   216    1
   214   153   217    1
   215   154   155    1
   216   154   218    1
   217   154   219    1
   218   155   220    1
   219   155   221    1
   220   155   222    1
   221   156   157    1
   222   156   223    1
   223   156   224    1
   224   157   158    1
   225   157   225    1
   226   157   226    1
   227   158   159    1
   228   158   227    1
   229   158   228    1
   230   159   160    1
   231   159   229    1
   232   159   230    1
   233   160   161    1
   234   160   231    1
   235   160   232    1
   236   161   162    1
   237   161   233    1
   238   161   234    1
   239   162   163    1
   240   162   235    1
   241   162   236    1
   242   163   237    1
   243   163   238    1
   244   163   239    1
   245   240   241    2
   246   240   242    1
   247   240   243    1
@<TRIPOS>SUBSTRUCTURE
     1 RES1      243 GROUP             0 ****  ****    0  
