@<TRIPOS>MOLECULE
ICIGOT_geomtry_0_nunpairedes_0_charge_1 Charge: 1 Unpaired_Electrons: 6 XTB_Unpaired_Electrons: 0 XTB_Charge: 1
   103   111     1     0     0
SMALL
NoCharges
****
Generated from Architector

@<TRIPOS>ATOM
     1 Eu1      -0.3771    0.0560   -0.0681   Eu        1 RES1   0.0000
     2 C1       -0.7479    8.3992    1.5914   C.3       1 RES1   0.0000
     3 C2       -2.0227    7.5802    1.4256   C.3       1 RES1   0.0000
     4 C3       -1.8226    6.0695    1.2708   C.3       1 RES1   0.0000
     5 C4       -1.0808    5.6260    0.0056   C.3       1 RES1   0.0000
     6 C5        0.4439    5.4711    0.1633   C.3       1 RES1   0.0000
     7 C6        0.8310    4.2537    0.9356   C.ar      1 RES1   0.0000
     8 N1        0.4988    3.1007    0.3767   N.ar      1 RES1   0.0000
     9 N2        0.7567    1.9590    0.9735   N.ar      1 RES1   0.0000
    10 C7        1.2769    1.9826    2.2070   C.ar      1 RES1   0.0000
    11 C8        1.4645    0.6495    2.8144   C.ar      1 RES1   0.0000
    12 C9        1.9207    0.4342    4.1107   C.ar      1 RES1   0.0000
    13 C10       2.0765   -0.8763    4.5363   C.ar      1 RES1   0.0000
    14 C11       1.8357   -1.9194    3.6576   C.ar      1 RES1   0.0000
    15 C12       1.4423   -1.6177    2.3539   C.ar      1 RES1   0.0000
    16 C13       1.4127   -2.5949    1.2442   C.ar      1 RES1   0.0000
    17 C14       1.7807   -3.9340    1.3581   C.ar      1 RES1   0.0000
    18 C15       1.9879   -4.6685    0.2011   C.ar      1 RES1   0.0000
    19 C16       1.8547   -4.0577   -1.0364   C.ar      1 RES1   0.0000
    20 C17       1.4298   -2.7309   -1.0653   C.ar      1 RES1   0.0000
    21 C18       1.3721   -1.8854   -2.2699   C.ar      1 RES1   0.0000
    22 N3        0.9944   -0.6184   -2.0452   N.ar      1 RES1   0.0000
    23 N4        0.8887    0.1898   -3.0717   N.ar      1 RES1   0.0000
    24 C19       1.2677   -0.1850   -4.2787   C.ar      1 RES1   0.0000
    25 C20       1.0491    0.7996   -5.3775   C.3       1 RES1   0.0000
    26 C21      -0.3950    1.3255   -5.4096   C.3       1 RES1   0.0000
    27 C22      -0.6876    2.2720   -6.5789   C.3       1 RES1   0.0000
    28 C23       0.1685    3.5356   -6.6679   C.3       1 RES1   0.0000
    29 C24       0.0445    4.4438   -5.4522   C.3       1 RES1   0.0000
    30 C25       1.8963   -1.4560   -4.4367   C.ar      1 RES1   0.0000
    31 C26       2.6093   -1.8625   -5.6765   C.3       1 RES1   0.0000
    32 C27       3.8287   -0.9983   -6.0553   C.3       1 RES1   0.0000
    33 C28       4.9843   -1.0287   -5.0579   C.3       1 RES1   0.0000
    34 C29       4.7924   -0.1428   -3.8313   C.3       1 RES1   0.0000
    35 C30       6.0168   -0.1920   -2.9256   C.3       1 RES1   0.0000
    36 N5        1.8447   -2.3173   -3.4316   N.ar      1 RES1   0.0000
    37 N6        1.1871   -2.0432    0.0519   N.ar      1 RES1   0.0000
    38 N7        1.2336   -0.3573    1.9700   N.ar      1 RES1   0.0000
    39 N8        1.6898    3.0906    2.8118   N.ar      1 RES1   0.0000
    40 C31       1.5431    4.2456    2.1738   C.ar      1 RES1   0.0000
    41 C32       2.1346    5.4698    2.7853   C.3       1 RES1   0.0000
    42 C33       3.6594    5.6372    2.5948   C.3       1 RES1   0.0000
    43 C34       4.1305    5.9473    1.1744   C.3       1 RES1   0.0000
    44 C35       4.2233    4.7390    0.2491   C.3       1 RES1   0.0000
    45 C36       4.7134    5.1427   -1.1366   C.3       1 RES1   0.0000
    46 H1       -1.0023    9.4393    1.7817   H         1 RES1   0.0000
    47 H2       -0.1564    8.0476    2.4353   H         1 RES1   0.0000
    48 H3       -0.1385    8.3729    0.6915   H         1 RES1   0.0000
    49 H4       -2.6477    7.7397    2.3058   H         1 RES1   0.0000
    50 H5       -2.5760    7.9627    0.5664   H         1 RES1   0.0000
    51 H6       -1.3188    5.6752    2.1559   H         1 RES1   0.0000
    52 H7       -2.8169    5.6222    1.2350   H         1 RES1   0.0000
    53 H8       -1.4790    4.6685   -0.3320   H         1 RES1   0.0000
    54 H9       -1.2663    6.3499   -0.7890   H         1 RES1   0.0000
    55 H10       0.8452    5.3562   -0.8448   H         1 RES1   0.0000
    56 H11       0.8645    6.3689    0.6041   H         1 RES1   0.0000
    57 H12       2.1340    1.2680    4.7530   H         1 RES1   0.0000
    58 H13       2.4216   -1.0940    5.5329   H         1 RES1   0.0000
    59 H14       1.9735   -2.9312    3.9952   H         1 RES1   0.0000
    60 H15       1.9128   -4.3943    2.3193   H         1 RES1   0.0000
    61 H16       2.3117   -5.6944    0.2598   H         1 RES1   0.0000
    62 H17       2.0828   -4.5884   -1.9428   H         1 RES1   0.0000
    63 H18       1.7180    1.6405   -5.1847   H         1 RES1   0.0000
    64 H19       1.2975    0.3638   -6.3429   H         1 RES1   0.0000
    65 H20      -1.0735    0.4748   -5.4981   H         1 RES1   0.0000
    66 H21      -0.6146    1.8197   -4.4660   H         1 RES1   0.0000
    67 H22      -0.5830    1.7275   -7.5198   H         1 RES1   0.0000
    68 H23      -1.7338    2.5734   -6.4924   H         1 RES1   0.0000
    69 H24       1.2156    3.2726   -6.8262   H         1 RES1   0.0000
    70 H25      -0.1540    4.0916   -7.5504   H         1 RES1   0.0000
    71 H26       0.3837    3.9430   -4.5495   H         1 RES1   0.0000
    72 H27       0.6455    5.3397   -5.5910   H         1 RES1   0.0000
    73 H28      -0.9888    4.7481   -5.3072   H         1 RES1   0.0000
    74 H29       2.9235   -2.9016   -5.5732   H         1 RES1   0.0000
    75 H30       1.9007   -1.7840   -6.5066   H         1 RES1   0.0000
    76 H31       4.1940   -1.3906   -7.0057   H         1 RES1   0.0000
    77 H32       3.5199    0.0334   -6.2213   H         1 RES1   0.0000
    78 H33       5.1571   -2.0557   -4.7342   H         1 RES1   0.0000
    79 H34       5.8834   -0.6909   -5.5780   H         1 RES1   0.0000
    80 H35       4.6165    0.8878   -4.1447   H         1 RES1   0.0000
    81 H36       3.9181   -0.4669   -3.2647   H         1 RES1   0.0000
    82 H37       6.9041    0.1167   -3.4728   H         1 RES1   0.0000
    83 H38       5.8932    0.4672   -2.0694   H         1 RES1   0.0000
    84 H39       6.1821   -1.2030   -2.5600   H         1 RES1   0.0000
    85 H40       1.6348    6.3535    2.3914   H         1 RES1   0.0000
    86 H41       1.9729    5.4252    3.8635   H         1 RES1   0.0000
    87 H42       3.9536    6.4754    3.2301   H         1 RES1   0.0000
    88 H43       4.1609    4.7459    2.9725   H         1 RES1   0.0000
    89 H44       3.4800    6.6984    0.7227   H         1 RES1   0.0000
    90 H45       5.1271    6.3883    1.2484   H         1 RES1   0.0000
    91 H46       4.9108    4.0070    0.6757   H         1 RES1   0.0000
    92 H47       3.2487    4.2575    0.1602   H         1 RES1   0.0000
    93 H48       5.6807    5.6344   -1.0680   H         1 RES1   0.0000
    94 H49       4.8182    4.2710   -1.7781   H         1 RES1   0.0000
    95 H50       4.0184    5.8340   -1.6083   H         1 RES1   0.0000
    96 N9       -2.1202   -1.5287    0.8007   N.3       1 RES1   0.0000
    97 O1       -3.0314   -2.1982    1.1644   O.2       1 RES1   0.0000
    98 O2       -1.6963   -1.5874   -0.3709   O.co2     1 RES1   0.0000
    99 O3       -1.5103   -0.7761    1.5803   O.co2     1 RES1   0.0000
   100 N10      -2.0475    1.6409   -1.1028   N.3       1 RES1   0.0000
   101 O4       -2.7289    2.4769   -1.5991   O.2       1 RES1   0.0000
   102 O5       -1.4040    0.8301   -1.7902   O.co2     1 RES1   0.0000
   103 O6       -1.9277    1.5406    0.1348   O.co2     1 RES1   0.0000
@<TRIPOS>BOND
     1     1     9    1
     2     1    22    1
     3     1    37    1
     4     1    38    1
     5     1    98    1
     6     1    99    1
     7     1   102    1
     8     1   103    1
     9     2     3    1
    10     2    46    1
    11     2    47    1
    12     2    48    1
    13     3     4    1
    14     3    49    1
    15     3    50    1
    16     4     5    1
    17     4    51    1
    18     4    52    1
    19     5     6    1
    20     5    53    1
    21     5    54    1
    22     6     7    1
    23     6    55    1
    24     6    56    1
    25     7     8    1
    26     7    40    2
    27     8     9    2
    28     9    10    1
    29    10    11    1
    30    10    39    2
    31    11    12    1
    32    11    38    2
    33    12    13    2
    34    12    57    1
    35    13    14    1
    36    13    58    1
    37    14    15    2
    38    14    59    1
    39    15    16    1
    40    15    38    1
    41    16    17    1
    42    16    37    2
    43    17    18    2
    44    17    60    1
    45    18    19    1
    46    18    61    1
    47    19    20    2
    48    19    62    1
    49    20    21    1
    50    20    37    1
    51    21    22    1
    52    21    36    2
    53    22    23    2
    54    23    24    1
    55    24    25    1
    56    24    30    2
    57    25    26    1
    58    25    63    1
    59    25    64    1
    60    26    27    1
    61    26    65    1
    62    26    66    1
    63    27    28    1
    64    27    67    1
    65    27    68    1
    66    28    29    1
    67    28    69    1
    68    28    70    1
    69    29    71    1
    70    29    72    1
    71    29    73    1
    72    30    31    1
    73    30    36    1
    74    31    32    1
    75    31    74    1
    76    31    75    1
    77    32    33    1
    78    32    76    1
    79    32    77    1
    80    33    34    1
    81    33    78    1
    82    33    79    1
    83    34    35    1
    84    34    80    1
    85    34    81    1
    86    35    82    1
    87    35    83    1
    88    35    84    1
    89    39    40    1
    90    40    41    1
    91    41    42    1
    92    41    85    1
    93    41    86    1
    94    42    43    1
    95    42    87    1
    96    42    88    1
    97    43    44    1
    98    43    89    1
    99    43    90    1
   100    44    45    1
   101    44    91    1
   102    44    92    1
   103    45    93    1
   104    45    94    1
   105    45    95    1
   106    96    97    2
   107    96    98    1
   108    96    99    1
   109   100   101    2
   110   100   102    1
   111   100   103    1
@<TRIPOS>SUBSTRUCTURE
     1 RES1      103 GROUP             0 ****  ****    0  
