@<TRIPOS>MOLECULE
ICIGOT_geomtry_0_nunpairedes_0_charge_1 Charge: 1 Unpaired_Electrons: 6 XTB_Unpaired_Electrons: 0 XTB_Charge: 1
    77    87     1     0     0
SMALL
NoCharges
****
Generated from Architector

@<TRIPOS>ATOM
     1 Eu1      -0.3864    0.0178   -0.0317   Eu        1 RES1   0.0000
     2 C1       -0.7028    0.9196   -5.8910   C.3       1 RES1   0.0000
     3 C2        0.7654    0.7076   -5.5223   C.3       1 RES1   0.0000
     4 C3        1.4689    2.0445   -5.2978   C.3       1 RES1   0.0000
     5 S1        1.6020   -0.1979   -6.9005   S.3       1 RES1   0.0000
     6 C4        2.0572   -1.6998   -5.9213   C.3       1 RES1   0.0000
     7 C5        3.5824   -1.8078   -5.9081   C.3       1 RES1   0.0000
     8 C6        1.4019   -2.9207   -6.5591   C.3       1 RES1   0.0000
     9 C7        1.5348   -1.4450   -4.5482   C.ar      1 RES1   0.0000
    10 N1        1.6763   -2.2913   -3.5419   N.ar      1 RES1   0.0000
    11 C8        1.2534   -1.8580   -2.3530   C.ar      1 RES1   0.0000
    12 C9        1.4735   -2.6551   -1.1261   C.ar      1 RES1   0.0000
    13 C10       1.9660   -3.9554   -1.1202   C.ar      1 RES1   0.0000
    14 C11       2.2158   -4.5498    0.1065   C.ar      1 RES1   0.0000
    15 C12       2.0312   -3.8289    1.2734   C.ar      1 RES1   0.0000
    16 C13       1.5753   -2.5120    1.1867   C.ar      1 RES1   0.0000
    17 C14       1.5636   -1.5479    2.3113   C.ar      1 RES1   0.0000
    18 C15       2.0105   -1.8438    3.5973   C.ar      1 RES1   0.0000
    19 C16       2.1690   -0.8111    4.5066   C.ar      1 RES1   0.0000
    20 C17       1.8853    0.4890    4.1248   C.ar      1 RES1   0.0000
    21 C18       1.4104    0.6988    2.8341   C.ar      1 RES1   0.0000
    22 C19       1.1547    2.0298    2.2526   C.ar      1 RES1   0.0000
    23 N2        0.6315    2.0126    1.0232   N.ar      1 RES1   0.0000
    24 N3        0.4290    3.1464    0.3850   N.ar      1 RES1   0.0000
    25 C20       0.7978    4.2731    0.9639   C.ar      1 RES1   0.0000
    26 C21       1.3644    4.2665    2.2581   C.ar      1 RES1   0.0000
    27 N4        1.5185    3.1300    2.9106   N.ar      1 RES1   0.0000
    28 C22       1.8067    5.5807    2.8000   C.3       1 RES1   0.0000
    29 C23       1.0860    5.9410    4.0964   C.3       1 RES1   0.0000
    30 C24       3.3279    5.6021    2.9659   C.3       1 RES1   0.0000
    31 S2        1.3476    6.8119    1.5015   S.3       1 RES1   0.0000
    32 C25       0.6546    5.5941    0.2925   C.3       1 RES1   0.0000
    33 C26       1.4793    5.6547   -0.9918   C.3       1 RES1   0.0000
    34 C27      -0.8084    5.9442    0.0314   C.3       1 RES1   0.0000
    35 N5        1.2515   -0.2986    1.9614   N.ar      1 RES1   0.0000
    36 N6        1.2661   -1.9728    0.0040   N.ar      1 RES1   0.0000
    37 N7        0.7267   -0.6494   -2.1321   N.ar      1 RES1   0.0000
    38 N8        0.5439    0.1775   -3.1342   N.ar      1 RES1   0.0000
    39 C28       0.9177   -0.1917   -4.3427   C.ar      1 RES1   0.0000
    40 H1       -0.7620    1.5438   -6.7803   H         1 RES1   0.0000
    41 H2       -1.1883   -0.0282   -6.1127   H         1 RES1   0.0000
    42 H3       -1.2344    1.4119   -5.0799   H         1 RES1   0.0000
    43 H4        1.3821    2.6510   -6.1963   H         1 RES1   0.0000
    44 H5        1.0140    2.5748   -4.4643   H         1 RES1   0.0000
    45 H6        2.5266    1.8937   -5.0921   H         1 RES1   0.0000
    46 H7        3.9352   -1.9373   -6.9284   H         1 RES1   0.0000
    47 H8        4.0221   -0.8954   -5.5094   H         1 RES1   0.0000
    48 H9        3.9080   -2.6518   -5.3052   H         1 RES1   0.0000
    49 H10       1.7772   -3.0400   -7.5726   H         1 RES1   0.0000
    50 H11       1.6243   -3.8163   -5.9846   H         1 RES1   0.0000
    51 H12       0.3237   -2.7848   -6.6051   H         1 RES1   0.0000
    52 H13       2.1387   -4.4650   -2.0493   H         1 RES1   0.0000
    53 H14       2.5993   -5.5562    0.1586   H         1 RES1   0.0000
    54 H15       2.2595   -4.2936    2.2158   H         1 RES1   0.0000
    55 H16       2.2449   -2.8510    3.8856   H         1 RES1   0.0000
    56 H17       2.5575   -1.0070    5.4924   H         1 RES1   0.0000
    57 H18       2.0379    1.3139    4.7981   H         1 RES1   0.0000
    58 H19       1.3028    5.2137    4.8753   H         1 RES1   0.0000
    59 H20       1.4125    6.9256    4.4233   H         1 RES1   0.0000
    60 H21       0.0117    5.9740    3.9285   H         1 RES1   0.0000
    61 H22       3.6542    4.8591    3.6900   H         1 RES1   0.0000
    62 H23       3.8147    5.4050    2.0126   H         1 RES1   0.0000
    63 H24       3.6303    6.5901    3.3042   H         1 RES1   0.0000
    64 H25       2.5303    5.4634   -0.7837   H         1 RES1   0.0000
    65 H26       1.1203    4.9248   -1.7138   H         1 RES1   0.0000
    66 H27       1.3931    6.6507   -1.4193   H         1 RES1   0.0000
    67 H28      -1.3724    5.9629    0.9613   H         1 RES1   0.0000
    68 H29      -0.8594    6.9346   -0.4147   H         1 RES1   0.0000
    69 H30      -1.2677    5.2284   -0.6466   H         1 RES1   0.0000
    70 N9       -1.9873   -1.8362    0.4583   N.3       1 RES1   0.0000
    71 O1       -2.7991   -2.6755    0.6706   O.2       1 RES1   0.0000
    72 O2       -1.7328   -1.4587   -0.7033   O.co2     1 RES1   0.0000
    73 O3       -1.3207   -1.3286    1.3763   O.co2     1 RES1   0.0000
    74 N10      -2.1478    1.7041   -0.5475   N.3       1 RES1   0.0000
    75 O4       -3.0106    2.4744   -0.8081   O.2       1 RES1   0.0000
    76 O5       -2.0393    1.2004    0.5910   O.co2     1 RES1   0.0000
    77 O6       -1.2961    1.3707   -1.3881   O.co2     1 RES1   0.0000
@<TRIPOS>BOND
     1     1    23    1
     2     1    35    1
     3     1    36    1
     4     1    37    1
     5     1    72    1
     6     1    73    1
     7     1    76    1
     8     1    77    1
     9     2     3    1
    10     2    40    1
    11     2    41    1
    12     2    42    1
    13     3     4    1
    14     3     5    1
    15     3    39    1
    16     4    43    1
    17     4    44    1
    18     4    45    1
    19     5     6    1
    20     6     7    1
    21     6     8    1
    22     6     9    1
    23     7    46    1
    24     7    47    1
    25     7    48    1
    26     8    49    1
    27     8    50    1
    28     8    51    1
    29     9    10    1
    30     9    39    2
    31    10    11    2
    32    11    12    1
    33    11    37    1
    34    12    13    1
    35    12    36    2
    36    13    14    2
    37    13    52    1
    38    14    15    1
    39    14    53    1
    40    15    16    2
    41    15    54    1
    42    16    17    1
    43    16    36    1
    44    17    18    1
    45    17    35    2
    46    18    19    2
    47    18    55    1
    48    19    20    1
    49    19    56    1
    50    20    21    2
    51    20    57    1
    52    21    22    1
    53    21    35    1
    54    22    23    1
    55    22    27    2
    56    23    24    2
    57    24    25    1
    58    25    26    2
    59    25    32    1
    60    26    27    1
    61    26    28    1
    62    28    29    1
    63    28    30    1
    64    28    31    1
    65    29    58    1
    66    29    59    1
    67    29    60    1
    68    30    61    1
    69    30    62    1
    70    30    63    1
    71    31    32    1
    72    32    33    1
    73    32    34    1
    74    33    64    1
    75    33    65    1
    76    33    66    1
    77    34    67    1
    78    34    68    1
    79    34    69    1
    80    37    38    2
    81    38    39    1
    82    70    71    2
    83    70    72    1
    84    70    73    1
    85    74    75    2
    86    74    76    1
    87    74    77    1
@<TRIPOS>SUBSTRUCTURE
     1 RES1       77 GROUP             0 ****  ****    0  
