@<TRIPOS>MOLECULE
ICIGOT_geomtry_0_nunpairedes_0_charge_1 Charge: 1 Unpaired_Electrons: 6 XTB_Unpaired_Electrons: 0 XTB_Charge: 1
   103   111     1     0     0
SMALL
NoCharges
****
Generated from Architector

@<TRIPOS>ATOM
     1 Eu1      -0.3903   -0.0133   -0.0288   Eu        1 RES1   0.0000
     2 C1       -4.4152    4.0558    0.5477   C.3       1 RES1   0.0000
     3 C2       -3.1942    4.8229    0.0599   C.3       1 RES1   0.0000
     4 C3       -2.4649    5.4811    1.2273   C.3       1 RES1   0.0000
     5 C4       -1.2578    6.3219    0.8188   C.3       1 RES1   0.0000
     6 C5       -0.1237    5.5018    0.1809   C.3       1 RES1   0.0000
     7 C6        0.3742    4.3339    0.9684   C.ar      1 RES1   0.0000
     8 N1        0.1916    3.1598    0.3783   N.ar      1 RES1   0.0000
     9 N2        0.5749    2.0407    0.9467   N.ar      1 RES1   0.0000
    10 C7        1.0925    2.0978    2.1814   C.ar      1 RES1   0.0000
    11 C8        1.4839    0.7939    2.7537   C.ar      1 RES1   0.0000
    12 C9        2.0304    0.6302    4.0238   C.ar      1 RES1   0.0000
    13 C10       2.4149   -0.6457    4.4061   C.ar      1 RES1   0.0000
    14 C11       2.2884   -1.6997    3.5162   C.ar      1 RES1   0.0000
    15 C12       1.7748   -1.4435    2.2455   C.ar      1 RES1   0.0000
    16 C13       1.8078   -2.4065    1.1242   C.ar      1 RES1   0.0000
    17 C14       2.3456   -3.6903    1.1947   C.ar      1 RES1   0.0000
    18 C15       2.5319   -4.4017    0.0198   C.ar      1 RES1   0.0000
    19 C16       2.2109   -3.8204   -1.1967   C.ar      1 RES1   0.0000
    20 C17       1.6591   -2.5430   -1.1771   C.ar      1 RES1   0.0000
    21 C18       1.3996   -1.7203   -2.3679   C.ar      1 RES1   0.0000
    22 N3        0.8921   -0.5084   -2.1006   N.ar      1 RES1   0.0000
    23 N4        0.8157    0.3638   -3.0718   N.ar      1 RES1   0.0000
    24 C19       1.1769    0.0408   -4.3022   C.ar      1 RES1   0.0000
    25 C20       1.1199    1.1406   -5.3063   C.3       1 RES1   0.0000
    26 C21       1.6182    2.4859   -4.7615   C.3       1 RES1   0.0000
    27 C22       3.0681    2.4679   -4.2762   C.3       1 RES1   0.0000
    28 C23       4.1033    2.2047   -5.3676   C.3       1 RES1   0.0000
    29 C24       5.5212    2.2910   -4.8149   C.3       1 RES1   0.0000
    30 C25       1.6145   -1.2849   -4.5854   C.ar      1 RES1   0.0000
    31 C26       2.0545   -1.7394   -5.9324   C.3       1 RES1   0.0000
    32 C27       0.9709   -1.8037   -7.0228   C.3       1 RES1   0.0000
    33 C28      -0.0839   -2.8810   -6.7904   C.3       1 RES1   0.0000
    34 C29      -1.0821   -2.6079   -5.6667   C.3       1 RES1   0.0000
    35 C30      -1.9861   -1.4075   -5.9157   C.3       1 RES1   0.0000
    36 N5        1.7599   -2.1322   -3.5733   N.ar      1 RES1   0.0000
    37 N6        1.4399   -1.8787   -0.0419   N.ar      1 RES1   0.0000
    38 N7        1.3615   -0.2223    1.8998   N.ar      1 RES1   0.0000
    39 N8        1.3550    3.2325    2.8163   N.ar      1 RES1   0.0000
    40 C31       1.0599    4.3815    2.2155   C.ar      1 RES1   0.0000
    41 C32       1.4931    5.6281    2.9144   C.3       1 RES1   0.0000
    42 C33       2.5112    6.5119    2.1657   C.3       1 RES1   0.0000
    43 C34       3.7309    5.7558    1.6440   C.3       1 RES1   0.0000
    44 C35       4.5584    5.1017    2.7458   C.3       1 RES1   0.0000
    45 C36       5.7808    4.3976    2.1725   C.3       1 RES1   0.0000
    46 H1       -4.9246    3.5876   -0.2897   H         1 RES1   0.0000
    47 H2       -5.1107    4.7200    1.0562   H         1 RES1   0.0000
    48 H3       -4.1123    3.2771    1.2449   H         1 RES1   0.0000
    49 H4       -3.5013    5.5852   -0.6577   H         1 RES1   0.0000
    50 H5       -2.5309    4.1282   -0.4551   H         1 RES1   0.0000
    51 H6       -2.1410    4.7070    1.9280   H         1 RES1   0.0000
    52 H7       -3.1677    6.1302    1.7548   H         1 RES1   0.0000
    53 H8       -0.8802    6.8531    1.6932   H         1 RES1   0.0000
    54 H9       -1.5680    7.0776    0.0923   H         1 RES1   0.0000
    55 H10       0.7062    6.1820   -0.0160   H         1 RES1   0.0000
    56 H11      -0.4739    5.1052   -0.7708   H         1 RES1   0.0000
    57 H12       2.1377    1.4742    4.6781   H         1 RES1   0.0000
    58 H13       2.8523   -0.8220    5.3750   H         1 RES1   0.0000
    59 H14       2.6042   -2.6815    3.8209   H         1 RES1   0.0000
    60 H15       2.6262   -4.1249    2.1351   H         1 RES1   0.0000
    61 H16       2.9839   -5.3792    0.0404   H         1 RES1   0.0000
    62 H17       2.3945   -4.3310   -2.1242   H         1 RES1   0.0000
    63 H18       0.0710    1.2759   -5.5840   H         1 RES1   0.0000
    64 H19       1.6799    0.8732   -6.1998   H         1 RES1   0.0000
    65 H20       0.9763    2.7917   -3.9339   H         1 RES1   0.0000
    66 H21       1.5142    3.2225   -5.5602   H         1 RES1   0.0000
    67 H22       3.1739    1.7217   -3.4848   H         1 RES1   0.0000
    68 H23       3.2828    3.4430   -3.8347   H         1 RES1   0.0000
    69 H24       3.9848    2.9357   -6.1681   H         1 RES1   0.0000
    70 H25       3.9566    1.2146   -5.8005   H         1 RES1   0.0000
    71 H26       5.7152    3.2792   -4.4042   H         1 RES1   0.0000
    72 H27       6.2535    2.0987   -5.5951   H         1 RES1   0.0000
    73 H28       5.6690    1.5604   -4.0216   H         1 RES1   0.0000
    74 H29       2.5227   -2.7203   -5.8310   H         1 RES1   0.0000
    75 H30       2.8083   -1.0239   -6.2757   H         1 RES1   0.0000
    76 H31       1.4824   -2.0339   -7.9604   H         1 RES1   0.0000
    77 H32       0.4942   -0.8318   -7.1344   H         1 RES1   0.0000
    78 H33       0.4225   -3.8253   -6.5804   H         1 RES1   0.0000
    79 H34      -0.6422   -2.9991   -7.7220   H         1 RES1   0.0000
    80 H35      -0.5604   -2.4785   -4.7173   H         1 RES1   0.0000
    81 H36      -1.7060   -3.4974   -5.5696   H         1 RES1   0.0000
    82 H37      -1.4222   -0.4793   -5.9677   H         1 RES1   0.0000
    83 H38      -2.7080   -1.3091   -5.1089   H         1 RES1   0.0000
    84 H39      -2.5306   -1.5281   -6.8489   H         1 RES1   0.0000
    85 H40       1.9256    5.3306    3.8695   H         1 RES1   0.0000
    86 H41       0.6115    6.2451    3.1061   H         1 RES1   0.0000
    87 H42       2.8375    7.2881    2.8619   H         1 RES1   0.0000
    88 H43       2.0257    7.0164    1.3306   H         1 RES1   0.0000
    89 H44       4.3652    6.4617    1.1023   H         1 RES1   0.0000
    90 H45       3.4087    4.9907    0.9314   H         1 RES1   0.0000
    91 H46       3.9480    4.3765    3.2844   H         1 RES1   0.0000
    92 H47       4.8788    5.8644    3.4560   H         1 RES1   0.0000
    93 H48       5.4797    3.6235    1.4687   H         1 RES1   0.0000
    94 H49       6.3651    3.9350    2.9638   H         1 RES1   0.0000
    95 H50       6.4174    5.1047    1.6460   H         1 RES1   0.0000
    96 N9       -1.9601   -1.6189    1.0307   N.3       1 RES1   0.0000
    97 O1       -2.9314   -2.1806    1.4116   O.2       1 RES1   0.0000
    98 O2       -1.4682   -1.8507   -0.0926   O.co2     1 RES1   0.0000
    99 O3       -1.3499   -0.8019    1.7450   O.co2     1 RES1   0.0000
   100 N10      -2.3807    1.1647   -1.0545   N.3       1 RES1   0.0000
   101 O4       -3.3044    1.7313   -1.5351   O.2       1 RES1   0.0000
   102 O5       -2.0701    1.3073    0.1465   O.co2     1 RES1   0.0000
   103 O6       -1.6678    0.3914   -1.7211   O.co2     1 RES1   0.0000
@<TRIPOS>BOND
     1     1     9    1
     2     1    22    1
     3     1    37    1
     4     1    38    1
     5     1    98    1
     6     1    99    1
     7     1   102    1
     8     1   103    1
     9     2     3    1
    10     2    46    1
    11     2    47    1
    12     2    48    1
    13     3     4    1
    14     3    49    1
    15     3    50    1
    16     4     5    1
    17     4    51    1
    18     4    52    1
    19     5     6    1
    20     5    53    1
    21     5    54    1
    22     6     7    1
    23     6    55    1
    24     6    56    1
    25     7     8    1
    26     7    40    2
    27     8     9    2
    28     9    10    1
    29    10    11    1
    30    10    39    2
    31    11    12    1
    32    11    38    2
    33    12    13    2
    34    12    57    1
    35    13    14    1
    36    13    58    1
    37    14    15    2
    38    14    59    1
    39    15    16    1
    40    15    38    1
    41    16    17    1
    42    16    37    2
    43    17    18    2
    44    17    60    1
    45    18    19    1
    46    18    61    1
    47    19    20    2
    48    19    62    1
    49    20    21    1
    50    20    37    1
    51    21    22    1
    52    21    36    2
    53    22    23    2
    54    23    24    1
    55    24    25    1
    56    24    30    2
    57    25    26    1
    58    25    63    1
    59    25    64    1
    60    26    27    1
    61    26    65    1
    62    26    66    1
    63    27    28    1
    64    27    67    1
    65    27    68    1
    66    28    29    1
    67    28    69    1
    68    28    70    1
    69    29    71    1
    70    29    72    1
    71    29    73    1
    72    30    31    1
    73    30    36    1
    74    31    32    1
    75    31    74    1
    76    31    75    1
    77    32    33    1
    78    32    76    1
    79    32    77    1
    80    33    34    1
    81    33    78    1
    82    33    79    1
    83    34    35    1
    84    34    80    1
    85    34    81    1
    86    35    82    1
    87    35    83    1
    88    35    84    1
    89    39    40    1
    90    40    41    1
    91    41    42    1
    92    41    85    1
    93    41    86    1
    94    42    43    1
    95    42    87    1
    96    42    88    1
    97    43    44    1
    98    43    89    1
    99    43    90    1
   100    44    45    1
   101    44    91    1
   102    44    92    1
   103    45    93    1
   104    45    94    1
   105    45    95    1
   106    96    97    2
   107    96    98    1
   108    96    99    1
   109   100   101    2
   110   100   102    1
   111   100   103    1
@<TRIPOS>SUBSTRUCTURE
     1 RES1      103 GROUP             0 ****  ****    0  
