@<TRIPOS>MOLECULE
ICIGOT_geomtry_0_nunpairedes_0_charge_1 Charge: 1 Unpaired_Electrons: 6 XTB_Unpaired_Electrons: 0 XTB_Charge: 1
    89   100     1     0     0
SMALL
NoCharges
****
Generated from Architector

@<TRIPOS>ATOM
     1 Eu1      -0.3599    0.0209   -0.0512   Eu        1 RES1   0.0000
     2 C1        1.1668    1.8271   -5.3866   C.3       1 RES1   0.0000
     3 C2        0.3078    0.5642   -5.5490   C.3       1 RES1   0.0000
     4 C3       -1.1657    0.9780   -5.4592   C.3       1 RES1   0.0000
     5 C4        0.5585   -0.0793   -6.9143   C.3       1 RES1   0.0000
     6 C5        1.8679   -0.8460   -6.9493   C.3       1 RES1   0.0000
     7 C6        1.9043   -2.0144   -5.9595   C.3       1 RES1   0.0000
     8 C7        3.3557   -2.4801   -5.8116   C.3       1 RES1   0.0000
     9 C8        1.0524   -3.1774   -6.4811   C.3       1 RES1   0.0000
    10 C9        1.3618   -1.6065   -4.6234   C.ar      1 RES1   0.0000
    11 N1        1.5607   -2.4057   -3.5816   N.ar      1 RES1   0.0000
    12 C10       1.1937   -1.9609   -2.3871   C.ar      1 RES1   0.0000
    13 C11       1.4717   -2.7072   -1.1380   C.ar      1 RES1   0.0000
    14 C12       2.0128   -3.9986   -1.0498   C.ar      1 RES1   0.0000
    15 C13       2.3267   -4.5149    0.1883   C.ar      1 RES1   0.0000
    16 C14       2.1683   -3.7292    1.3414   C.ar      1 RES1   0.0000
    17 C15       2.5896   -4.1160    2.6466   C.ar      1 RES1   0.0000
    18 C16       2.5525   -3.2409    3.6830   C.ar      1 RES1   0.0000
    19 C17       2.1027   -1.9009    3.4994   C.ar      1 RES1   0.0000
    20 C18       2.1940   -0.8938    4.4734   C.ar      1 RES1   0.0000
    21 C19       1.8508    0.4026    4.1608   C.ar      1 RES1   0.0000
    22 C20       1.3767    0.6938    2.8724   C.ar      1 RES1   0.0000
    23 C21       1.0548    2.0406    2.3528   C.ar      1 RES1   0.0000
    24 N2        0.5095    2.0440    1.1257   N.ar      1 RES1   0.0000
    25 N3        0.3098    3.1900    0.5216   N.ar      1 RES1   0.0000
    26 C22       0.6297    4.3333    1.1084   C.ar      1 RES1   0.0000
    27 C23       1.1158    4.3096    2.4429   C.ar      1 RES1   0.0000
    28 N4        1.3341    3.1430    3.0349   N.ar      1 RES1   0.0000
    29 C24       1.4583    5.5600    3.1937   C.3       1 RES1   0.0000
    30 C25       0.9158    5.4922    4.6227   C.3       1 RES1   0.0000
    31 C26       2.9920    5.6380    3.2423   C.3       1 RES1   0.0000
    32 C27       0.8890    6.8002    2.5015   C.3       1 RES1   0.0000
    33 C28       1.1037    6.7831    0.9992   C.3       1 RES1   0.0000
    34 C29       0.4069    5.5976    0.3238   C.3       1 RES1   0.0000
    35 C30      -1.1031    5.8632    0.2239   C.3       1 RES1   0.0000
    36 C31       0.9576    5.4588   -1.1002   C.3       1 RES1   0.0000
    37 N5        1.2513   -0.2528    1.9499   N.ar      1 RES1   0.0000
    38 C32       1.6080   -1.5075    2.2394   C.ar      1 RES1   0.0000
    39 C33       1.6260   -2.4426    1.1479   C.ar      1 RES1   0.0000
    40 N6        1.2565   -1.9762   -0.0486   N.ar      1 RES1   0.0000
    41 N7        0.6697   -0.7409   -2.1802   N.ar      1 RES1   0.0000
    42 N8        0.3739    0.0057   -3.2086   N.ar      1 RES1   0.0000
    43 C34       0.6652   -0.3849   -4.4383   C.ar      1 RES1   0.0000
    44 H1        0.9328    2.5248   -6.1872   H         1 RES1   0.0000
    45 H2        0.9542    2.3004   -4.4330   H         1 RES1   0.0000
    46 H3        2.2273    1.5967   -5.4354   H         1 RES1   0.0000
    47 H4       -1.3889    1.6715   -6.2680   H         1 RES1   0.0000
    48 H5       -1.8195    0.1158   -5.5662   H         1 RES1   0.0000
    49 H6       -1.3791    1.4659   -4.5131   H         1 RES1   0.0000
    50 H7       -0.2702   -0.7460   -7.1489   H         1 RES1   0.0000
    51 H8        0.5761    0.7011   -7.6764   H         1 RES1   0.0000
    52 H9        2.0304   -1.2378   -7.9529   H         1 RES1   0.0000
    53 H10       2.6893   -0.1669   -6.7227   H         1 RES1   0.0000
    54 H11       3.7344   -2.7777   -6.7866   H         1 RES1   0.0000
    55 H12       3.9788   -1.6717   -5.4339   H         1 RES1   0.0000
    56 H13       3.4256   -3.3203   -5.1287   H         1 RES1   0.0000
    57 H14       1.4304   -3.4884   -7.4515   H         1 RES1   0.0000
    58 H15       1.1031   -4.0139   -5.7921   H         1 RES1   0.0000
    59 H16       0.0140   -2.8801   -6.5922   H         1 RES1   0.0000
    60 H17       2.1789   -4.5645   -1.9485   H         1 RES1   0.0000
    61 H18       2.7520   -5.5005    0.2855   H         1 RES1   0.0000
    62 H19       2.9802   -5.1109    2.7871   H         1 RES1   0.0000
    63 H20       2.9125   -3.5351    4.6558   H         1 RES1   0.0000
    64 H21       2.5817   -1.1443    5.4475   H         1 RES1   0.0000
    65 H22       1.9485    1.1927    4.8832   H         1 RES1   0.0000
    66 H23       1.3162    4.6297    5.1451   H         1 RES1   0.0000
    67 H24       1.1976    6.3965    5.1571   H         1 RES1   0.0000
    68 H25      -0.1694    5.4219    4.6123   H         1 RES1   0.0000
    69 H26       3.3940    4.7692    3.7539   H         1 RES1   0.0000
    70 H27       3.4157    5.6770    2.2427   H         1 RES1   0.0000
    71 H28       3.2863    6.5367    3.7777   H         1 RES1   0.0000
    72 H29      -0.1770    6.8651    2.7145   H         1 RES1   0.0000
    73 H30       1.3657    7.6842    2.9253   H         1 RES1   0.0000
    74 H31       0.7170    7.7083    0.5707   H         1 RES1   0.0000
    75 H32       2.1692    6.7407    0.7751   H         1 RES1   0.0000
    76 H33      -1.5569    5.9802    1.2032   H         1 RES1   0.0000
    77 H34      -1.2610    6.7835   -0.3338   H         1 RES1   0.0000
    78 H35      -1.6068    5.0553   -0.2979   H         1 RES1   0.0000
    79 H36       2.0288    5.2688   -1.0873   H         1 RES1   0.0000
    80 H37       0.4646    4.6539   -1.6362   H         1 RES1   0.0000
    81 H38       0.7858    6.3920   -1.6332   H         1 RES1   0.0000
    82 N9       -2.0361   -1.7543    0.5038   N.3       1 RES1   0.0000
    83 O1       -2.9593   -2.4550    0.7588   O.2       1 RES1   0.0000
    84 O2       -1.7443   -1.4648   -0.6748   O.co2     1 RES1   0.0000
    85 O3       -1.2898   -1.3089    1.3918   O.co2     1 RES1   0.0000
    86 N10      -2.0845    1.7378   -0.6002   N.3       1 RES1   0.0000
    87 O4       -2.8976    2.5575   -0.8799   O.2       1 RES1   0.0000
    88 O5       -2.1272    1.1060    0.4743   O.co2     1 RES1   0.0000
    89 O6       -1.1398    1.4796   -1.3644   O.co2     1 RES1   0.0000
@<TRIPOS>BOND
     1     1    24    1
     2     1    37    1
     3     1    40    1
     4     1    41    1
     5     1    84    1
     6     1    85    1
     7     1    88    1
     8     1    89    1
     9     2     3    1
    10     2    44    1
    11     2    45    1
    12     2    46    1
    13     3     4    1
    14     3     5    1
    15     3    43    1
    16     4    47    1
    17     4    48    1
    18     4    49    1
    19     5     6    1
    20     5    50    1
    21     5    51    1
    22     6     7    1
    23     6    52    1
    24     6    53    1
    25     7     8    1
    26     7     9    1
    27     7    10    1
    28     8    54    1
    29     8    55    1
    30     8    56    1
    31     9    57    1
    32     9    58    1
    33     9    59    1
    34    10    11    1
    35    10    43    2
    36    11    12    2
    37    12    13    1
    38    12    41    1
    39    13    14    1
    40    13    40    2
    41    14    15    2
    42    14    60    1
    43    15    16    1
    44    15    61    1
    45    16    17    1
    46    16    39    2
    47    17    18    2
    48    17    62    1
    49    18    19    1
    50    18    63    1
    51    19    20    1
    52    19    38    2
    53    20    21    2
    54    20    64    1
    55    21    22    1
    56    21    65    1
    57    22    23    1
    58    22    37    2
    59    23    24    1
    60    23    28    2
    61    24    25    2
    62    25    26    1
    63    26    27    2
    64    26    34    1
    65    27    28    1
    66    27    29    1
    67    29    30    1
    68    29    31    1
    69    29    32    1
    70    30    66    1
    71    30    67    1
    72    30    68    1
    73    31    69    1
    74    31    70    1
    75    31    71    1
    76    32    33    1
    77    32    72    1
    78    32    73    1
    79    33    34    1
    80    33    74    1
    81    33    75    1
    82    34    35    1
    83    34    36    1
    84    35    76    1
    85    35    77    1
    86    35    78    1
    87    36    79    1
    88    36    80    1
    89    36    81    1
    90    37    38    1
    91    38    39    1
    92    39    40    1
    93    41    42    2
    94    42    43    1
    95    82    83    2
    96    82    84    1
    97    82    85    1
    98    86    87    2
    99    86    88    1
   100    86    89    1
@<TRIPOS>SUBSTRUCTURE
     1 RES1       89 GROUP             0 ****  ****    0  
