@<TRIPOS>MOLECULE
ICIGOT_geomtry_0_nunpairedes_0_charge_2 Charge: 2 Unpaired_Electrons: 5 XTB_Unpaired_Electrons: 0 XTB_Charge: 2
    42    47     1     0     0
SMALL
NoCharges
****
Generated from Architector

@<TRIPOS>ATOM
     1 Dy1      -0.2879   -0.3102    0.1467   Dy        1 RES1   0.0000
     2 O1       -1.4550   -1.0806   -1.5155   O.2       1 RES1   0.0000
     3 C1       -1.8972   -0.2929   -2.3455   C.2       1 RES1   0.0000
     4 O2       -3.0589   -0.3960   -2.9018   O.3       1 RES1   0.0000
     5 C2       -1.0935    0.9154   -2.8073   C.3       1 RES1   0.0000
     6 N1        0.1634    1.0640   -2.0370   N.4       1 RES1   0.0000
     7 C3        1.2629    0.3546   -2.7375   C.3       1 RES1   0.0000
     8 C4        2.3205   -0.2470   -1.7980   C.3       1 RES1   0.0000
     9 O3        1.6821   -0.9932   -0.7524   O.3       1 RES1   0.0000
    10 C5        0.4732    2.4968   -1.8279   C.3       1 RES1   0.0000
    11 C6        1.3663    2.7657   -0.6079   C.3       1 RES1   0.0000
    12 N2        0.9177    2.0934    0.6313   N.4       1 RES1   0.0000
    13 C7        2.0286    1.9636    1.5974   C.3       1 RES1   0.0000
    14 C8        1.8122    0.6887    2.4126   C.2       1 RES1   0.0000
    15 O4        1.0931   -0.1782    1.9432   O.2       1 RES1   0.0000
    16 O5        2.3999    0.5216    3.5554   O.3       1 RES1   0.0000
    17 C9       -0.1968    2.8316    1.2645   C.3       1 RES1   0.0000
    18 C10      -1.5183    2.5610    0.5498   C.2       1 RES1   0.0000
    19 O6       -1.6873    1.5147   -0.0565   O.2       1 RES1   0.0000
    20 O7       -2.4513    3.4664    0.5751   O.3       1 RES1   0.0000
    21 H1       -3.5824   -1.1843   -2.6524   H         1 RES1   0.0000
    22 H2       -1.7360    1.7921   -2.6763   H         1 RES1   0.0000
    23 H3       -0.9145    0.7996   -3.8861   H         1 RES1   0.0000
    24 H4        1.7698    1.0327   -3.4379   H         1 RES1   0.0000
    25 H5        0.8309   -0.4761   -3.3037   H         1 RES1   0.0000
    26 H6        2.9447    0.5307   -1.3402   H         1 RES1   0.0000
    27 H7        2.9576   -0.9059   -2.3933   H         1 RES1   0.0000
    28 H8        2.2112   -1.7825   -0.5577   H         1 RES1   0.0000
    29 H9       -0.4617    3.0477   -1.7072   H         1 RES1   0.0000
    30 H10       0.9921    2.9098   -2.7038   H         1 RES1   0.0000
    31 H11       1.4146    3.8531   -0.4620   H         1 RES1   0.0000
    32 H12       2.3755    2.4225   -0.8318   H         1 RES1   0.0000
    33 H13       2.1298    2.8531    2.2328   H         1 RES1   0.0000
    34 H14       2.9766    1.8228    1.0629   H         1 RES1   0.0000
    35 H15       2.9732    1.2267    3.8979   H         1 RES1   0.0000
    36 H16       0.0157    3.9131    1.2914   H         1 RES1   0.0000
    37 H17      -0.3473    2.4665    2.2922   H         1 RES1   0.0000
    38 H18      -2.3112    4.2534    1.1274   H         1 RES1   0.0000
    39 N3       -1.4323   -1.8964    1.5082   N.3       1 RES1   0.0000
    40 O8       -2.1444   -2.6847    2.0098   O.2       1 RES1   0.0000
    41 O9       -1.6350   -0.6548    1.6094   O.co2     1 RES1   0.0000
    42 O10      -0.4294   -2.2187    0.8384   O.co2     1 RES1   0.0000
@<TRIPOS>BOND
     1     1     2    1
     2     1     6    1
     3     1     9    1
     4     1    12    1
     5     1    15    1
     6     1    19    1
     7     1    41    1
     8     1    42    1
     9     2     3    2
    10     3     4    1
    11     3     5    1
    12     4    21    1
    13     5     6    1
    14     5    22    1
    15     5    23    1
    16     6     7    1
    17     6    10    1
    18     7     8    1
    19     7    24    1
    20     7    25    1
    21     8     9    1
    22     8    26    1
    23     8    27    1
    24     9    28    1
    25    10    11    1
    26    10    29    1
    27    10    30    1
    28    11    12    1
    29    11    31    1
    30    11    32    1
    31    12    13    1
    32    12    17    1
    33    13    14    1
    34    13    33    1
    35    13    34    1
    36    14    15    2
    37    14    16    1
    38    16    35    1
    39    17    18    1
    40    17    36    1
    41    17    37    1
    42    18    19    2
    43    18    20    1
    44    20    38    1
    45    39    40    2
    46    39    41    1
    47    39    42    1
@<TRIPOS>SUBSTRUCTURE
     1 RES1       42 GROUP             0 ****  ****    0  
