@<TRIPOS>MOLECULE
am_c3_9H2O_c0_0_nunpairedes_0_charge_1 Charge: 1 Unpaired_Electrons: 7 XTB_Unpaired_Electrons: 0 XTB_Charge: 1
   122   135     1     0     0
SMALL
NoCharges
****
Generated from Architector

@<TRIPOS>ATOM
     1 Gd1      -0.3591   -0.0378   -0.1944   Gd        1 RES1   0.0000
     2 C1       -4.8141   -0.6330   -5.3256   C.3       1 RES1   0.0000
     3 C2       -4.7728   -0.7965   -3.8123   C.3       1 RES1   0.0000
     4 C3       -3.9202    0.2472   -3.0902   C.3       1 RES1   0.0000
     5 C4       -4.5354    1.6462   -3.1205   C.3       1 RES1   0.0000
     6 C5       -3.7584    2.6799   -2.2993   C.3       1 RES1   0.0000
     7 C6       -2.5153    3.1748   -3.0523   C.3       1 RES1   0.0000
     8 N1       -1.4859    3.6802   -2.1428   N.ar      1 RES1   0.0000
     9 C7       -1.2533    5.0147   -1.8883   C.ar      1 RES1   0.0000
    10 C8       -2.0299    5.9788   -2.6978   C.ar      1 RES1   0.0000
    11 C9       -1.6067    6.2635   -3.9921   C.ar      1 RES1   0.0000
    12 C10      -2.3336    7.1377   -4.7782   C.ar      1 RES1   0.0000
    13 C11      -3.4827    7.7296   -4.2801   C.ar      1 RES1   0.0000
    14 C12      -3.9026    7.4427   -2.9918   C.ar      1 RES1   0.0000
    15 C13      -3.1795    6.5729   -2.1932   C.ar      1 RES1   0.0000
    16 C14      -0.3370    5.4594   -0.9692   C.ar      1 RES1   0.0000
    17 C15      -0.0951    6.9208   -0.8273   C.ar      1 RES1   0.0000
    18 C16      -0.6716    7.6599    0.1991   C.ar      1 RES1   0.0000
    19 C17      -0.4227    9.0188    0.3019   C.ar      1 RES1   0.0000
    20 C18       0.4087    9.6490   -0.6087   C.ar      1 RES1   0.0000
    21 C19       0.9784    8.9162   -1.6367   C.ar      1 RES1   0.0000
    22 C20       0.7280    7.5602   -1.7502   C.ar      1 RES1   0.0000
    23 C21       0.4224    4.5152   -0.2016   C.ar      1 RES1   0.0000
    24 C22       1.3441    4.7938    0.8270   C.ar      1 RES1   0.0000
    25 C23       1.9697    3.7379    1.4933   C.ar      1 RES1   0.0000
    26 C24       2.9224    3.8687    2.5583   C.ar      1 RES1   0.0000
    27 C25       3.4792    2.7946    3.1672   C.ar      1 RES1   0.0000
    28 C26       3.1199    1.4484    2.8221   C.ar      1 RES1   0.0000
    29 C27       3.6178    0.2983    3.4374   C.ar      1 RES1   0.0000
    30 C28       3.1723   -0.9649    3.0077   C.ar      1 RES1   0.0000
    31 C29       3.6125   -2.2422    3.4954   C.ar      1 RES1   0.0000
    32 C30       4.6959   -2.3413    4.5103   C.ar      1 RES1   0.0000
    33 C31       6.0232   -2.1771    4.1281   C.ar      1 RES1   0.0000
    34 C32       7.0378   -2.2739    5.0655   C.ar      1 RES1   0.0000
    35 C33       6.7402   -2.5298    6.3935   C.ar      1 RES1   0.0000
    36 C34       5.4212   -2.7124    6.7749   C.ar      1 RES1   0.0000
    37 C35       4.4023   -2.6238    5.8406   C.ar      1 RES1   0.0000
    38 C36       3.0630   -3.3905    2.9914   C.ar      1 RES1   0.0000
    39 C37       3.6005   -4.7121    3.3989   C.ar      1 RES1   0.0000
    40 C38       3.0973   -5.4096    4.4894   C.ar      1 RES1   0.0000
    41 C39       3.6328   -6.6402    4.8308   C.ar      1 RES1   0.0000
    42 C40       4.6735   -7.1776    4.0928   C.ar      1 RES1   0.0000
    43 C41       5.1724   -6.4853    3.0014   C.ar      1 RES1   0.0000
    44 C42       4.6431   -5.2562    2.6520   C.ar      1 RES1   0.0000
    45 N2        2.0756   -3.3901    2.0247   N.ar      1 RES1   0.0000
    46 C43       1.5397   -4.6242    1.4524   C.3       1 RES1   0.0000
    47 C44       0.4403   -5.3346    2.2531   C.3       1 RES1   0.0000
    48 C45      -0.9190   -4.6255    2.3840   C.3       1 RES1   0.0000
    49 C46      -1.0353   -3.7510    3.6363   C.3       1 RES1   0.0000
    50 C47      -2.3757   -3.0181    3.8111   C.3       1 RES1   0.0000
    51 C48      -3.5979   -3.9238    3.8540   C.3       1 RES1   0.0000
    52 C49       1.6711   -2.2353    1.4309   C.ar      1 RES1   0.0000
    53 O1        0.8796   -2.2264    0.4734   O.2       1 RES1   0.0000
    54 C50       2.1968   -0.9912    1.9812   C.ar      1 RES1   0.0000
    55 N3        1.6963    0.0980    1.4085   N.ar      1 RES1   0.0000
    56 C51       2.1656    1.2793    1.7847   C.ar      1 RES1   0.0000
    57 C52       1.6363    2.4202    1.0905   C.ar      1 RES1   0.0000
    58 N4        0.8133    2.1501    0.0919   N.ar      1 RES1   0.0000
    59 C53       0.2091    3.1534   -0.5274   C.ar      1 RES1   0.0000
    60 C54      -0.7694    2.7195   -1.5151   C.ar      1 RES1   0.0000
    61 O2       -0.9554    1.5080   -1.7482   O.2       1 RES1   0.0000
    62 H1       -5.3471   -1.4656   -5.7775   H         1 RES1   0.0000
    63 H2       -3.8093   -0.6174   -5.7378   H         1 RES1   0.0000
    64 H3       -5.3208    0.2813   -5.6186   H         1 RES1   0.0000
    65 H4       -4.3647   -1.7822   -3.5905   H         1 RES1   0.0000
    66 H5       -5.7911   -0.7682   -3.4231   H         1 RES1   0.0000
    67 H6       -2.9226    0.2516   -3.5298   H         1 RES1   0.0000
    68 H7       -3.8086   -0.0655   -2.0503   H         1 RES1   0.0000
    69 H8       -5.5452    1.5817   -2.7169   H         1 RES1   0.0000
    70 H9       -4.6161    2.0085   -4.1449   H         1 RES1   0.0000
    71 H10      -3.4601    2.2273   -1.3521   H         1 RES1   0.0000
    72 H11      -4.3955    3.5381   -2.0718   H         1 RES1   0.0000
    73 H12      -2.7834    3.9506   -3.7666   H         1 RES1   0.0000
    74 H13      -2.0604    2.3333   -3.5818   H         1 RES1   0.0000
    75 H14      -0.7142    5.7913   -4.3784   H         1 RES1   0.0000
    76 H15      -2.0091    7.3376   -5.7865   H         1 RES1   0.0000
    77 H16      -4.0606    8.4024   -4.8972   H         1 RES1   0.0000
    78 H17      -4.8105    7.8902   -2.6209   H         1 RES1   0.0000
    79 H18      -3.5023    6.3383   -1.1885   H         1 RES1   0.0000
    80 H19      -1.3249    7.1773    0.9125   H         1 RES1   0.0000
    81 H20      -0.8919    9.5865    1.0907   H         1 RES1   0.0000
    82 H21       0.6069   10.7084   -0.5315   H         1 RES1   0.0000
    83 H22       1.6094    9.4126   -2.3576   H         1 RES1   0.0000
    84 H23       1.1691    6.9870   -2.5539   H         1 RES1   0.0000
    85 H24       1.5460    5.8215    1.1071   H         1 RES1   0.0000
    86 H25       3.1949    4.8674    2.8569   H         1 RES1   0.0000
    87 H26       4.2101    2.9220    3.9504   H         1 RES1   0.0000
    88 H27       4.3468    0.3746    4.2354   H         1 RES1   0.0000
    89 H28       6.2642   -1.9837    3.0921   H         1 RES1   0.0000
    90 H29       8.0639   -2.1546    4.7534   H         1 RES1   0.0000
    91 H30       7.5287   -2.5982    7.1300   H         1 RES1   0.0000
    92 H31       5.1959   -2.9315    7.8076   H         1 RES1   0.0000
    93 H32       3.3730   -2.7672    6.1393   H         1 RES1   0.0000
    94 H33       2.2918   -4.9888    5.0752   H         1 RES1   0.0000
    95 H34       3.2286   -7.1788    5.6736   H         1 RES1   0.0000
    96 H35       5.0931   -8.1381    4.3531   H         1 RES1   0.0000
    97 H36       5.9733   -6.9135    2.4198   H         1 RES1   0.0000
    98 H37       5.0311   -4.7114    1.8014   H         1 RES1   0.0000
    99 H38       2.3791   -5.3072    1.3071   H         1 RES1   0.0000
   100 H39       1.1322   -4.3499    0.4755   H         1 RES1   0.0000
   101 H40       0.8069   -5.5893    3.2465   H         1 RES1   0.0000
   102 H41       0.2881   -6.2702    1.7110   H         1 RES1   0.0000
   103 H42      -1.6778   -5.4031    2.4608   H         1 RES1   0.0000
   104 H43      -1.1326   -4.0679    1.4687   H         1 RES1   0.0000
   105 H44      -0.2085   -3.0328    3.6636   H         1 RES1   0.0000
   106 H45      -0.9006   -4.3991    4.5030   H         1 RES1   0.0000
   107 H46      -2.5663   -2.3064    3.0122   H         1 RES1   0.0000
   108 H47      -2.3315   -2.4431    4.7381   H         1 RES1   0.0000
   109 H48      -3.7261   -4.4396    2.9073   H         1 RES1   0.0000
   110 H49      -4.4838   -3.3165    4.0225   H         1 RES1   0.0000
   111 H50      -3.5348   -4.6577    4.6503   H         1 RES1   0.0000
   112 N5       -2.4335    0.9094    0.8936   N.3       1 RES1   0.0000
   113 O3       -3.4053    1.3853    1.3952   O.2       1 RES1   0.0000
   114 O4       -2.5169    0.0489    0.0104   O.co2     1 RES1   0.0000
   115 O5       -1.2998    1.2824    1.2502   O.co2     1 RES1   0.0000
   116 N6        0.3652   -0.9061   -2.3045   N.3       1 RES1   0.0000
   117 O6        0.5746   -1.1025   -3.4594   O.2       1 RES1   0.0000
   118 O7        1.1471   -0.2183   -1.6261   O.co2     1 RES1   0.0000
   119 O8       -0.6263   -1.3873   -1.7360   O.co2     1 RES1   0.0000
   120 O9       -1.0989   -1.2635    1.7689   O.3       1 RES1   0.0000
   121 H51      -1.2878   -2.1606    1.4337   H         1 RES1   0.0000
   122 H52      -0.7245   -1.3794    2.6557   H         1 RES1   0.0000
@<TRIPOS>BOND
     1     1    53    1
     2     1    55    1
     3     1    58    1
     4     1    61    1
     5     1   114    1
     6     1   115    1
     7     1   118    1
     8     1   119    1
     9     1   120    1
    10     2     3    1
    11     2    62    1
    12     2    63    1
    13     2    64    1
    14     3     4    1
    15     3    65    1
    16     3    66    1
    17     4     5    1
    18     4    67    1
    19     4    68    1
    20     5     6    1
    21     5    69    1
    22     5    70    1
    23     6     7    1
    24     6    71    1
    25     6    72    1
    26     7     8    1
    27     7    73    1
    28     7    74    1
    29     8     9    1
    30     8    60    1
    31     9    10    1
    32     9    16    2
    33    10    11    1
    34    10    15    2
    35    11    12    2
    36    11    75    1
    37    12    13    1
    38    12    76    1
    39    13    14    2
    40    13    77    1
    41    14    15    1
    42    14    78    1
    43    15    79    1
    44    16    17    1
    45    16    23    1
    46    17    18    1
    47    17    22    2
    48    18    19    2
    49    18    80    1
    50    19    20    1
    51    19    81    1
    52    20    21    2
    53    20    82    1
    54    21    22    1
    55    21    83    1
    56    22    84    1
    57    23    24    1
    58    23    59    2
    59    24    25    2
    60    24    85    1
    61    25    26    1
    62    25    57    1
    63    26    27    2
    64    26    86    1
    65    27    28    1
    66    27    87    1
    67    28    29    1
    68    28    56    2
    69    29    30    2
    70    29    88    1
    71    30    31    1
    72    30    54    1
    73    31    32    1
    74    31    38    2
    75    32    33    1
    76    32    37    2
    77    33    34    2
    78    33    89    1
    79    34    35    1
    80    34    90    1
    81    35    36    2
    82    35    91    1
    83    36    37    1
    84    36    92    1
    85    37    93    1
    86    38    39    1
    87    38    45    1
    88    39    40    1
    89    39    44    2
    90    40    41    2
    91    40    94    1
    92    41    42    1
    93    41    95    1
    94    42    43    2
    95    42    96    1
    96    43    44    1
    97    43    97    1
    98    44    98    1
    99    45    46    1
   100    45    52    1
   101    46    47    1
   102    46    99    1
   103    46   100    1
   104    47    48    1
   105    47   101    1
   106    47   102    1
   107    48    49    1
   108    48   103    1
   109    48   104    1
   110    49    50    1
   111    49   105    1
   112    49   106    1
   113    50    51    1
   114    50   107    1
   115    50   108    1
   116    51   109    1
   117    51   110    1
   118    51   111    1
   119    52    53    2
   120    52    54    1
   121    54    55    2
   122    55    56    1
   123    56    57    1
   124    57    58    2
   125    58    59    1
   126    59    60    1
   127    60    61    2
   128   112   113    2
   129   112   114    1
   130   112   115    1
   131   116   117    2
   132   116   118    1
   133   116   119    1
   134   120   121    1
   135   120   122    1
@<TRIPOS>SUBSTRUCTURE
     1 RES1      122 GROUP             0 ****  ****    0  
