@<TRIPOS>MOLECULE
am_c3_9H2O_c0_0_nunpairedes_0_charge_3 Charge: 3 Unpaired_Electrons: 6 XTB_Unpaired_Electrons: 0 XTB_Charge: 3
   196   222     1     0     0
SMALL
NoCharges
****
Generated from Architector

@<TRIPOS>ATOM
     1 Tb1      -0.0882   -0.1128   -0.0928   Tb        1 RES1   0.0000
     2 C1       -3.9643   -5.9898   -3.0077   C.3       1 RES1   0.0000
     3 C2       -2.5610   -5.4448   -2.9079   C.3       1 RES1   0.0000
     4 C3       -1.7967   -5.3914   -4.2750   C.3       1 RES1   0.0000
     5 C4       -0.3069   -5.4486   -3.8993   C.3       1 RES1   0.0000
     6 C5       -0.3446   -5.2832   -2.3746   C.3       1 RES1   0.0000
     7 C6       -0.9637   -3.9536   -2.1255   C.ar      1 RES1   0.0000
     8 N1       -0.4363   -2.8067   -1.8169   N.ar      1 RES1   0.0000
     9 N2       -1.2628   -1.7992   -1.5283   N.ar      1 RES1   0.0000
    10 C7       -2.5725   -1.9695   -1.6144   C.ar      1 RES1   0.0000
    11 C8       -3.3781   -0.8878   -0.9988   C.ar      1 RES1   0.0000
    12 C9       -4.7488   -0.7186   -1.1830   C.ar      1 RES1   0.0000
    13 C10      -5.4111    0.2131   -0.3940   C.ar      1 RES1   0.0000
    14 C11      -4.7191    0.8853    0.6056   C.ar      1 RES1   0.0000
    15 C12      -3.3495    0.6598    0.7191   C.ar      1 RES1   0.0000
    16 C13      -2.5480    1.1139    1.8754   C.ar      1 RES1   0.0000
    17 N3       -1.2292    1.0641    1.7366   N.ar      1 RES1   0.0000
    18 N4       -0.4476    1.1186    2.8172   N.ar      1 RES1   0.0000
    19 C14      -1.0292    1.2445    3.9773   C.ar      1 RES1   0.0000
    20 C15      -2.4323    1.4994    4.0698   C.ar      1 RES1   0.0000
    21 N5       -3.1977    1.4206    3.0111   N.ar      1 RES1   0.0000
    22 C16      -2.7143    1.7964    5.4989   C.3       1 RES1   0.0000
    23 C17      -4.1481    1.7813    5.9645   C.3       1 RES1   0.0000
    24 C18      -1.9979    3.1645    5.7099   C.3       1 RES1   0.0000
    25 C19      -0.4975    2.8275    5.6823   C.3       1 RES1   0.0000
    26 C20      -0.4867    1.3173    5.3624   C.3       1 RES1   0.0000
    27 C21      -1.7060    0.7979    6.1689   C.3       1 RES1   0.0000
    28 C22      -1.5942    0.9283    7.6823   C.3       1 RES1   0.0000
    29 C23      -1.9970   -0.6709    5.8560   C.3       1 RES1   0.0000
    30 N6       -2.6950   -0.1594   -0.1090   N.ar      1 RES1   0.0000
    31 N7       -3.1725   -3.0667   -2.1151   N.ar      1 RES1   0.0000
    32 C24      -2.3648   -4.0695   -2.3726   C.ar      1 RES1   0.0000
    33 C25      -1.5306   -6.2078   -2.0011   C.3       1 RES1   0.0000
    34 C26      -1.8147   -6.1436   -0.5042   C.3       1 RES1   0.0000
    35 C27      -1.3458   -7.6738   -2.3632   C.3       1 RES1   0.0000
    36 H1       -4.5542   -5.4181   -3.7185   H         1 RES1   0.0000
    37 H2       -4.4567   -5.9506   -2.0413   H         1 RES1   0.0000
    38 H3       -3.9438   -7.0222   -3.3474   H         1 RES1   0.0000
    39 H4       -2.0473   -4.4817   -4.8243   H         1 RES1   0.0000
    40 H5       -2.0896   -6.2391   -4.8902   H         1 RES1   0.0000
    41 H6        0.3003   -4.6768   -4.3592   H         1 RES1   0.0000
    42 H7        0.1286   -6.4160   -4.1430   H         1 RES1   0.0000
    43 H8        0.6033   -5.4525   -1.8755   H         1 RES1   0.0000
    44 H9       -5.2751   -1.3237   -1.9036   H         1 RES1   0.0000
    45 H10      -6.4721    0.3688   -0.5161   H         1 RES1   0.0000
    46 H11      -5.2200    1.5451    1.2942   H         1 RES1   0.0000
    47 H12      -4.7064    2.5805    5.4875   H         1 RES1   0.0000
    48 H13      -4.1874    1.9375    7.0387   H         1 RES1   0.0000
    49 H14      -4.6211    0.8332    5.7284   H         1 RES1   0.0000
    50 H15      -2.3043    3.5790    6.6683   H         1 RES1   0.0000
    51 H16      -2.2785    3.8756    4.9317   H         1 RES1   0.0000
    52 H17      -0.0326    2.9950    6.6527   H         1 RES1   0.0000
    53 H18       0.0577    3.3935    4.9339   H         1 RES1   0.0000
    54 H19       0.4683    0.8305    5.5259   H         1 RES1   0.0000
    55 H20      -1.4360    1.9463    8.0152   H         1 RES1   0.0000
    56 H21      -0.7668    0.3205    8.0419   H         1 RES1   0.0000
    57 H22      -2.5029    0.5584    8.1516   H         1 RES1   0.0000
    58 H23      -2.0266   -0.8603    4.7816   H         1 RES1   0.0000
    59 H24      -2.9467   -0.9613    6.3012   H         1 RES1   0.0000
    60 H25      -1.2200   -1.3004    6.2880   H         1 RES1   0.0000
    61 H26      -1.8225   -5.1213   -0.1313   H         1 RES1   0.0000
    62 H27      -1.0330   -6.6807    0.0291   H         1 RES1   0.0000
    63 H28      -2.7694   -6.6101   -0.2770   H         1 RES1   0.0000
    64 H29      -1.2950   -7.8544   -3.4289   H         1 RES1   0.0000
    65 H30      -2.1729   -8.2564   -1.9674   H         1 RES1   0.0000
    66 H31      -0.4321   -8.0403   -1.9037   H         1 RES1   0.0000
    67 C28       6.4624    1.2710    3.1923   C.3       1 RES1   0.0000
    68 C29       5.3948    0.2086    3.2626   C.3       1 RES1   0.0000
    69 C30       4.9492   -0.1850    4.6989   C.3       1 RES1   0.0000
    70 C31       4.2142   -1.5228    4.5213   C.3       1 RES1   0.0000
    71 C32       4.2704   -1.7624    2.9997   C.3       1 RES1   0.0000
    72 C33       3.4049   -0.7006    2.4359   C.ar      1 RES1   0.0000
    73 N8        2.2730   -0.7543    1.7957   N.ar      1 RES1   0.0000
    74 N9        1.8137    0.3899    1.2941   N.ar      1 RES1   0.0000
    75 C34       2.4409    1.5300    1.5499   C.ar      1 RES1   0.0000
    76 C35       1.8439    2.7202    0.9380   C.ar      1 RES1   0.0000
    77 C36       2.3036    4.0139    1.1750   C.ar      1 RES1   0.0000
    78 C37       1.6912    5.0571    0.4931   C.ar      1 RES1   0.0000
    79 C38       0.6654    4.7794   -0.3993   C.ar      1 RES1   0.0000
    80 C39       0.2952    3.4474   -0.5861   C.ar      1 RES1   0.0000
    81 C40      -0.6326    2.9889   -1.6253   C.ar      1 RES1   0.0000
    82 N10      -0.9279    1.6897   -1.6118   N.ar      1 RES1   0.0000
    83 N11      -1.3884    1.1106   -2.7243   N.ar      1 RES1   0.0000
    84 C41      -1.5403    1.8792   -3.7709   C.ar      1 RES1   0.0000
    85 C42      -1.5141    3.3012   -3.6376   C.ar      1 RES1   0.0000
    86 N12      -1.0272    3.8585   -2.5651   N.ar      1 RES1   0.0000
    87 C43      -1.9738    3.8746   -4.9284   C.3       1 RES1   0.0000
    88 C44      -1.7528    5.3568   -5.1165   C.3       1 RES1   0.0000
    89 C45      -3.4548    3.4235   -5.0506   C.3       1 RES1   0.0000
    90 C46      -3.3865    1.9047   -5.2789   C.3       1 RES1   0.0000
    91 C47      -1.8744    1.6087   -5.1942   C.3       1 RES1   0.0000
    92 C48      -1.2342    2.8608   -5.8718   C.3       1 RES1   0.0000
    93 C49      -1.5605    3.0172   -7.3497   C.3       1 RES1   0.0000
    94 C50       0.2900    2.9479   -5.7053   C.3       1 RES1   0.0000
    95 N13       0.8645    2.4440    0.0802   N.ar      1 RES1   0.0000
    96 N14       3.5861    1.6677    2.2321   N.ar      1 RES1   0.0000
    97 C51       4.0997    0.5307    2.6234   C.ar      1 RES1   0.0000
    98 C52       5.6553   -1.1839    2.5938   C.3       1 RES1   0.0000
    99 C53       5.8040   -1.1037    1.0706   C.3       1 RES1   0.0000
   100 C54       6.8516   -1.9443    3.1380   C.3       1 RES1   0.0000
   101 H32       6.1805    2.1214    3.8058   H         1 RES1   0.0000
   102 H33       6.5849    1.6067    2.1674   H         1 RES1   0.0000
   103 H34       7.4103    0.8855    3.5516   H         1 RES1   0.0000
   104 H35       4.3163    0.5916    5.1296   H         1 RES1   0.0000
   105 H36       5.8300   -0.2825    5.3280   H         1 RES1   0.0000
   106 H37       3.1791   -1.4883    4.8644   H         1 RES1   0.0000
   107 H38       4.7237   -2.3276    5.0451   H         1 RES1   0.0000
   108 H39       4.0311   -2.7733    2.6916   H         1 RES1   0.0000
   109 H40       3.1300    4.1640    1.8536   H         1 RES1   0.0000
   110 H41       2.0264    6.0751    0.6386   H         1 RES1   0.0000
   111 H42       0.1584    5.5569   -0.9509   H         1 RES1   0.0000
   112 H43      -2.5035    5.9189   -4.5688   H         1 RES1   0.0000
   113 H44      -1.8319    5.6306   -6.1636   H         1 RES1   0.0000
   114 H45      -0.7715    5.6414   -4.7503   H         1 RES1   0.0000
   115 H46      -3.9199    3.9383   -5.8889   H         1 RES1   0.0000
   116 H47      -4.0084    3.6828   -4.1486   H         1 RES1   0.0000
   117 H48      -3.7646    1.6266   -6.2623   H         1 RES1   0.0000
   118 H49      -3.9239    1.3261   -4.5253   H         1 RES1   0.0000
   119 H50      -1.6092    0.6269   -5.5684   H         1 RES1   0.0000
   120 H51      -2.6242    3.0226   -7.5499   H         1 RES1   0.0000
   121 H52      -1.1115    2.1993   -7.9078   H         1 RES1   0.0000
   122 H53      -1.1388    3.9434   -7.7307   H         1 RES1   0.0000
   123 H54       0.6370    2.4644   -4.7984   H         1 RES1   0.0000
   124 H55       0.6052    3.9855   -5.6703   H         1 RES1   0.0000
   125 H56       0.7915    2.4960   -6.5537   H         1 RES1   0.0000
   126 H57       4.9800   -0.5704    0.5930   H         1 RES1   0.0000
   127 H58       5.8388   -2.1117    0.6600   H         1 RES1   0.0000
   128 H59       6.7329   -0.6012    0.8104   H         1 RES1   0.0000
   129 H60       6.8676   -1.9984    4.2185   H         1 RES1   0.0000
   130 H61       7.7695   -1.4680    2.8065   H         1 RES1   0.0000
   131 H62       6.8464   -2.9572    2.7463   H         1 RES1   0.0000
   132 C55       3.1734   -3.5995   -5.7572   C.3       1 RES1   0.0000
   133 C56       2.6463   -2.2091   -5.4954   C.3       1 RES1   0.0000
   134 C57       3.6117   -1.0706   -5.9427   C.3       1 RES1   0.0000
   135 C58       2.7359    0.1911   -5.9830   C.3       1 RES1   0.0000
   136 C59       1.3643   -0.3250   -5.5077   C.3       1 RES1   0.0000
   137 C60       1.5882   -0.6662   -4.0779   C.ar      1 RES1   0.0000
   138 N15       1.2734   -0.0647   -2.9614   N.ar      1 RES1   0.0000
   139 N16       1.5788   -0.6979   -1.8229   N.ar      1 RES1   0.0000
   140 C61       2.2080   -1.8662   -1.8684   C.ar      1 RES1   0.0000
   141 C62       2.2210   -2.6733   -0.6398   C.ar      1 RES1   0.0000
   142 C63       3.0977   -3.7357   -0.4448   C.ar      1 RES1   0.0000
   143 C64       2.8291   -4.6235    0.5879   C.ar      1 RES1   0.0000
   144 C65       1.6769   -4.4622    1.3461   C.ar      1 RES1   0.0000
   145 C66       0.8750   -3.3535    1.0904   C.ar      1 RES1   0.0000
   146 C67      -0.4434   -3.1188    1.6997   C.ar      1 RES1   0.0000
   147 N17      -0.8828   -1.8737    1.6152   N.ar      1 RES1   0.0000
   148 N18      -2.1428   -1.5921    1.9535   N.ar      1 RES1   0.0000
   149 C68      -2.9130   -2.5856    2.2786   C.ar      1 RES1   0.0000
   150 C69      -2.3847   -3.8991    2.4603   C.ar      1 RES1   0.0000
   151 N19      -1.1322   -4.1656    2.1866   N.ar      1 RES1   0.0000
   152 C70      -3.5094   -4.7272    2.9564   C.3       1 RES1   0.0000
   153 C71      -3.3489   -6.2254    2.9505   C.3       1 RES1   0.0000
   154 C72      -3.7577   -4.1286    4.3763   C.3       1 RES1   0.0000
   155 C73      -4.4259   -2.7697    4.1208   C.3       1 RES1   0.0000
   156 C74      -4.3645   -2.6412    2.5889   C.3       1 RES1   0.0000
   157 C75      -4.6759   -4.0866    2.1243   C.3       1 RES1   0.0000
   158 C76      -6.0621   -4.5846    2.4947   C.3       1 RES1   0.0000
   159 C77      -4.5246   -4.2285    0.6107   C.3       1 RES1   0.0000
   160 N20       1.1755   -2.4520    0.1540   N.ar      1 RES1   0.0000
   161 N21       2.6934   -2.4620   -2.9699   N.ar      1 RES1   0.0000
   162 C78       2.3721   -1.8600   -4.0799   C.ar      1 RES1   0.0000
   163 C79       1.2937   -1.7426   -6.1322   C.3       1 RES1   0.0000
   164 C80       0.0542   -2.4868   -5.6360   C.3       1 RES1   0.0000
   165 C81       1.2723   -1.8002   -7.6523   C.3       1 RES1   0.0000
   166 H63       4.1906   -3.6843   -5.3845   H         1 RES1   0.0000
   167 H64       3.1837   -3.8180   -6.8206   H         1 RES1   0.0000
   168 H65       2.5604   -4.3399   -5.2536   H         1 RES1   0.0000
   169 H66       4.0231   -1.3105   -6.9203   H         1 RES1   0.0000
   170 H67       4.4427   -0.9710   -5.2441   H         1 RES1   0.0000
   171 H68       2.6398    0.5910   -6.9911   H         1 RES1   0.0000
   172 H69       3.1001    0.9817   -5.3273   H         1 RES1   0.0000
   173 H70       0.5357    0.3338   -5.7177   H         1 RES1   0.0000
   174 H71       3.9301   -3.8678   -1.1172   H         1 RES1   0.0000
   175 H72       3.4792   -5.4717    0.7508   H         1 RES1   0.0000
   176 H73       1.3893   -5.1849    2.0946   H         1 RES1   0.0000
   177 H74      -2.5960   -6.5250    3.6736   H         1 RES1   0.0000
   178 H75      -3.0439   -6.5677    1.9681   H         1 RES1   0.0000
   179 H76      -4.2870   -6.7027    3.2199   H         1 RES1   0.0000
   180 H77      -2.8180   -4.0314    4.9230   H         1 RES1   0.0000
   181 H78      -4.4017   -4.8023    4.9374   H         1 RES1   0.0000
   182 H79      -3.9138   -1.9411    4.6023   H         1 RES1   0.0000
   183 H80      -5.4647   -2.7719    4.4424   H         1 RES1   0.0000
   184 H81      -4.9665   -1.8366    2.1786   H         1 RES1   0.0000
   185 H82      -6.2450   -4.5684    3.5613   H         1 RES1   0.0000
   186 H83      -6.1905   -5.6030    2.1397   H         1 RES1   0.0000
   187 H84      -6.8069   -3.9624    2.0048   H         1 RES1   0.0000
   188 H85      -3.5918   -3.7986    0.2492   H         1 RES1   0.0000
   189 H86      -5.3404   -3.7093    0.1119   H         1 RES1   0.0000
   190 H87      -4.5612   -5.2755    0.3213   H         1 RES1   0.0000
   191 H88       0.0140   -2.5376   -4.5475   H         1 RES1   0.0000
   192 H89       0.0313   -3.4909   -6.0542   H         1 RES1   0.0000
   193 H90      -0.8386   -1.9654   -5.9781   H         1 RES1   0.0000
   194 H91       2.0948   -1.2707   -8.1157   H         1 RES1   0.0000
   195 H92       0.3409   -1.3809   -8.0236   H         1 RES1   0.0000
   196 H93       1.3112   -2.8382   -7.9745   H         1 RES1   0.0000
@<TRIPOS>BOND
     1     1     9    1
     2     1    17    1
     3     1    30    1
     4     1    74    1
     5     1    82    1
     6     1    95    1
     7     1   139    1
     8     1   147    1
     9     1   160    1
    10     2     3    1
    11     2    36    1
    12     2    37    1
    13     2    38    1
    14     3     4    1
    15     3    32    1
    16     3    33    1
    17     4     5    1
    18     4    39    1
    19     4    40    1
    20     5     6    1
    21     5    41    1
    22     5    42    1
    23     6     7    1
    24     6    33    1
    25     6    43    1
    26     7     8    1
    27     7    32    2
    28     8     9    2
    29     9    10    1
    30    10    11    1
    31    10    31    2
    32    11    12    1
    33    11    30    2
    34    12    13    2
    35    12    44    1
    36    13    14    1
    37    13    45    1
    38    14    15    2
    39    14    46    1
    40    15    16    1
    41    15    30    1
    42    16    17    1
    43    16    21    2
    44    17    18    2
    45    18    19    1
    46    19    20    2
    47    19    26    1
    48    20    21    1
    49    20    22    1
    50    22    23    1
    51    22    24    1
    52    22    27    1
    53    23    47    1
    54    23    48    1
    55    23    49    1
    56    24    25    1
    57    24    50    1
    58    24    51    1
    59    25    26    1
    60    25    52    1
    61    25    53    1
    62    26    27    1
    63    26    54    1
    64    27    28    1
    65    27    29    1
    66    28    55    1
    67    28    56    1
    68    28    57    1
    69    29    58    1
    70    29    59    1
    71    29    60    1
    72    31    32    1
    73    33    34    1
    74    33    35    1
    75    34    61    1
    76    34    62    1
    77    34    63    1
    78    35    64    1
    79    35    65    1
    80    35    66    1
    81    67    68    1
    82    67   101    1
    83    67   102    1
    84    67   103    1
    85    68    69    1
    86    68    97    1
    87    68    98    1
    88    69    70    1
    89    69   104    1
    90    69   105    1
    91    70    71    1
    92    70   106    1
    93    70   107    1
    94    71    72    1
    95    71    98    1
    96    71   108    1
    97    72    73    1
    98    72    97    2
    99    73    74    2
   100    74    75    1
   101    75    76    1
   102    75    96    2
   103    76    77    1
   104    76    95    2
   105    77    78    2
   106    77   109    1
   107    78    79    1
   108    78   110    1
   109    79    80    2
   110    79   111    1
   111    80    81    1
   112    80    95    1
   113    81    82    1
   114    81    86    2
   115    82    83    2
   116    83    84    1
   117    84    85    2
   118    84    91    1
   119    85    86    1
   120    85    87    1
   121    87    88    1
   122    87    89    1
   123    87    92    1
   124    88   112    1
   125    88   113    1
   126    88   114    1
   127    89    90    1
   128    89   115    1
   129    89   116    1
   130    90    91    1
   131    90   117    1
   132    90   118    1
   133    91    92    1
   134    91   119    1
   135    92    93    1
   136    92    94    1
   137    93   120    1
   138    93   121    1
   139    93   122    1
   140    94   123    1
   141    94   124    1
   142    94   125    1
   143    96    97    1
   144    98    99    1
   145    98   100    1
   146    99   126    1
   147    99   127    1
   148    99   128    1
   149   100   129    1
   150   100   130    1
   151   100   131    1
   152   132   133    1
   153   132   166    1
   154   132   167    1
   155   132   168    1
   156   133   134    1
   157   133   162    1
   158   133   163    1
   159   134   135    1
   160   134   169    1
   161   134   170    1
   162   135   136    1
   163   135   171    1
   164   135   172    1
   165   136   137    1
   166   136   163    1
   167   136   173    1
   168   137   138    1
   169   137   162    2
   170   138   139    2
   171   139   140    1
   172   140   141    1
   173   140   161    2
   174   141   142    1
   175   141   160    2
   176   142   143    2
   177   142   174    1
   178   143   144    1
   179   143   175    1
   180   144   145    2
   181   144   176    1
   182   145   146    1
   183   145   160    1
   184   146   147    1
   185   146   151    2
   186   147   148    2
   187   148   149    1
   188   149   150    2
   189   149   156    1
   190   150   151    1
   191   150   152    1
   192   152   153    1
   193   152   154    1
   194   152   157    1
   195   153   177    1
   196   153   178    1
   197   153   179    1
   198   154   155    1
   199   154   180    1
   200   154   181    1
   201   155   156    1
   202   155   182    1
   203   155   183    1
   204   156   157    1
   205   156   184    1
   206   157   158    1
   207   157   159    1
   208   158   185    1
   209   158   186    1
   210   158   187    1
   211   159   188    1
   212   159   189    1
   213   159   190    1
   214   161   162    1
   215   163   164    1
   216   163   165    1
   217   164   191    1
   218   164   192    1
   219   164   193    1
   220   165   194    1
   221   165   195    1
   222   165   196    1
@<TRIPOS>SUBSTRUCTURE
     1 RES1      196 GROUP             0 ****  ****    0  
