@<TRIPOS>MOLECULE
am_c3_9H2O_c0_0_nunpairedes_0_charge_3 Charge: 3 Unpaired_Electrons: 6 XTB_Unpaired_Electrons: 0 XTB_Charge: 3
   184   198     1     0     0
SMALL
NoCharges
****
Generated from Architector

@<TRIPOS>ATOM
     1 Tb1      -0.0155   -0.0066    0.0085   Tb        1 RES1   0.0000
     2 C1        1.0755   -7.1133   -1.6665   C.3       1 RES1   0.0000
     3 C2       -0.0846   -6.1337   -1.6836   C.3       1 RES1   0.0000
     4 C3        0.1880   -4.9463   -2.6306   C.3       1 RES1   0.0000
     5 C4       -0.7693   -3.8408   -2.3521   C.ar      1 RES1   0.0000
     6 N1       -0.2669   -2.8010   -1.7076   N.ar      1 RES1   0.0000
     7 N2       -1.0357   -1.8338   -1.2575   N.ar      1 RES1   0.0000
     8 C5       -2.3569   -1.9409   -1.4295   C.ar      1 RES1   0.0000
     9 C6       -3.1984   -0.9484   -0.7259   C.ar      1 RES1   0.0000
    10 C7       -4.5581   -0.7757   -0.9875   C.ar      1 RES1   0.0000
    11 C8       -5.2604    0.1468   -0.2210   C.ar      1 RES1   0.0000
    12 C9       -4.6091    0.8363    0.7957   C.ar      1 RES1   0.0000
    13 C10      -3.2446    0.6123    0.9662   C.ar      1 RES1   0.0000
    14 C11      -2.4246    1.2996    1.9819   C.ar      1 RES1   0.0000
    15 N3       -1.1300    1.4718    1.6975   N.ar      1 RES1   0.0000
    16 N4       -0.3288    1.8201    2.6849   N.ar      1 RES1   0.0000
    17 C12      -0.7850    2.0812    3.8936   C.ar      1 RES1   0.0000
    18 C13       0.2026    2.2796    4.9975   C.3       1 RES1   0.0000
    19 C14       1.3582    1.2727    4.9552   C.3       1 RES1   0.0000
    20 C15       2.1770    1.3491    6.2345   C.3       1 RES1   0.0000
    21 C16      -2.1998    2.2007    4.0650   C.ar      1 RES1   0.0000
    22 C17      -2.8178    2.8266    5.2644   C.3       1 RES1   0.0000
    23 C18      -4.3460    2.8586    5.2135   C.3       1 RES1   0.0000
    24 C19      -4.9708    1.4740    5.3196   C.3       1 RES1   0.0000
    25 N5       -2.9720    1.7401    3.1043   N.ar      1 RES1   0.0000
    26 N6       -2.5526   -0.2417    0.2074   N.ar      1 RES1   0.0000
    27 N7       -2.9191   -2.8938   -2.1627   N.ar      1 RES1   0.0000
    28 C20      -2.1585   -3.8463   -2.6750   C.ar      1 RES1   0.0000
    29 C21      -2.8242   -4.8603   -3.5266   C.3       1 RES1   0.0000
    30 C22      -4.0750   -5.4083   -2.8195   C.3       1 RES1   0.0000
    31 C23      -3.7281   -6.0888   -1.5013   C.3       1 RES1   0.0000
    32 H1        0.8263   -7.9864   -1.0739   H         1 RES1   0.0000
    33 H2        1.9534   -6.6515   -1.2283   H         1 RES1   0.0000
    34 H3        1.3169   -7.4354   -2.6741   H         1 RES1   0.0000
    35 H4       -0.2644   -5.7507   -0.6760   H         1 RES1   0.0000
    36 H5       -0.9879   -6.6478   -2.0002   H         1 RES1   0.0000
    37 H6        0.1228   -5.2912   -3.6626   H         1 RES1   0.0000
    38 H7        1.1944   -4.5675   -2.4448   H         1 RES1   0.0000
    39 H8       -5.0300   -1.3751   -1.7505   H         1 RES1   0.0000
    40 H9       -6.3097    0.3279   -0.3942   H         1 RES1   0.0000
    41 H10      -5.1351    1.5326    1.4328   H         1 RES1   0.0000
    42 H11      -0.3011    2.1957    5.9584   H         1 RES1   0.0000
    43 H12       0.6174    3.2907    4.9416   H         1 RES1   0.0000
    44 H13       1.9855    1.4880    4.0957   H         1 RES1   0.0000
    45 H14       0.9674    0.2631    4.8193   H         1 RES1   0.0000
    46 H15       2.6345    2.3282    6.3291   H         1 RES1   0.0000
    47 H16       2.9617    0.5998    6.2525   H         1 RES1   0.0000
    48 H17       1.5476    1.1906    7.1049   H         1 RES1   0.0000
    49 H18      -2.4163    3.8434    5.3544   H         1 RES1   0.0000
    50 H19      -2.4800    2.2820    6.1547   H         1 RES1   0.0000
    51 H20      -4.6579    3.3363    4.2840   H         1 RES1   0.0000
    52 H21      -4.7030    3.4689    6.0425   H         1 RES1   0.0000
    53 H22      -4.6698    0.8494    4.4872   H         1 RES1   0.0000
    54 H23      -6.0510    1.5524    5.3127   H         1 RES1   0.0000
    55 H24      -4.6813    0.9832    6.2420   H         1 RES1   0.0000
    56 H25      -2.1441   -5.6674   -3.7915   H         1 RES1   0.0000
    57 H26      -3.1463   -4.3683   -4.4480   H         1 RES1   0.0000
    58 H27      -4.5665   -6.1234   -3.4739   H         1 RES1   0.0000
    59 H28      -4.7541   -4.5787   -2.6336   H         1 RES1   0.0000
    60 H29      -3.1126   -6.9730   -1.6630   H         1 RES1   0.0000
    61 H30      -4.6327   -6.4068   -0.9885   H         1 RES1   0.0000
    62 H31      -3.1858   -5.4074   -0.8427   H         1 RES1   0.0000
    63 C24       5.2640   -2.6640    1.7329   C.3       1 RES1   0.0000
    64 C25       5.3523   -2.0546    3.1232   C.3       1 RES1   0.0000
    65 C26       4.0344   -1.4164    3.5958   C.3       1 RES1   0.0000
    66 C27       3.5809   -0.2242    2.8151   C.ar      1 RES1   0.0000
    67 N8        2.5023   -0.4249    2.0799   N.ar      1 RES1   0.0000
    68 N9        1.9403    0.5471    1.3962   N.ar      1 RES1   0.0000
    69 C28       2.4426    1.7777    1.4999   C.ar      1 RES1   0.0000
    70 C29       1.6906    2.8379    0.7847   C.ar      1 RES1   0.0000
    71 C30       1.8088    4.2061    1.0355   C.ar      1 RES1   0.0000
    72 C31       1.0530    5.0832    0.2637   C.ar      1 RES1   0.0000
    73 C32       0.2567    4.5912   -0.7620   C.ar      1 RES1   0.0000
    74 C33       0.1892    3.2097   -0.9328   C.ar      1 RES1   0.0000
    75 C34      -0.5998    2.5487   -1.9868   C.ar      1 RES1   0.0000
    76 N10      -1.0488    1.3134   -1.7386   N.ar      1 RES1   0.0000
    77 N11      -1.4953    0.6112   -2.7588   N.ar      1 RES1   0.0000
    78 C35      -1.6017    1.1139   -3.9699   C.ar      1 RES1   0.0000
    79 C36      -1.9307    0.1653   -5.0802   C.3       1 RES1   0.0000
    80 C37      -0.7647   -0.7769   -5.4404   C.3       1 RES1   0.0000
    81 C38      -1.2007   -1.7663   -6.5140   C.3       1 RES1   0.0000
    82 C39      -1.4415    2.5302   -4.1092   C.ar      1 RES1   0.0000
    83 C40      -1.8690    3.3475   -5.2701   C.3       1 RES1   0.0000
    84 C41      -0.6492    3.9871   -5.9606   C.3       1 RES1   0.0000
    85 C42       0.3357    2.9428   -6.4633   C.3       1 RES1   0.0000
    86 N12      -0.8674    3.1804   -3.1136   N.ar      1 RES1   0.0000
    87 N13       0.8592    2.3614   -0.1466   N.ar      1 RES1   0.0000
    88 N14       3.5562    2.0539    2.1702   N.ar      1 RES1   0.0000
    89 C43       4.1707    1.0750    2.8241   C.ar      1 RES1   0.0000
    90 C44       5.4195    1.4385    3.5430   C.3       1 RES1   0.0000
    91 C45       6.4751    1.9896    2.5693   C.3       1 RES1   0.0000
    92 C46       6.8687    0.9688    1.5126   C.3       1 RES1   0.0000
    93 H32       6.2292   -3.0712    1.4443   H         1 RES1   0.0000
    94 H33       4.9649   -1.9227    0.9946   H         1 RES1   0.0000
    95 H34       4.5418   -3.4747    1.7197   H         1 RES1   0.0000
    96 H35       6.1509   -1.3194    3.1457   H         1 RES1   0.0000
    97 H36       5.6117   -2.8397    3.8321   H         1 RES1   0.0000
    98 H37       4.1592   -1.1287    4.6420   H         1 RES1   0.0000
    99 H38       3.2366   -2.1590    3.5263   H         1 RES1   0.0000
   100 H39       2.4865    4.5632    1.7968   H         1 RES1   0.0000
   101 H40       1.0949    6.1486    0.4358   H         1 RES1   0.0000
   102 H41      -0.2977    5.2569   -1.4080   H         1 RES1   0.0000
   103 H42      -2.2118    0.7151   -5.9757   H         1 RES1   0.0000
   104 H43      -2.7759   -0.4575   -4.7754   H         1 RES1   0.0000
   105 H44      -0.4338   -1.3069   -4.5434   H         1 RES1   0.0000
   106 H45       0.0793   -0.1957   -5.8106   H         1 RES1   0.0000
   107 H46      -2.0444   -2.3606   -6.1757   H         1 RES1   0.0000
   108 H47      -0.3928   -2.4432   -6.7704   H         1 RES1   0.0000
   109 H48      -1.4975   -1.2441   -7.4187   H         1 RES1   0.0000
   110 H49      -2.4931    4.1620   -4.9005   H         1 RES1   0.0000
   111 H50      -2.4405    2.7530   -5.9761   H         1 RES1   0.0000
   112 H51      -0.1538    4.6533   -5.2542   H         1 RES1   0.0000
   113 H52      -1.0133    4.5827   -6.7953   H         1 RES1   0.0000
   114 H53       0.7106    2.3404   -5.6368   H         1 RES1   0.0000
   115 H54       1.1803    3.4227   -6.9487   H         1 RES1   0.0000
   116 H55      -0.1360    2.2860   -7.1895   H         1 RES1   0.0000
   117 H56       5.8087    0.5910    4.1030   H         1 RES1   0.0000
   118 H57       5.1729    2.2398    4.2454   H         1 RES1   0.0000
   119 H58       7.3545    2.2802    3.1375   H         1 RES1   0.0000
   120 H59       6.0625    2.8769    2.0888   H         1 RES1   0.0000
   121 H60       7.3405    0.0937    1.9559   H         1 RES1   0.0000
   122 H61       7.5764    1.4037    0.8127   H         1 RES1   0.0000
   123 H62       5.9925    0.6383    0.9527   H         1 RES1   0.0000
   124 C47       4.0194    4.1236   -1.4852   C.3       1 RES1   0.0000
   125 C48       4.2644    3.7409   -2.9363   C.3       1 RES1   0.0000
   126 C49       3.1420    2.8799   -3.5428   C.3       1 RES1   0.0000
   127 C50       3.0343    1.4917   -2.9924   C.ar      1 RES1   0.0000
   128 N15       1.9001    1.1804   -2.4012   N.ar      1 RES1   0.0000
   129 N16       1.7096    0.0182   -1.8031   N.ar      1 RES1   0.0000
   130 C51       2.7370   -0.8313   -1.7457   C.ar      1 RES1   0.0000
   131 C52       2.5619   -2.0299   -0.8942   C.ar      1 RES1   0.0000
   132 C53       3.3088   -3.1980   -1.0516   C.ar      1 RES1   0.0000
   133 C54       3.0320   -4.2715   -0.2146   C.ar      1 RES1   0.0000
   134 C55       2.0692   -4.1426    0.7770   C.ar      1 RES1   0.0000
   135 C56       1.3984   -2.9251    0.8879   C.ar      1 RES1   0.0000
   136 C57       0.4207   -2.6490    1.9612   C.ar      1 RES1   0.0000
   137 N17      -0.3294   -1.5508    1.8500   N.ar      1 RES1   0.0000
   138 N18      -1.1040   -1.2122    2.8613   N.ar      1 RES1   0.0000
   139 C58      -1.2007   -1.9698    3.9400   C.ar      1 RES1   0.0000
   140 C59      -2.0679   -1.4604    5.0429   C.3       1 RES1   0.0000
   141 C60      -1.2765   -1.0662    6.3041   C.3       1 RES1   0.0000
   142 C61      -2.2079   -0.6790    7.4411   C.3       1 RES1   0.0000
   143 C62      -0.5116   -3.2173    3.9684   C.ar      1 RES1   0.0000
   144 C63      -0.6773   -4.2496    5.0240   C.3       1 RES1   0.0000
   145 C64       0.6733   -4.7460    5.5649   C.3       1 RES1   0.0000
   146 C65       1.4705   -3.6364    6.2379   C.3       1 RES1   0.0000
   147 N19       0.3254   -3.4953    2.9808   N.ar      1 RES1   0.0000
   148 N20       1.6193   -1.9131    0.0434   N.ar      1 RES1   0.0000
   149 N21       3.8496   -0.6550   -2.4461   N.ar      1 RES1   0.0000
   150 C66       4.0130    0.4592   -3.1419   C.ar      1 RES1   0.0000
   151 C67       5.1624    0.5300   -4.0800   C.3       1 RES1   0.0000
   152 C68       6.4768    0.0575   -3.4393   C.3       1 RES1   0.0000
   153 C69       6.8581    0.9312   -2.2537   C.3       1 RES1   0.0000
   154 H63       4.8427    4.7289   -1.1146   H         1 RES1   0.0000
   155 H64       3.9263    3.2416   -0.8545   H         1 RES1   0.0000
   156 H65       3.1118    4.7143   -1.3944   H         1 RES1   0.0000
   157 H66       5.2182    3.2269   -3.0173   H         1 RES1   0.0000
   158 H67       4.3317    4.6525   -3.5270   H         1 RES1   0.0000
   159 H68       3.3253    2.8138   -4.6176   H         1 RES1   0.0000
   160 H69       2.1824    3.3752   -3.3862   H         1 RES1   0.0000
   161 H70       4.0815   -3.2451   -1.8053   H         1 RES1   0.0000
   162 H71       3.5744   -5.2029   -0.3156   H         1 RES1   0.0000
   163 H72       1.8540   -4.9530    1.4588   H         1 RES1   0.0000
   164 H73      -2.7924   -2.2279    5.3226   H         1 RES1   0.0000
   165 H74      -2.6159   -0.5929    4.6716   H         1 RES1   0.0000
   166 H75      -0.6220   -0.2274    6.0723   H         1 RES1   0.0000
   167 H76      -0.6457   -1.8944    6.6181   H         1 RES1   0.0000
   168 H77      -2.8132    0.1775    7.1650   H         1 RES1   0.0000
   169 H78      -1.6420   -0.4114    8.3275   H         1 RES1   0.0000
   170 H79      -2.8693   -1.5010    7.6934   H         1 RES1   0.0000
   171 H80      -1.1769   -5.1043    4.5586   H         1 RES1   0.0000
   172 H81      -1.3051   -3.8876    5.8334   H         1 RES1   0.0000
   173 H82       1.2546   -5.1672    4.7456   H         1 RES1   0.0000
   174 H83       0.4753   -5.5343    6.2879   H         1 RES1   0.0000
   175 H84       1.6220   -2.7967    5.5587   H         1 RES1   0.0000
   176 H85       2.4451   -4.0073    6.5432   H         1 RES1   0.0000
   177 H86       0.9614   -3.2745    7.1291   H         1 RES1   0.0000
   178 H87       5.2789    1.5367   -4.4760   H         1 RES1   0.0000
   179 H88       4.9314   -0.1410   -4.9140   H         1 RES1   0.0000
   180 H89       7.2587    0.1071   -4.1937   H         1 RES1   0.0000
   181 H90       6.3688   -0.9775   -3.1196   H         1 RES1   0.0000
   182 H91       7.0552    1.9547   -2.5673   H         1 RES1   0.0000
   183 H92       7.7552    0.5518   -1.7739   H         1 RES1   0.0000
   184 H93       6.0558    0.9451   -1.5167   H         1 RES1   0.0000
@<TRIPOS>BOND
     1     1     7    1
     2     1    15    1
     3     1    26    1
     4     1    68    1
     5     1    76    1
     6     1    87    1
     7     1   129    1
     8     1   137    1
     9     1   148    1
    10     2     3    1
    11     2    32    1
    12     2    33    1
    13     2    34    1
    14     3     4    1
    15     3    35    1
    16     3    36    1
    17     4     5    1
    18     4    37    1
    19     4    38    1
    20     5     6    1
    21     5    28    2
    22     6     7    2
    23     7     8    1
    24     8     9    1
    25     8    27    2
    26     9    10    1
    27     9    26    2
    28    10    11    2
    29    10    39    1
    30    11    12    1
    31    11    40    1
    32    12    13    2
    33    12    41    1
    34    13    14    1
    35    13    26    1
    36    14    15    1
    37    14    25    2
    38    15    16    2
    39    16    17    1
    40    17    18    1
    41    17    21    2
    42    18    19    1
    43    18    42    1
    44    18    43    1
    45    19    20    1
    46    19    44    1
    47    19    45    1
    48    20    46    1
    49    20    47    1
    50    20    48    1
    51    21    22    1
    52    21    25    1
    53    22    23    1
    54    22    49    1
    55    22    50    1
    56    23    24    1
    57    23    51    1
    58    23    52    1
    59    24    53    1
    60    24    54    1
    61    24    55    1
    62    27    28    1
    63    28    29    1
    64    29    30    1
    65    29    56    1
    66    29    57    1
    67    30    31    1
    68    30    58    1
    69    30    59    1
    70    31    60    1
    71    31    61    1
    72    31    62    1
    73    63    64    1
    74    63    93    1
    75    63    94    1
    76    63    95    1
    77    64    65    1
    78    64    96    1
    79    64    97    1
    80    65    66    1
    81    65    98    1
    82    65    99    1
    83    66    67    1
    84    66    89    2
    85    67    68    2
    86    68    69    1
    87    69    70    1
    88    69    88    2
    89    70    71    1
    90    70    87    2
    91    71    72    2
    92    71   100    1
    93    72    73    1
    94    72   101    1
    95    73    74    2
    96    73   102    1
    97    74    75    1
    98    74    87    1
    99    75    76    1
   100    75    86    2
   101    76    77    2
   102    77    78    1
   103    78    79    1
   104    78    82    2
   105    79    80    1
   106    79   103    1
   107    79   104    1
   108    80    81    1
   109    80   105    1
   110    80   106    1
   111    81   107    1
   112    81   108    1
   113    81   109    1
   114    82    83    1
   115    82    86    1
   116    83    84    1
   117    83   110    1
   118    83   111    1
   119    84    85    1
   120    84   112    1
   121    84   113    1
   122    85   114    1
   123    85   115    1
   124    85   116    1
   125    88    89    1
   126    89    90    1
   127    90    91    1
   128    90   117    1
   129    90   118    1
   130    91    92    1
   131    91   119    1
   132    91   120    1
   133    92   121    1
   134    92   122    1
   135    92   123    1
   136   124   125    1
   137   124   154    1
   138   124   155    1
   139   124   156    1
   140   125   126    1
   141   125   157    1
   142   125   158    1
   143   126   127    1
   144   126   159    1
   145   126   160    1
   146   127   128    1
   147   127   150    2
   148   128   129    2
   149   129   130    1
   150   130   131    1
   151   130   149    2
   152   131   132    1
   153   131   148    2
   154   132   133    2
   155   132   161    1
   156   133   134    1
   157   133   162    1
   158   134   135    2
   159   134   163    1
   160   135   136    1
   161   135   148    1
   162   136   137    1
   163   136   147    2
   164   137   138    2
   165   138   139    1
   166   139   140    1
   167   139   143    2
   168   140   141    1
   169   140   164    1
   170   140   165    1
   171   141   142    1
   172   141   166    1
   173   141   167    1
   174   142   168    1
   175   142   169    1
   176   142   170    1
   177   143   144    1
   178   143   147    1
   179   144   145    1
   180   144   171    1
   181   144   172    1
   182   145   146    1
   183   145   173    1
   184   145   174    1
   185   146   175    1
   186   146   176    1
   187   146   177    1
   188   149   150    1
   189   150   151    1
   190   151   152    1
   191   151   178    1
   192   151   179    1
   193   152   153    1
   194   152   180    1
   195   152   181    1
   196   153   182    1
   197   153   183    1
   198   153   184    1
@<TRIPOS>SUBSTRUCTURE
     1 RES1      184 GROUP             0 ****  ****    0  
