@<TRIPOS>MOLECULE
ICIGOT_geomtry_0_nunpairedes_0_charge_1 Charge: 1 Unpaired_Electrons: 2 XTB_Unpaired_Electrons: 0 XTB_Charge: 1
   103   111     1     0     0
SMALL
NoCharges
****
Generated from Architector

@<TRIPOS>ATOM
     1 Pr1      -0.3715    0.0614   -0.0469   Pr        1 RES1   0.0000
     2 C1       -3.5821    4.2305   -2.3544   C.3       1 RES1   0.0000
     3 C2       -2.7391    5.2957   -1.6653   C.3       1 RES1   0.0000
     4 C3       -1.3472    4.7808   -1.2898   C.3       1 RES1   0.0000
     5 C4       -0.5707    5.8511   -0.5260   C.3       1 RES1   0.0000
     6 C5        0.8557    5.4425   -0.1054   C.3       1 RES1   0.0000
     7 C6        0.9059    4.2763    0.8192   C.ar      1 RES1   0.0000
     8 N1        0.6237    3.1136    0.2522   N.ar      1 RES1   0.0000
     9 N2        0.7105    2.0004    0.9331   N.ar      1 RES1   0.0000
    10 C7        1.1564    2.0482    2.1956   C.ar      1 RES1   0.0000
    11 C8        1.4268    0.7250    2.7923   C.ar      1 RES1   0.0000
    12 C9        1.8571    0.5186    4.1015   C.ar      1 RES1   0.0000
    13 C10       2.1698   -0.7814    4.4799   C.ar      1 RES1   0.0000
    14 C11       2.0648   -1.8167    3.5597   C.ar      1 RES1   0.0000
    15 C12       1.6455   -1.5183    2.2629   C.ar      1 RES1   0.0000
    16 C13       1.6688   -2.4661    1.1244   C.ar      1 RES1   0.0000
    17 C14       2.1165   -3.7848    1.2032   C.ar      1 RES1   0.0000
    18 C15       2.2771   -4.5034    0.0266   C.ar      1 RES1   0.0000
    19 C16       1.9829   -3.9089   -1.1957   C.ar      1 RES1   0.0000
    20 C17       1.5131   -2.5961   -1.1822   C.ar      1 RES1   0.0000
    21 C18       1.2482   -1.7806   -2.3862   C.ar      1 RES1   0.0000
    22 N3        0.7158   -0.5776   -2.1312   N.ar      1 RES1   0.0000
    23 N4        0.6382    0.3006   -3.0986   N.ar      1 RES1   0.0000
    24 C19       1.0416   -0.0019   -4.3232   C.ar      1 RES1   0.0000
    25 C20       1.0407    1.1315   -5.2902   C.3       1 RES1   0.0000
    26 C21      -0.3860    1.6746   -5.4993   C.3       1 RES1   0.0000
    27 C22      -0.4682    3.0922   -6.0726   C.3       1 RES1   0.0000
    28 C23       0.0573    3.3250   -7.4945   C.3       1 RES1   0.0000
    29 C24       1.5660    3.5316   -7.6000   C.3       1 RES1   0.0000
    30 C25       1.4704   -1.3305   -4.6039   C.ar      1 RES1   0.0000
    31 C26       1.8873   -1.8032   -5.9518   C.3       1 RES1   0.0000
    32 C27       0.7802   -1.7878   -7.0201   C.3       1 RES1   0.0000
    33 C28      -0.3748   -2.7225   -6.6639   C.3       1 RES1   0.0000
    34 C29      -1.5293   -2.6593   -7.6684   C.3       1 RES1   0.0000
    35 C30      -1.1618   -3.1354   -9.0695   C.3       1 RES1   0.0000
    36 N5        1.5958   -2.1872   -3.6000   N.ar      1 RES1   0.0000
    37 N6        1.3581   -1.9082   -0.0478   N.ar      1 RES1   0.0000
    38 N7        1.3148   -0.2736    1.9134   N.ar      1 RES1   0.0000
    39 N8        1.4454    3.1675    2.8430   N.ar      1 RES1   0.0000
    40 C31       1.2861    4.3155    2.1936   C.ar      1 RES1   0.0000
    41 C32       1.6535    5.5603    2.9216   C.3       1 RES1   0.0000
    42 C33       0.8320    5.8490    4.1897   C.3       1 RES1   0.0000
    43 C34      -0.6168    6.2429    3.9107   C.3       1 RES1   0.0000
    44 C35      -1.4793    5.0941    3.3946   C.3       1 RES1   0.0000
    45 C36      -2.9417    5.5072    3.2840   C.3       1 RES1   0.0000
    46 H1       -4.5669    4.6269   -2.5878   H         1 RES1   0.0000
    47 H2       -3.7072    3.3611   -1.7139   H         1 RES1   0.0000
    48 H3       -3.1148    3.9039   -3.2799   H         1 RES1   0.0000
    49 H4       -3.2535    5.6261   -0.7589   H         1 RES1   0.0000
    50 H5       -2.6366    6.1616   -2.3269   H         1 RES1   0.0000
    51 H6       -0.8031    4.5132   -2.1979   H         1 RES1   0.0000
    52 H7       -1.4456    3.8685   -0.6928   H         1 RES1   0.0000
    53 H8       -1.1428    6.1566    0.3533   H         1 RES1   0.0000
    54 H9       -0.4528    6.7287   -1.1664   H         1 RES1   0.0000
    55 H10       1.3421    6.3060    0.3456   H         1 RES1   0.0000
    56 H11       1.4040    5.1539   -1.0050   H         1 RES1   0.0000
    57 H12       1.9552    1.3572    4.7745   H         1 RES1   0.0000
    58 H13       2.5119   -0.9936    5.4818   H         1 RES1   0.0000
    59 H14       2.3106   -2.8305    3.8335   H         1 RES1   0.0000
    60 H15       2.3511   -4.2193    2.1628   H         1 RES1   0.0000
    61 H16       2.6440   -5.5184    0.0711   H         1 RES1   0.0000
    62 H17       2.1158   -4.4288   -2.1321   H         1 RES1   0.0000
    63 H18       1.4875    0.8229   -6.2323   H         1 RES1   0.0000
    64 H19       1.6482    1.9246   -4.8458   H         1 RES1   0.0000
    65 H20      -0.8784    1.6946   -4.5230   H         1 RES1   0.0000
    66 H21      -0.9431    0.9860   -6.1391   H         1 RES1   0.0000
    67 H22       0.0324    3.7856   -5.3935   H         1 RES1   0.0000
    68 H23      -1.5319    3.3417   -6.0701   H         1 RES1   0.0000
    69 H24      -0.4268    4.2313   -7.8678   H         1 RES1   0.0000
    70 H25      -0.2494    2.5036   -8.1450   H         1 RES1   0.0000
    71 H26       1.8876    4.3352   -6.9404   H         1 RES1   0.0000
    72 H27       1.8262    3.8110   -8.6188   H         1 RES1   0.0000
    73 H28       2.1209    2.6323   -7.3470   H         1 RES1   0.0000
    74 H29       2.2712   -2.8190   -5.8460   H         1 RES1   0.0000
    75 H30       2.7066   -1.1586   -6.2838   H         1 RES1   0.0000
    76 H31       1.2346   -2.1080   -7.9581   H         1 RES1   0.0000
    77 H32       0.3951   -0.7774   -7.1647   H         1 RES1   0.0000
    78 H33      -0.7603   -2.4469   -5.6772   H         1 RES1   0.0000
    79 H34      -0.0056   -3.7493   -6.6020   H         1 RES1   0.0000
    80 H35      -1.9084   -1.6356   -7.7214   H         1 RES1   0.0000
    81 H36      -2.3375   -3.2860   -7.2867   H         1 RES1   0.0000
    82 H37      -0.4268   -2.4805   -9.5307   H         1 RES1   0.0000
    83 H38      -2.0491   -3.1387   -9.6980   H         1 RES1   0.0000
    84 H39      -0.7610   -4.1462   -9.0387   H         1 RES1   0.0000
    85 H40       1.5842    6.4189    2.2580   H         1 RES1   0.0000
    86 H41       2.6961    5.4458    3.2332   H         1 RES1   0.0000
    87 H42       1.3228    6.6833    4.6949   H         1 RES1   0.0000
    88 H43       0.8626    4.9798    4.8484   H         1 RES1   0.0000
    89 H44      -0.6479    7.0743    3.2005   H         1 RES1   0.0000
    90 H45      -1.0494    6.6064    4.8463   H         1 RES1   0.0000
    91 H46      -1.3914    4.2421    4.0744   H         1 RES1   0.0000
    92 H47      -1.1231    4.7742    2.4104   H         1 RES1   0.0000
    93 H48      -3.3216    5.8131    4.2562   H         1 RES1   0.0000
    94 H49      -3.5451    4.6788    2.9235   H         1 RES1   0.0000
    95 H50      -3.0525    6.3417    2.5945   H         1 RES1   0.0000
    96 N9       -2.0510   -0.6736    1.7191   N.3       1 RES1   0.0000
    97 O1       -2.9801   -1.0042    2.3802   O.2       1 RES1   0.0000
    98 O2       -1.7989    0.5313    1.5103   O.co2     1 RES1   0.0000
    99 O3       -1.2495   -1.5005    1.2502   O.co2     1 RES1   0.0000
   100 N10      -2.1970    0.5197   -1.6863   N.3       1 RES1   0.0000
   101 O4       -3.0713    0.7404   -2.4608   O.2       1 RES1   0.0000
   102 O5       -1.9634   -0.6399   -1.2873   O.co2     1 RES1   0.0000
   103 O6       -1.4771    1.4291   -1.2447   O.co2     1 RES1   0.0000
@<TRIPOS>BOND
     1     1     9    1
     2     1    22    1
     3     1    37    1
     4     1    38    1
     5     1    98    1
     6     1    99    1
     7     1   102    1
     8     1   103    1
     9     2     3    1
    10     2    46    1
    11     2    47    1
    12     2    48    1
    13     3     4    1
    14     3    49    1
    15     3    50    1
    16     4     5    1
    17     4    51    1
    18     4    52    1
    19     5     6    1
    20     5    53    1
    21     5    54    1
    22     6     7    1
    23     6    55    1
    24     6    56    1
    25     7     8    1
    26     7    40    2
    27     8     9    2
    28     9    10    1
    29    10    11    1
    30    10    39    2
    31    11    12    1
    32    11    38    2
    33    12    13    2
    34    12    57    1
    35    13    14    1
    36    13    58    1
    37    14    15    2
    38    14    59    1
    39    15    16    1
    40    15    38    1
    41    16    17    1
    42    16    37    2
    43    17    18    2
    44    17    60    1
    45    18    19    1
    46    18    61    1
    47    19    20    2
    48    19    62    1
    49    20    21    1
    50    20    37    1
    51    21    22    1
    52    21    36    2
    53    22    23    2
    54    23    24    1
    55    24    25    1
    56    24    30    2
    57    25    26    1
    58    25    63    1
    59    25    64    1
    60    26    27    1
    61    26    65    1
    62    26    66    1
    63    27    28    1
    64    27    67    1
    65    27    68    1
    66    28    29    1
    67    28    69    1
    68    28    70    1
    69    29    71    1
    70    29    72    1
    71    29    73    1
    72    30    31    1
    73    30    36    1
    74    31    32    1
    75    31    74    1
    76    31    75    1
    77    32    33    1
    78    32    76    1
    79    32    77    1
    80    33    34    1
    81    33    78    1
    82    33    79    1
    83    34    35    1
    84    34    80    1
    85    34    81    1
    86    35    82    1
    87    35    83    1
    88    35    84    1
    89    39    40    1
    90    40    41    1
    91    41    42    1
    92    41    85    1
    93    41    86    1
    94    42    43    1
    95    42    87    1
    96    42    88    1
    97    43    44    1
    98    43    89    1
    99    43    90    1
   100    44    45    1
   101    44    91    1
   102    44    92    1
   103    45    93    1
   104    45    94    1
   105    45    95    1
   106    96    97    2
   107    96    98    1
   108    96    99    1
   109   100   101    2
   110   100   102    1
   111   100   103    1
@<TRIPOS>SUBSTRUCTURE
     1 RES1      103 GROUP             0 ****  ****    0  
