@<TRIPOS>MOLECULE
ICIGOT_geomtry_0_nunpairedes_0_charge_2 Charge: 2 Unpaired_Electrons: 3 XTB_Unpaired_Electrons: 0 XTB_Charge: 2
    67    75     1     0     0
SMALL
NoCharges
****
Generated from Architector

@<TRIPOS>ATOM
     1 Er1      -0.3465   -0.1268    0.1530   Er        1 RES1   0.0000
     2 C1        4.1754    3.4794   -0.8112   C.3       1 RES1   0.0000
     3 C2        5.0471    2.2294   -0.7706   C.3       1 RES1   0.0000
     4 C3        4.2033    0.9824   -1.0483   C.3       1 RES1   0.0000
     5 C4        3.0567    0.9090   -0.0300   C.3       1 RES1   0.0000
     6 O1        2.2733   -0.2937   -0.1827   O.3       1 RES1   0.0000
     7 C5        2.8419   -1.4202    0.5049   C.3       1 RES1   0.0000
     8 C6        1.9862   -1.7063    1.7496   C.3       1 RES1   0.0000
     9 O2        0.6103   -1.8563    1.3817   O.3       1 RES1   0.0000
    10 C7        0.1907   -3.1281    0.8663   C.3       1 RES1   0.0000
    11 C8        0.3368   -3.2282   -0.6718   C.3       1 RES1   0.0000
    12 O3        0.0224   -1.9376   -1.1953   O.3       1 RES1   0.0000
    13 C9        0.0427   -1.7734   -2.6292   C.3       1 RES1   0.0000
    14 C10      -1.2056   -2.3068   -3.3453   C.3       1 RES1   0.0000
    15 C11      -1.1187   -1.9904   -4.8447   C.3       1 RES1   0.0000
    16 C12      -1.0496   -0.4845   -5.0626   C.3       1 RES1   0.0000
    17 C13       0.1816    0.0842   -4.3553   C.3       1 RES1   0.0000
    18 C14       0.2042   -0.2463   -2.8572   C.3       1 RES1   0.0000
    19 O4       -0.8245    0.3872   -2.0542   O.3       1 RES1   0.0000
    20 C15      -1.0813    1.7823   -2.2604   C.3       1 RES1   0.0000
    21 C16      -2.1209    2.1918   -1.1954   C.3       1 RES1   0.0000
    22 O5       -1.7183    1.7454    0.1071   O.3       1 RES1   0.0000
    23 C17      -1.2571    2.7236    1.0460   C.3       1 RES1   0.0000
    24 C18       0.1771    3.1468    0.7172   C.3       1 RES1   0.0000
    25 O6        0.9493    1.9451    0.5483   O.3       1 RES1   0.0000
    26 C19       2.1600    2.1378   -0.2157   C.3       1 RES1   0.0000
    27 C20       2.9960    3.3679    0.1624   C.3       1 RES1   0.0000
    28 H1        3.7879    3.6203   -1.8227   H         1 RES1   0.0000
    29 H2        4.7666    4.3549   -0.5509   H         1 RES1   0.0000
    30 H3        5.5164    2.1369    0.2109   H         1 RES1   0.0000
    31 H4        5.8338    2.3066   -1.5181   H         1 RES1   0.0000
    32 H5        4.8242    0.0862   -0.9882   H         1 RES1   0.0000
    33 H6        3.7945    1.0307   -2.0658   H         1 RES1   0.0000
    34 H7        3.4701    0.9392    0.9906   H         1 RES1   0.0000
    35 H8        3.8769   -1.2244    0.7956   H         1 RES1   0.0000
    36 H9        2.8329   -2.2658   -0.1849   H         1 RES1   0.0000
    37 H10       2.0091   -0.8362    2.4193   H         1 RES1   0.0000
    38 H11       2.3475   -2.5782    2.3024   H         1 RES1   0.0000
    39 H12      -0.8744   -3.2005    1.1258   H         1 RES1   0.0000
    40 H13       0.7261   -3.9417    1.3651   H         1 RES1   0.0000
    41 H14      -0.3478   -3.9990   -1.0405   H         1 RES1   0.0000
    42 H15       1.3628   -3.5051   -0.9594   H         1 RES1   0.0000
    43 H16       0.9340   -2.2826   -3.0344   H         1 RES1   0.0000
    44 H17      -2.1010   -1.8438   -2.9161   H         1 RES1   0.0000
    45 H18      -1.2857   -3.3882   -3.2192   H         1 RES1   0.0000
    46 H19      -1.9893   -2.3969   -5.3550   H         1 RES1   0.0000
    47 H20      -0.2298   -2.4625   -5.2704   H         1 RES1   0.0000
    48 H21      -1.9579   -0.0140   -4.6829   H         1 RES1   0.0000
    49 H22      -0.9748   -0.2616   -6.1250   H         1 RES1   0.0000
    50 H23       0.2565    1.1647   -4.5005   H         1 RES1   0.0000
    51 H24       1.0765   -0.3632   -4.8016   H         1 RES1   0.0000
    52 H25       1.1841    0.0548   -2.4393   H         1 RES1   0.0000
    53 H26      -1.5161    1.9651   -3.2462   H         1 RES1   0.0000
    54 H27      -0.1488    2.3613   -2.1574   H         1 RES1   0.0000
    55 H28      -3.0659    1.6804   -1.4171   H         1 RES1   0.0000
    56 H29      -2.2857    3.2739   -1.2233   H         1 RES1   0.0000
    57 H30      -1.2791    2.2250    2.0221   H         1 RES1   0.0000
    58 H31      -1.9197    3.5960    1.0768   H         1 RES1   0.0000
    59 H32       0.5778    3.7410    1.5428   H         1 RES1   0.0000
    60 H33       0.1866    3.7297   -0.2152   H         1 RES1   0.0000
    61 H34       1.8712    2.2180   -1.2831   H         1 RES1   0.0000
    62 H35       3.3654    3.2654    1.1888   H         1 RES1   0.0000
    63 H36       2.4057    4.2829    0.1055   H         1 RES1   0.0000
    64 N1       -2.1975   -0.7580    1.5726   N.3       1 RES1   0.0000
    65 O7       -3.0494   -1.1575    2.2770   O.2       1 RES1   0.0000
    66 O8       -2.1786   -0.9940    0.3452   O.co2     1 RES1   0.0000
    67 O9       -1.2387   -0.0778    1.9957   O.co2     1 RES1   0.0000
@<TRIPOS>BOND
     1     1     6    1
     2     1     9    1
     3     1    12    1
     4     1    19    1
     5     1    22    1
     6     1    25    1
     7     1    66    1
     8     1    67    1
     9     2     3    1
    10     2    27    1
    11     2    28    1
    12     2    29    1
    13     3     4    1
    14     3    30    1
    15     3    31    1
    16     4     5    1
    17     4    32    1
    18     4    33    1
    19     5     6    1
    20     5    26    1
    21     5    34    1
    22     6     7    1
    23     7     8    1
    24     7    35    1
    25     7    36    1
    26     8     9    1
    27     8    37    1
    28     8    38    1
    29     9    10    1
    30    10    11    1
    31    10    39    1
    32    10    40    1
    33    11    12    1
    34    11    41    1
    35    11    42    1
    36    12    13    1
    37    13    14    1
    38    13    18    1
    39    13    43    1
    40    14    15    1
    41    14    44    1
    42    14    45    1
    43    15    16    1
    44    15    46    1
    45    15    47    1
    46    16    17    1
    47    16    48    1
    48    16    49    1
    49    17    18    1
    50    17    50    1
    51    17    51    1
    52    18    19    1
    53    18    52    1
    54    19    20    1
    55    20    21    1
    56    20    53    1
    57    20    54    1
    58    21    22    1
    59    21    55    1
    60    21    56    1
    61    22    23    1
    62    23    24    1
    63    23    57    1
    64    23    58    1
    65    24    25    1
    66    24    59    1
    67    24    60    1
    68    25    26    1
    69    26    27    1
    70    26    61    1
    71    27    62    1
    72    27    63    1
    73    64    65    2
    74    64    66    1
    75    64    67    1
@<TRIPOS>SUBSTRUCTURE
     1 RES1       67 GROUP             0 ****  ****    0  
