@<TRIPOS>MOLECULE
ICIGOT_geomtry_0_nunpairedes_0_charge_2 Charge: 2 Unpaired_Electrons: 3 XTB_Unpaired_Electrons: 0 XTB_Charge: 2
   135   139     1     0     0
SMALL
NoCharges
****
Generated from Architector

@<TRIPOS>ATOM
     1 Er1      -0.1371   -0.0536   -0.2192   Er        1 RES1   0.0000
     2 C1       -6.3937    1.2925   -1.1652   C.3       1 RES1   0.0000
     3 C2       -5.5940    1.2872    0.1300   C.3       1 RES1   0.0000
     4 C3       -6.5451    1.2195    1.3237   C.3       1 RES1   0.0000
     5 C4       -4.7203    2.5468    0.2895   C.3       1 RES1   0.0000
     6 N1       -3.4147    2.5448   -0.3649   N.am      1 RES1   0.0000
     7 C5       -3.1672    3.5373   -1.4171   C.3       1 RES1   0.0000
     8 C6       -2.6368    2.9956   -2.7493   C.3       1 RES1   0.0000
     9 C7       -2.4384    4.1582   -3.7197   C.3       1 RES1   0.0000
    10 C8       -3.5624    1.9545   -3.3585   C.3       1 RES1   0.0000
    11 C9       -2.3964    1.8406    0.0994   C.2       1 RES1   0.0000
    12 O1       -1.2334    1.9022   -0.3571   O.2       1 RES1   0.0000
    13 C10      -2.6020    0.8788    1.2831   C.3       1 RES1   0.0000
    14 O2       -1.3274    0.4411    1.7361   O.3       1 RES1   0.0000
    15 C11      -0.7967    1.1021    2.8774   C.3       1 RES1   0.0000
    16 C12       0.7264    1.1694    2.7219   C.2       1 RES1   0.0000
    17 O3        1.1730    1.0641    1.5626   O.2       1 RES1   0.0000
    18 N2        1.4583    1.3746    3.8139   N.am      1 RES1   0.0000
    19 C13       2.8720    1.7442    3.7172   C.3       1 RES1   0.0000
    20 C14       3.9213    0.6320    3.9078   C.3       1 RES1   0.0000
    21 C15       4.0062   -0.2379    2.6615   C.3       1 RES1   0.0000
    22 C16       3.7064   -0.2346    5.1437   C.3       1 RES1   0.0000
    23 C17       0.9161    1.3255    5.1731   C.3       1 RES1   0.0000
    24 C18       0.0144    2.4862    5.6225   C.3       1 RES1   0.0000
    25 C19      -0.5978    2.1177    6.9717   C.3       1 RES1   0.0000
    26 C20       0.7913    3.7923    5.7211   C.3       1 RES1   0.0000
    27 H1       -7.0211    0.4064   -1.2042   H         1 RES1   0.0000
    28 H2       -5.7386    1.2796   -2.0270   H         1 RES1   0.0000
    29 H3       -7.0362    2.1666   -1.2275   H         1 RES1   0.0000
    30 H4       -4.9508    0.4054    0.1221   H         1 RES1   0.0000
    31 H5       -7.1791    2.1024    1.3470   H         1 RES1   0.0000
    32 H6       -6.0091    1.1605    2.2689   H         1 RES1   0.0000
    33 H7       -7.1899    0.3498    1.2489   H         1 RES1   0.0000
    34 H8       -4.5604    2.7132    1.3589   H         1 RES1   0.0000
    35 H9       -5.2718    3.4067   -0.0914   H         1 RES1   0.0000
    36 H10      -2.4299    4.2415   -1.0205   H         1 RES1   0.0000
    37 H11      -4.1039    4.0631   -1.5914   H         1 RES1   0.0000
    38 H12      -1.6701    2.5303   -2.5555   H         1 RES1   0.0000
    39 H13      -3.3854    4.6442   -3.9418   H         1 RES1   0.0000
    40 H14      -2.0252    3.7879   -4.6543   H         1 RES1   0.0000
    41 H15      -1.7580    4.9072   -3.3219   H         1 RES1   0.0000
    42 H16      -4.5390    2.3864   -3.5649   H         1 RES1   0.0000
    43 H17      -3.6687    1.0994   -2.6945   H         1 RES1   0.0000
    44 H18      -3.1507    1.5967   -4.2982   H         1 RES1   0.0000
    45 H19      -3.1099   -0.0276    0.9304   H         1 RES1   0.0000
    46 H20      -3.1890    1.3168    2.0952   H         1 RES1   0.0000
    47 H21      -1.1094    0.5473    3.7675   H         1 RES1   0.0000
    48 H22      -1.1526    2.1357    2.9487   H         1 RES1   0.0000
    49 H23       3.0421    2.5084    4.4763   H         1 RES1   0.0000
    50 H24       3.0256    2.1862    2.7310   H         1 RES1   0.0000
    51 H25       4.8766    1.1523    4.0280   H         1 RES1   0.0000
    52 H26       3.0376   -0.6893    2.4729   H         1 RES1   0.0000
    53 H27       4.7538   -1.0172    2.7922   H         1 RES1   0.0000
    54 H28       4.2787    0.3629    1.7968   H         1 RES1   0.0000
    55 H29       2.7557   -0.7586    5.0920   H         1 RES1   0.0000
    56 H30       3.7440    0.3537    6.0568   H         1 RES1   0.0000
    57 H31       4.4989   -0.9768    5.2078   H         1 RES1   0.0000
    58 H32       1.7755    1.3137    5.8412   H         1 RES1   0.0000
    59 H33       0.3808    0.3810    5.3121   H         1 RES1   0.0000
    60 H34      -0.7975    2.6279    4.9105   H         1 RES1   0.0000
    61 H35       0.1750    1.9717    7.7207   H         1 RES1   0.0000
    62 H36      -1.1836    1.2034    6.9064   H         1 RES1   0.0000
    63 H37      -1.2536    2.9125    7.3125   H         1 RES1   0.0000
    64 H38       1.6028    3.7025    6.4382   H         1 RES1   0.0000
    65 H39       0.1373    4.5913    6.0589   H         1 RES1   0.0000
    66 H40       1.2001    4.0783    4.7551   H         1 RES1   0.0000
    67 C21       5.5146    1.6501   -2.0352   C.3       1 RES1   0.0000
    68 C22       5.4547    0.8291   -3.3166   C.3       1 RES1   0.0000
    69 C23       6.8189    0.2271   -3.6298   C.3       1 RES1   0.0000
    70 C24       4.4106   -0.2876   -3.1874   C.3       1 RES1   0.0000
    71 N3        3.0603    0.2184   -2.9787   N.am      1 RES1   0.0000
    72 C25       2.4078    0.8042   -4.1649   C.3       1 RES1   0.0000
    73 C26       2.0548    2.3038   -4.2674   C.3       1 RES1   0.0000
    74 C27       3.2437    3.2479   -4.4080   C.3       1 RES1   0.0000
    75 C28       1.1185    2.7951   -3.1711   C.3       1 RES1   0.0000
    76 C29       2.3410   -0.0485   -1.8992   C.2       1 RES1   0.0000
    77 O4        1.1933    0.4190   -1.7526   O.2       1 RES1   0.0000
    78 C30       2.8824   -0.9750   -0.7801   C.3       1 RES1   0.0000
    79 O5        1.8633   -1.1764    0.2083   O.3       1 RES1   0.0000
    80 C31       1.7978   -2.4738    0.8128   C.3       1 RES1   0.0000
    81 C32       0.3544   -2.7322    1.3138   C.2       1 RES1   0.0000
    82 O6       -0.5210   -1.9120    0.9860   O.2       1 RES1   0.0000
    83 N4        0.0792   -3.8107    2.0440   N.am      1 RES1   0.0000
    84 C33      -1.3176   -4.2348    2.2517   C.3       1 RES1   0.0000
    85 C34      -2.2345   -3.5992    3.3187   C.3       1 RES1   0.0000
    86 C35      -1.8438   -3.8474    4.7713   C.3       1 RES1   0.0000
    87 C36      -2.4689   -2.1124    3.0983   C.3       1 RES1   0.0000
    88 C37       1.0833   -4.8058    2.4047   C.3       1 RES1   0.0000
    89 C38       1.3165   -4.8827    3.9181   C.3       1 RES1   0.0000
    90 C39       1.7892   -3.5365    4.4510   C.3       1 RES1   0.0000
    91 C40       2.3318   -5.9706    4.2417   C.3       1 RES1   0.0000
    92 H41       6.2059    2.4783   -2.1596   H         1 RES1   0.0000
    93 H42       5.8641    1.0375   -1.2073   H         1 RES1   0.0000
    94 H43       4.5375    2.0533   -1.7776   H         1 RES1   0.0000
    95 H44       5.1704    1.4798   -4.1429   H         1 RES1   0.0000
    96 H45       7.1555   -0.4178   -2.8221   H         1 RES1   0.0000
    97 H46       7.5452    1.0244   -3.7535   H         1 RES1   0.0000
    98 H47       6.7957   -0.3549   -4.5469   H         1 RES1   0.0000
    99 H48       4.6820   -0.9278   -2.3510   H         1 RES1   0.0000
   100 H49       4.4118   -0.8934   -4.0990   H         1 RES1   0.0000
   101 H50       1.4687    0.2586   -4.3071   H         1 RES1   0.0000
   102 H51       3.0726    0.5727   -4.9968   H         1 RES1   0.0000
   103 H52       1.5034    2.3515   -5.2149   H         1 RES1   0.0000
   104 H53       3.8480    3.2774   -3.5079   H         1 RES1   0.0000
   105 H54       2.8745    4.2547   -4.5902   H         1 RES1   0.0000
   106 H55       3.8709    2.9778   -5.2541   H         1 RES1   0.0000
   107 H56       1.6067    2.7999   -2.1978   H         1 RES1   0.0000
   108 H57       0.2364    2.1613   -3.1111   H         1 RES1   0.0000
   109 H58       0.7935    3.8075   -3.3958   H         1 RES1   0.0000
   110 H59       3.7476   -0.5022   -0.2965   H         1 RES1   0.0000
   111 H60       3.1794   -1.9351   -1.2158   H         1 RES1   0.0000
   112 H61       2.5167   -2.5171    1.6396   H         1 RES1   0.0000
   113 H62       2.0401   -3.2483    0.0756   H         1 RES1   0.0000
   114 H63      -1.2659   -5.3000    2.4768   H         1 RES1   0.0000
   115 H64      -1.8311   -4.1041    1.2949   H         1 RES1   0.0000
   116 H65      -3.1881   -4.1139    3.1537   H         1 RES1   0.0000
   117 H66      -0.9075   -3.3598    5.0227   H         1 RES1   0.0000
   118 H67      -1.7701   -4.9087    4.9934   H         1 RES1   0.0000
   119 H68      -2.6160   -3.4378    5.4197   H         1 RES1   0.0000
   120 H69      -1.5431   -1.5643    3.2476   H         1 RES1   0.0000
   121 H70      -3.2121   -1.7470    3.8033   H         1 RES1   0.0000
   122 H71      -2.8274   -1.9276    2.0891   H         1 RES1   0.0000
   123 H72       2.0185   -4.5730    1.9020   H         1 RES1   0.0000
   124 H73       0.7480   -5.7824    2.0432   H         1 RES1   0.0000
   125 H74       0.3735   -5.1436    4.3971   H         1 RES1   0.0000
   126 H75       2.7631   -3.2856    4.0378   H         1 RES1   0.0000
   127 H76       1.8789   -3.5798    5.5325   H         1 RES1   0.0000
   128 H77       1.0882   -2.7448    4.1912   H         1 RES1   0.0000
   129 H78       3.2977   -5.7477    3.7962   H         1 RES1   0.0000
   130 H79       2.0016   -6.9397    3.8790   H         1 RES1   0.0000
   131 H80       2.4597   -6.0372    5.3181   H         1 RES1   0.0000
   132 N5       -1.0612   -1.4744   -2.0459   N.3       1 RES1   0.0000
   133 O7       -1.4551   -1.9413   -3.0631   O.2       1 RES1   0.0000
   134 O8       -1.7282   -0.6166   -1.4188   O.co2     1 RES1   0.0000
   135 O9        0.0080   -1.8373   -1.5388   O.co2     1 RES1   0.0000
@<TRIPOS>BOND
     1     1    12    1
     2     1    14    1
     3     1    17    1
     4     1    77    1
     5     1    79    1
     6     1    82    1
     7     1   134    1
     8     1   135    1
     9     2     3    1
    10     2    27    1
    11     2    28    1
    12     2    29    1
    13     3     4    1
    14     3     5    1
    15     3    30    1
    16     4    31    1
    17     4    32    1
    18     4    33    1
    19     5     6    1
    20     5    34    1
    21     5    35    1
    22     6     7    1
    23     6    11    1
    24     7     8    1
    25     7    36    1
    26     7    37    1
    27     8     9    1
    28     8    10    1
    29     8    38    1
    30     9    39    1
    31     9    40    1
    32     9    41    1
    33    10    42    1
    34    10    43    1
    35    10    44    1
    36    11    12    2
    37    11    13    1
    38    13    14    1
    39    13    45    1
    40    13    46    1
    41    14    15    1
    42    15    16    1
    43    15    47    1
    44    15    48    1
    45    16    17    2
    46    16    18    1
    47    18    19    1
    48    18    23    1
    49    19    20    1
    50    19    49    1
    51    19    50    1
    52    20    21    1
    53    20    22    1
    54    20    51    1
    55    21    52    1
    56    21    53    1
    57    21    54    1
    58    22    55    1
    59    22    56    1
    60    22    57    1
    61    23    24    1
    62    23    58    1
    63    23    59    1
    64    24    25    1
    65    24    26    1
    66    24    60    1
    67    25    61    1
    68    25    62    1
    69    25    63    1
    70    26    64    1
    71    26    65    1
    72    26    66    1
    73    67    68    1
    74    67    92    1
    75    67    93    1
    76    67    94    1
    77    68    69    1
    78    68    70    1
    79    68    95    1
    80    69    96    1
    81    69    97    1
    82    69    98    1
    83    70    71    1
    84    70    99    1
    85    70   100    1
    86    71    72    1
    87    71    76    1
    88    72    73    1
    89    72   101    1
    90    72   102    1
    91    73    74    1
    92    73    75    1
    93    73   103    1
    94    74   104    1
    95    74   105    1
    96    74   106    1
    97    75   107    1
    98    75   108    1
    99    75   109    1
   100    76    77    2
   101    76    78    1
   102    78    79    1
   103    78   110    1
   104    78   111    1
   105    79    80    1
   106    80    81    1
   107    80   112    1
   108    80   113    1
   109    81    82    2
   110    81    83    1
   111    83    84    1
   112    83    88    1
   113    84    85    1
   114    84   114    1
   115    84   115    1
   116    85    86    1
   117    85    87    1
   118    85   116    1
   119    86   117    1
   120    86   118    1
   121    86   119    1
   122    87   120    1
   123    87   121    1
   124    87   122    1
   125    88    89    1
   126    88   123    1
   127    88   124    1
   128    89    90    1
   129    89    91    1
   130    89   125    1
   131    90   126    1
   132    90   127    1
   133    90   128    1
   134    91   129    1
   135    91   130    1
   136    91   131    1
   137   132   133    2
   138   132   134    1
   139   132   135    1
@<TRIPOS>SUBSTRUCTURE
     1 RES1      135 GROUP             0 ****  ****    0  
