@<TRIPOS>MOLECULE
ICIGOT_geomtry_0_nunpairedes_0_charge_3 Charge: 3 Unpaired_Electrons: 3 XTB_Unpaired_Electrons: 0 XTB_Charge: 3
   197   200     1     0     0
SMALL
NoCharges
****
Generated from Architector

@<TRIPOS>ATOM
     1 Er1      -0.7730   -0.5858   -0.3635   Er        1 RES1   0.0000
     2 C1        3.9767    1.4899    5.6876   C.3       1 RES1   0.0000
     3 C2        4.6240    1.1953    4.3364   C.3       1 RES1   0.0000
     4 C3        3.9786   -0.0917    3.8139   C.3       1 RES1   0.0000
     5 C4        4.6446    2.3488    3.3114   C.3       1 RES1   0.0000
     6 C5        3.3302    3.0985    3.0873   C.3       1 RES1   0.0000
     7 C6        3.5001    4.4626    2.3888   C.3       1 RES1   0.0000
     8 C7        2.5430    4.6882    1.2038   C.3       1 RES1   0.0000
     9 C8        2.9771    5.9375    0.4363   C.3       1 RES1   0.0000
    10 C9        1.0677    4.8028    1.6191   C.3       1 RES1   0.0000
    11 C10       0.1091    4.5260    0.4556   C.3       1 RES1   0.0000
    12 C11      -1.3365    4.9316    0.7797   C.3       1 RES1   0.0000
    13 C12      -2.2447    3.7840    1.2373   C.3       1 RES1   0.0000
    14 N1       -2.9742    3.1646    0.1259   N.am      1 RES1   0.0000
    15 C13      -4.1457    3.8777   -0.3373   C.3       1 RES1   0.0000
    16 C14      -2.5887    1.9963   -0.3550   C.2       1 RES1   0.0000
    17 O1       -1.5792    1.4033    0.0983   O.2       1 RES1   0.0000
    18 C15      -3.4216    1.2881   -1.4389   C.3       1 RES1   0.0000
    19 O2       -2.8605    0.0011   -1.7352   O.3       1 RES1   0.0000
    20 C16      -2.5620   -0.2442   -3.1115   C.3       1 RES1   0.0000
    21 C17      -1.0753   -0.0234   -3.3538   C.2       1 RES1   0.0000
    22 O3       -0.3687    0.2635   -2.3546   O.2       1 RES1   0.0000
    23 N2       -0.5928   -0.1093   -4.5785   N.am      1 RES1   0.0000
    24 C18       0.8058    0.2251   -4.8080   C.3       1 RES1   0.0000
    25 C19      -1.2797   -0.7297   -5.7139   C.3       1 RES1   0.0000
    26 C20      -2.5672   -0.1107   -6.2699   C.3       1 RES1   0.0000
    27 C21      -2.4752    1.3553   -6.7044   C.3       1 RES1   0.0000
    28 C22      -2.7426    2.4377   -5.6457   C.3       1 RES1   0.0000
    29 C23      -1.5196    3.2207   -5.1443   C.3       1 RES1   0.0000
    30 C24      -1.9002    3.9328   -3.8434   C.3       1 RES1   0.0000
    31 C25      -1.0116    4.2911   -6.1235   C.3       1 RES1   0.0000
    32 C26      -0.3805    3.7931   -7.4311   C.3       1 RES1   0.0000
    33 C27      -1.3623    3.8141   -8.6032   C.3       1 RES1   0.0000
    34 C28      -0.8444    3.1732   -9.8970   C.3       1 RES1   0.0000
    35 C29      -0.5997    1.6694   -9.7683   C.3       1 RES1   0.0000
    36 C30      -1.8622    3.4185  -11.0078   C.3       1 RES1   0.0000
    37 H1        3.9562    0.5693    6.2692   H         1 RES1   0.0000
    38 H2        2.9607    1.8498    5.5710   H         1 RES1   0.0000
    39 H3        4.5298    2.2207    6.2644   H         1 RES1   0.0000
    40 H4        5.6739    0.9652    4.5343   H         1 RES1   0.0000
    41 H5        2.8954   -0.0829    3.9511   H         1 RES1   0.0000
    42 H6        4.3606   -0.9268    4.3939   H         1 RES1   0.0000
    43 H7        4.2321   -0.2835    2.7735   H         1 RES1   0.0000
    44 H8        4.9740    1.9411    2.3484   H         1 RES1   0.0000
    45 H9        5.4081    3.0615    3.6169   H         1 RES1   0.0000
    46 H10       2.8320    3.2649    4.0405   H         1 RES1   0.0000
    47 H11       2.6891    2.4753    2.4651   H         1 RES1   0.0000
    48 H12       4.5184    4.5660    2.0099   H         1 RES1   0.0000
    49 H13       3.3642    5.2741    3.1052   H         1 RES1   0.0000
    50 H14       2.6212    3.8174    0.5381   H         1 RES1   0.0000
    51 H15       2.9896    6.8049    1.0910   H         1 RES1   0.0000
    52 H16       2.3112    6.1518   -0.3966   H         1 RES1   0.0000
    53 H17       3.9820    5.7975    0.0515   H         1 RES1   0.0000
    54 H18       0.8875    5.8081    1.9942   H         1 RES1   0.0000
    55 H19       0.8524    4.1196    2.4413   H         1 RES1   0.0000
    56 H20       0.1650    3.4727    0.1646   H         1 RES1   0.0000
    57 H21       0.4445    5.1021   -0.4026   H         1 RES1   0.0000
    58 H22      -1.7938    5.4180   -0.0843   H         1 RES1   0.0000
    59 H23      -1.3042    5.6641    1.5843   H         1 RES1   0.0000
    60 H24      -2.9948    4.1579    1.9385   H         1 RES1   0.0000
    61 H25      -1.6636    3.0006    1.7283   H         1 RES1   0.0000
    62 H26      -4.0520    4.9235   -0.0570   H         1 RES1   0.0000
    63 H27      -5.0580    3.4851    0.1193   H         1 RES1   0.0000
    64 H28      -4.2460    3.8269   -1.4187   H         1 RES1   0.0000
    65 H29      -3.4599    1.9076   -2.3391   H         1 RES1   0.0000
    66 H30      -4.4506    1.1351   -1.0804   H         1 RES1   0.0000
    67 H31      -3.1564    0.4071   -3.7557   H         1 RES1   0.0000
    68 H32      -2.8291   -1.2821   -3.3413   H         1 RES1   0.0000
    69 H33       1.1990    0.7469   -3.9359   H         1 RES1   0.0000
    70 H34       0.8770    0.8861   -5.6734   H         1 RES1   0.0000
    71 H35       1.4002   -0.6743   -4.9949   H         1 RES1   0.0000
    72 H36      -1.4914   -1.7763   -5.4693   H         1 RES1   0.0000
    73 H37      -0.5549   -0.7253   -6.5282   H         1 RES1   0.0000
    74 H38      -3.4289   -0.2716   -5.6235   H         1 RES1   0.0000
    75 H39      -2.7605   -0.6968   -7.1714   H         1 RES1   0.0000
    76 H40      -3.2109    1.4827   -7.4980   H         1 RES1   0.0000
    77 H41      -1.4999    1.5222   -7.1483   H         1 RES1   0.0000
    78 H42      -3.2483    1.9867   -4.7859   H         1 RES1   0.0000
    79 H43      -3.4453    3.1663   -6.0515   H         1 RES1   0.0000
    80 H44      -0.7030    2.5237   -4.9373   H         1 RES1   0.0000
    81 H45      -2.8471    4.4464   -3.9882   H         1 RES1   0.0000
    82 H46      -1.1524    4.6758   -3.5857   H         1 RES1   0.0000
    83 H47      -1.9815    3.2352   -3.0099   H         1 RES1   0.0000
    84 H48      -0.2636    4.8750   -5.5821   H         1 RES1   0.0000
    85 H49      -1.8363    4.9670   -6.3530   H         1 RES1   0.0000
    86 H50       0.0428    2.7978   -7.2769   H         1 RES1   0.0000
    87 H51       0.4536    4.4488   -7.6807   H         1 RES1   0.0000
    88 H52      -1.5927    4.8600   -8.8156   H         1 RES1   0.0000
    89 H53      -2.2975    3.3325   -8.3216   H         1 RES1   0.0000
    90 H54       0.0999    3.6564  -10.1686   H         1 RES1   0.0000
    91 H55      -1.5150    1.1535   -9.4846   H         1 RES1   0.0000
    92 H56       0.1809    1.4445   -9.0437   H         1 RES1   0.0000
    93 H57      -0.2783    1.2735  -10.7271   H         1 RES1   0.0000
    94 H58      -2.8065    2.9350  -10.7683   H         1 RES1   0.0000
    95 H59      -1.5030    3.0191  -11.9501   H         1 RES1   0.0000
    96 H60      -2.0465    4.4799  -11.1403   H         1 RES1   0.0000
    97 C31      -6.7165   -1.2827   -0.3133   C.3       1 RES1   0.0000
    98 C32      -6.4166   -2.3714   -1.3466   C.3       1 RES1   0.0000
    99 C33      -5.6232   -1.7707   -2.5079   C.3       1 RES1   0.0000
   100 C34      -5.7065   -3.6055   -0.7597   C.3       1 RES1   0.0000
   101 C35      -4.4984   -3.3018    0.1297   C.3       1 RES1   0.0000
   102 C36      -3.8305   -4.5748    0.6490   C.3       1 RES1   0.0000
   103 C37      -2.4276   -4.3722    1.2437   C.3       1 RES1   0.0000
   104 C38      -1.6308   -5.6660    1.0903   C.3       1 RES1   0.0000
   105 C39      -2.4801   -3.9447    2.7157   C.3       1 RES1   0.0000
   106 C40      -1.0902   -3.5935    3.2688   C.3       1 RES1   0.0000
   107 C41      -1.1207   -2.5860    4.4312   C.3       1 RES1   0.0000
   108 C42      -1.6946   -1.2107    4.0499   C.3       1 RES1   0.0000
   109 N3       -0.6787   -0.2138    3.7150   N.am      1 RES1   0.0000
   110 C43      -0.4168    0.7996    4.7143   C.3       1 RES1   0.0000
   111 C44      -0.1941   -0.2157    2.4907   C.2       1 RES1   0.0000
   112 O4       -0.4764   -1.1048    1.6527   O.2       1 RES1   0.0000
   113 C45       0.6940    0.9391    2.0370   C.3       1 RES1   0.0000
   114 O5        1.0001    0.7808    0.6569   O.3       1 RES1   0.0000
   115 C46       2.3843    0.6579    0.3170   C.3       1 RES1   0.0000
   116 C47       2.5215   -0.5104   -0.6622   C.2       1 RES1   0.0000
   117 O6        1.5007   -1.2174   -0.8675   O.2       1 RES1   0.0000
   118 N4        3.6746   -0.7541   -1.2574   N.am      1 RES1   0.0000
   119 C48       3.7094   -1.9063   -2.1535   C.3       1 RES1   0.0000
   120 C49       4.8671    0.0857   -1.1494   C.3       1 RES1   0.0000
   121 C50       5.8780   -0.2816   -0.0447   C.3       1 RES1   0.0000
   122 C51       6.4420   -1.7132   -0.1106   C.3       1 RES1   0.0000
   123 C52       6.3096   -2.5173    1.1928   C.3       1 RES1   0.0000
   124 C53       5.2794   -3.6534    1.1208   C.3       1 RES1   0.0000
   125 C54       4.8346   -3.9851    2.5449   C.3       1 RES1   0.0000
   126 C55       5.7515   -4.9699    0.4636   C.3       1 RES1   0.0000
   127 C56       6.7117   -4.9179   -0.7318   C.3       1 RES1   0.0000
   128 C57       8.1863   -4.9050   -0.3287   C.3       1 RES1   0.0000
   129 C58       9.1486   -5.1271   -1.5017   C.3       1 RES1   0.0000
   130 C59       9.1018   -3.9652   -2.4930   C.3       1 RES1   0.0000
   131 C60      10.5695   -5.3064   -0.9712   C.3       1 RES1   0.0000
   132 H61      -7.4299   -0.5770   -0.7331   H         1 RES1   0.0000
   133 H62      -5.8144   -0.7294   -0.0403   H         1 RES1   0.0000
   134 H63      -7.1622   -1.7065    0.5823   H         1 RES1   0.0000
   135 H64      -7.3768   -2.7180   -1.7421   H         1 RES1   0.0000
   136 H65      -4.6437   -1.4507   -2.1592   H         1 RES1   0.0000
   137 H66      -6.1518   -0.9115   -2.9179   H         1 RES1   0.0000
   138 H67      -5.4962   -2.5031   -3.3020   H         1 RES1   0.0000
   139 H68      -5.3924   -4.2397   -1.5911   H         1 RES1   0.0000
   140 H69      -6.4294   -4.1754   -0.1782   H         1 RES1   0.0000
   141 H70      -4.8571   -2.7144    0.9797   H         1 RES1   0.0000
   142 H71      -3.7635   -2.7247   -0.4543   H         1 RES1   0.0000
   143 H72      -3.7612   -5.2824   -0.1772   H         1 RES1   0.0000
   144 H73      -4.4704   -5.0336    1.4014   H         1 RES1   0.0000
   145 H74      -1.9133   -3.5549    0.6900   H         1 RES1   0.0000
   146 H75      -2.1040   -6.4525    1.6693   H         1 RES1   0.0000
   147 H76      -0.6090   -5.5605    1.4404   H         1 RES1   0.0000
   148 H77      -1.6097   -5.9910    0.0528   H         1 RES1   0.0000
   149 H78      -2.9120   -4.7487    3.3124   H         1 RES1   0.0000
   150 H79      -3.1406   -3.0806    2.8050   H         1 RES1   0.0000
   151 H80      -0.4670   -3.1922    2.4613   H         1 RES1   0.0000
   152 H81      -0.6213   -4.5087    3.6365   H         1 RES1   0.0000
   153 H82      -0.0998   -2.4658    4.8094   H         1 RES1   0.0000
   154 H83      -1.7342   -2.9997    5.2340   H         1 RES1   0.0000
   155 H84      -2.2955   -0.8130    4.8681   H         1 RES1   0.0000
   156 H85      -2.3130   -1.3195    3.1537   H         1 RES1   0.0000
   157 H86      -0.0596    0.3326    5.6319   H         1 RES1   0.0000
   158 H87      -1.3387    1.3425    4.9258   H         1 RES1   0.0000
   159 H88       0.3278    1.5150    4.3905   H         1 RES1   0.0000
   160 H89       1.6004    0.9793    2.6458   H         1 RES1   0.0000
   161 H90       0.1420    1.8811    2.1602   H         1 RES1   0.0000
   162 H91       2.9793    0.4402    1.2100   H         1 RES1   0.0000
   163 H92       2.7219    1.6083   -0.1199   H         1 RES1   0.0000
   164 H93       2.8697   -1.8441   -2.8493   H         1 RES1   0.0000
   165 H94       3.6135   -2.8301   -1.5802   H         1 RES1   0.0000
   166 H95       4.6415   -1.9238   -2.7117   H         1 RES1   0.0000
   167 H96       4.5691    1.1236   -0.9842   H         1 RES1   0.0000
   168 H97       5.3643    0.0461   -2.1196   H         1 RES1   0.0000
   169 H98       5.4330   -0.0962    0.9351   H         1 RES1   0.0000
   170 H99       6.6992    0.4320   -0.1474   H         1 RES1   0.0000
   171 H100      7.4914   -1.6666   -0.3958   H         1 RES1   0.0000
   172 H101      5.9200   -2.2509   -0.8943   H         1 RES1   0.0000
   173 H102      6.0197   -1.8419    2.0022   H         1 RES1   0.0000
   174 H103      7.2679   -2.9437    1.4776   H         1 RES1   0.0000
   175 H104      4.4086   -3.2756    0.5625   H         1 RES1   0.0000
   176 H105      5.7056   -4.2209    3.1504   H         1 RES1   0.0000
   177 H106      4.1731   -4.8458    2.5561   H         1 RES1   0.0000
   178 H107      4.3189   -3.1402    2.9954   H         1 RES1   0.0000
   179 H108      4.8474   -5.5056    0.1564   H         1 RES1   0.0000
   180 H109      6.2231   -5.5845    1.2311   H         1 RES1   0.0000
   181 H110      6.4849   -4.0666   -1.3695   H         1 RES1   0.0000
   182 H111      6.5454   -5.8188   -1.3250   H         1 RES1   0.0000
   183 H112      8.3480   -5.7002    0.4029   H         1 RES1   0.0000
   184 H113      8.4458   -3.9587    0.1452   H         1 RES1   0.0000
   185 H114      8.8522   -6.0453   -2.0216   H         1 RES1   0.0000
   186 H115      9.2958   -3.0234   -1.9822   H         1 RES1   0.0000
   187 H116      8.1333   -3.9044   -2.9847   H         1 RES1   0.0000
   188 H117      9.8594   -4.0992   -3.2597   H         1 RES1   0.0000
   189 H118     10.9084   -4.4057   -0.4646   H         1 RES1   0.0000
   190 H119     11.2546   -5.5196   -1.7854   H         1 RES1   0.0000
   191 H120     10.6161   -6.1328   -0.2677   H         1 RES1   0.0000
   192 O7       -3.0177   -0.6332    0.9425   O.3       1 RES1   0.0000
   193 H121     -3.4019    0.1216    1.4002   H         1 RES1   0.0000
   194 H122     -3.6418   -1.3785    1.0250   H         1 RES1   0.0000
   195 O8       -0.8563   -2.6963   -1.5659   O.3       1 RES1   0.0000
   196 H123      0.0501   -2.8961   -1.8632   H         1 RES1   0.0000
   197 H124     -1.2838   -3.5708   -1.5108   H         1 RES1   0.0000
@<TRIPOS>BOND
     1     1    17    1
     2     1    19    1
     3     1    22    1
     4     1   112    1
     5     1   114    1
     6     1   117    1
     7     1   192    1
     8     1   195    1
     9     2     3    1
    10     2    37    1
    11     2    38    1
    12     2    39    1
    13     3     4    1
    14     3     5    1
    15     3    40    1
    16     4    41    1
    17     4    42    1
    18     4    43    1
    19     5     6    1
    20     5    44    1
    21     5    45    1
    22     6     7    1
    23     6    46    1
    24     6    47    1
    25     7     8    1
    26     7    48    1
    27     7    49    1
    28     8     9    1
    29     8    10    1
    30     8    50    1
    31     9    51    1
    32     9    52    1
    33     9    53    1
    34    10    11    1
    35    10    54    1
    36    10    55    1
    37    11    12    1
    38    11    56    1
    39    11    57    1
    40    12    13    1
    41    12    58    1
    42    12    59    1
    43    13    14    1
    44    13    60    1
    45    13    61    1
    46    14    15    1
    47    14    16    1
    48    15    62    1
    49    15    63    1
    50    15    64    1
    51    16    17    2
    52    16    18    1
    53    18    19    1
    54    18    65    1
    55    18    66    1
    56    19    20    1
    57    20    21    1
    58    20    67    1
    59    20    68    1
    60    21    22    2
    61    21    23    1
    62    23    24    1
    63    23    25    1
    64    24    69    1
    65    24    70    1
    66    24    71    1
    67    25    26    1
    68    25    72    1
    69    25    73    1
    70    26    27    1
    71    26    74    1
    72    26    75    1
    73    27    28    1
    74    27    76    1
    75    27    77    1
    76    28    29    1
    77    28    78    1
    78    28    79    1
    79    29    30    1
    80    29    31    1
    81    29    80    1
    82    30    81    1
    83    30    82    1
    84    30    83    1
    85    31    32    1
    86    31    84    1
    87    31    85    1
    88    32    33    1
    89    32    86    1
    90    32    87    1
    91    33    34    1
    92    33    88    1
    93    33    89    1
    94    34    35    1
    95    34    36    1
    96    34    90    1
    97    35    91    1
    98    35    92    1
    99    35    93    1
   100    36    94    1
   101    36    95    1
   102    36    96    1
   103    97    98    1
   104    97   132    1
   105    97   133    1
   106    97   134    1
   107    98    99    1
   108    98   100    1
   109    98   135    1
   110    99   136    1
   111    99   137    1
   112    99   138    1
   113   100   101    1
   114   100   139    1
   115   100   140    1
   116   101   102    1
   117   101   141    1
   118   101   142    1
   119   102   103    1
   120   102   143    1
   121   102   144    1
   122   103   104    1
   123   103   105    1
   124   103   145    1
   125   104   146    1
   126   104   147    1
   127   104   148    1
   128   105   106    1
   129   105   149    1
   130   105   150    1
   131   106   107    1
   132   106   151    1
   133   106   152    1
   134   107   108    1
   135   107   153    1
   136   107   154    1
   137   108   109    1
   138   108   155    1
   139   108   156    1
   140   109   110    1
   141   109   111    1
   142   110   157    1
   143   110   158    1
   144   110   159    1
   145   111   112    2
   146   111   113    1
   147   113   114    1
   148   113   160    1
   149   113   161    1
   150   114   115    1
   151   115   116    1
   152   115   162    1
   153   115   163    1
   154   116   117    2
   155   116   118    1
   156   118   119    1
   157   118   120    1
   158   119   164    1
   159   119   165    1
   160   119   166    1
   161   120   121    1
   162   120   167    1
   163   120   168    1
   164   121   122    1
   165   121   169    1
   166   121   170    1
   167   122   123    1
   168   122   171    1
   169   122   172    1
   170   123   124    1
   171   123   173    1
   172   123   174    1
   173   124   125    1
   174   124   126    1
   175   124   175    1
   176   125   176    1
   177   125   177    1
   178   125   178    1
   179   126   127    1
   180   126   179    1
   181   126   180    1
   182   127   128    1
   183   127   181    1
   184   127   182    1
   185   128   129    1
   186   128   183    1
   187   128   184    1
   188   129   130    1
   189   129   131    1
   190   129   185    1
   191   130   186    1
   192   130   187    1
   193   130   188    1
   194   131   189    1
   195   131   190    1
   196   131   191    1
   197   192   193    1
   198   192   194    1
   199   195   196    1
   200   195   197    1
@<TRIPOS>SUBSTRUCTURE
     1 RES1      197 GROUP             0 ****  ****    0  
