@<TRIPOS>MOLECULE
ICIGOT_geomtry_0_nunpairedes_0_charge_2 Charge: 2 Unpaired_Electrons: 3 XTB_Unpaired_Electrons: 0 XTB_Charge: 2
   147   151     1     0     0
SMALL
NoCharges
****
Generated from Architector

@<TRIPOS>ATOM
     1 Er1      -0.4893   -0.0717   -0.2950   Er        1 RES1   0.0000
     2 C1        4.8433    0.2327    5.6002   C.3       1 RES1   0.0000
     3 C2        3.5135   -0.3127    5.0925   C.3       1 RES1   0.0000
     4 C3        3.1689   -1.6309    5.7846   C.3       1 RES1   0.0000
     5 C4        1.8608   -2.2759    5.3217   C.3       1 RES1   0.0000
     6 C5        0.6095   -1.4218    5.5353   C.3       1 RES1   0.0000
     7 C6       -0.6484   -2.2322    5.2087   C.3       1 RES1   0.0000
     8 C7       -1.9718   -1.4831    5.3968   C.3       1 RES1   0.0000
     9 C8       -2.3577   -0.5344    4.2550   C.3       1 RES1   0.0000
    10 N1       -1.3993    0.5480    4.0491   N.am      1 RES1   0.0000
    11 C9       -1.2853    1.4831    5.1478   C.3       1 RES1   0.0000
    12 C10      -0.8360    0.7200    2.8649   C.2       1 RES1   0.0000
    13 O1       -1.1572    0.0623    1.8541   O.2       1 RES1   0.0000
    14 C11       0.2881    1.7554    2.7390   C.3       1 RES1   0.0000
    15 O2        1.0078    1.4850    1.5377   O.3       1 RES1   0.0000
    16 C12       1.3767    2.6654    0.8366   C.3       1 RES1   0.0000
    17 C13       0.1789    3.0540   -0.0405   C.2       1 RES1   0.0000
    18 O3       -0.6506    2.1397   -0.2382   O.2       1 RES1   0.0000
    19 N2        0.0162    4.2731   -0.5173   N.am      1 RES1   0.0000
    20 C14       0.9189    5.3837   -0.3028   C.3       1 RES1   0.0000
    21 C15      -1.1441    4.5205   -1.3828   C.3       1 RES1   0.0000
    22 C16      -2.4152    4.9294   -0.6260   C.3       1 RES1   0.0000
    23 C17      -3.1396    3.8324    0.1797   C.3       1 RES1   0.0000
    24 C18      -4.3253    3.1308   -0.4974   C.3       1 RES1   0.0000
    25 C19      -3.9901    2.1978   -1.6644   C.3       1 RES1   0.0000
    26 C20      -5.1946    1.3291   -2.0769   C.3       1 RES1   0.0000
    27 C21      -5.3486   -0.0373   -1.3935   C.3       1 RES1   0.0000
    28 C22      -5.3952   -0.0159    0.1298   C.3       1 RES1   0.0000
    29 H1        5.0833    1.1803    5.1233   H         1 RES1   0.0000
    30 H2        4.7974    0.3947    6.6744   H         1 RES1   0.0000
    31 H3        5.6476   -0.4704    5.3968   H         1 RES1   0.0000
    32 H4        2.7314    0.4234    5.2928   H         1 RES1   0.0000
    33 H5        3.5707   -0.4645    4.0079   H         1 RES1   0.0000
    34 H6        3.9790   -2.3408    5.5984   H         1 RES1   0.0000
    35 H7        3.1274   -1.4647    6.8628   H         1 RES1   0.0000
    36 H8        1.9346   -2.5129    4.2572   H         1 RES1   0.0000
    37 H9        1.7412   -3.2144    5.8691   H         1 RES1   0.0000
    38 H10       0.5747   -1.0833    6.5737   H         1 RES1   0.0000
    39 H11       0.6651   -0.5463    4.8867   H         1 RES1   0.0000
    40 H12      -0.5844   -2.5908    4.1781   H         1 RES1   0.0000
    41 H13      -0.6636   -3.1073    5.8633   H         1 RES1   0.0000
    42 H14      -2.7783   -2.2170    5.4540   H         1 RES1   0.0000
    43 H15      -1.9600   -0.9497    6.3477   H         1 RES1   0.0000
    44 H16      -2.4430   -1.0913    3.3189   H         1 RES1   0.0000
    45 H17      -3.3325   -0.0906    4.4802   H         1 RES1   0.0000
    46 H18      -2.2796    1.8794    5.3614   H         1 RES1   0.0000
    47 H19      -0.9123    0.9861    6.0417   H         1 RES1   0.0000
    48 H20      -0.6279    2.3150    4.9221   H         1 RES1   0.0000
    49 H21      -0.1682    2.7556    2.7112   H         1 RES1   0.0000
    50 H22       0.9887    1.6733    3.5852   H         1 RES1   0.0000
    51 H23       1.6757    3.4372    1.5537   H         1 RES1   0.0000
    52 H24       2.2201    2.3931    0.1908   H         1 RES1   0.0000
    53 H25       1.7903    5.1116    0.2858   H         1 RES1   0.0000
    54 H26       1.2760    5.7630   -1.2609   H         1 RES1   0.0000
    55 H27       0.3919    6.1955    0.2016   H         1 RES1   0.0000
    56 H28      -0.8644    5.3283   -2.0628   H         1 RES1   0.0000
    57 H29      -1.3222    3.6105   -1.9602   H         1 RES1   0.0000
    58 H30      -2.1524    5.7453    0.0514   H         1 RES1   0.0000
    59 H31      -3.1067    5.3451   -1.3607   H         1 RES1   0.0000
    60 H32      -2.4354    3.0654    0.5036   H         1 RES1   0.0000
    61 H33      -3.5403    4.3026    1.0812   H         1 RES1   0.0000
    62 H34      -4.8066    2.5373    0.2809   H         1 RES1   0.0000
    63 H35      -5.0481    3.8769   -0.8342   H         1 RES1   0.0000
    64 H36      -3.6985    2.7955   -2.5307   H         1 RES1   0.0000
    65 H37      -3.1328    1.5674   -1.3881   H         1 RES1   0.0000
    66 H38      -6.1058    1.9106   -1.9139   H         1 RES1   0.0000
    67 H39      -5.1324    1.1309   -3.1502   H         1 RES1   0.0000
    68 H40      -6.2829   -0.4722   -1.7577   H         1 RES1   0.0000
    69 H41      -4.5492   -0.7089   -1.7103   H         1 RES1   0.0000
    70 H42      -6.1992    0.6327    0.4729   H         1 RES1   0.0000
    71 H43      -5.5860   -1.0212    0.5009   H         1 RES1   0.0000
    72 H44      -4.4446    0.3168    0.5513   H         1 RES1   0.0000
    73 C23       3.1896   -4.1902   -3.0535   C.3       1 RES1   0.0000
    74 C24       1.8937   -4.4741   -2.3011   C.3       1 RES1   0.0000
    75 C25       0.8776   -5.1533   -3.2204   C.3       1 RES1   0.0000
    76 C26      -0.5257   -5.3565   -2.6389   C.3       1 RES1   0.0000
    77 C27      -0.6603   -6.4003   -1.5226   C.3       1 RES1   0.0000
    78 C28      -0.2466   -5.9653   -0.1121   C.3       1 RES1   0.0000
    79 C29      -1.1193   -4.8446    0.4506   C.3       1 RES1   0.0000
    80 C30      -0.6870   -4.4090    1.8517   C.3       1 RES1   0.0000
    81 N3        0.6586   -3.8231    1.8928   N.am      1 RES1   0.0000
    82 C31       1.6537   -4.5945    2.6069   C.3       1 RES1   0.0000
    83 C32       0.8722   -2.6911    1.2474   C.2       1 RES1   0.0000
    84 O4       -0.0019   -2.1388    0.5440   O.2       1 RES1   0.0000
    85 C33       2.2194   -1.9538    1.3350   C.3       1 RES1   0.0000
    86 O5        2.1451   -0.8974    0.3871   O.3       1 RES1   0.0000
    87 C34       3.0948   -0.9541   -0.6619   C.3       1 RES1   0.0000
    88 C35       2.4467   -0.2473   -1.8582   C.2       1 RES1   0.0000
    89 O6        1.2954    0.2153   -1.7017   O.2       1 RES1   0.0000
    90 N4        3.1192   -0.1691   -2.9898   N.am      1 RES1   0.0000
    91 C36       4.4786   -0.6370   -3.1538   C.3       1 RES1   0.0000
    92 C37       2.5140    0.4130   -4.1940   C.3       1 RES1   0.0000
    93 C38       1.6392   -0.6011   -4.9629   C.3       1 RES1   0.0000
    94 C39       0.1421   -0.2594   -4.9897   C.3       1 RES1   0.0000
    95 C40      -0.3078    0.6357   -6.1501   C.3       1 RES1   0.0000
    96 C41       0.1375    2.1010   -6.1201   C.3       1 RES1   0.0000
    97 C42      -0.5884    2.9883   -5.1002   C.3       1 RES1   0.0000
    98 C43      -2.0666    3.2031   -5.4467   C.3       1 RES1   0.0000
    99 C44      -2.6784    4.4050   -4.7329   C.3       1 RES1   0.0000
   100 H45       3.9398   -3.7402   -2.4032   H         1 RES1   0.0000
   101 H46       3.0089   -3.5289   -3.8990   H         1 RES1   0.0000
   102 H47       3.5988   -5.1222   -3.4352   H         1 RES1   0.0000
   103 H48       1.4647   -3.5407   -1.9092   H         1 RES1   0.0000
   104 H49       2.1307   -5.1302   -1.4618   H         1 RES1   0.0000
   105 H50       1.2805   -6.1186   -3.5351   H         1 RES1   0.0000
   106 H51       0.7717   -4.5398   -4.1212   H         1 RES1   0.0000
   107 H52      -1.1538   -5.6936   -3.4672   H         1 RES1   0.0000
   108 H53      -0.9286   -4.3955   -2.3116   H         1 RES1   0.0000
   109 H54      -0.0778   -7.2822   -1.7960   H         1 RES1   0.0000
   110 H55      -1.7067   -6.7100   -1.4806   H         1 RES1   0.0000
   111 H56       0.7973   -5.6503   -0.1135   H         1 RES1   0.0000
   112 H57      -0.3296   -6.8363    0.5449   H         1 RES1   0.0000
   113 H58      -2.1546   -5.1829    0.5198   H         1 RES1   0.0000
   114 H59      -1.1028   -3.9744   -0.2071   H         1 RES1   0.0000
   115 H60      -0.6961   -5.2634    2.5302   H         1 RES1   0.0000
   116 H61      -1.3940   -3.6591    2.2196   H         1 RES1   0.0000
   117 H62       1.3219   -4.7692    3.6306   H         1 RES1   0.0000
   118 H63       2.6230   -4.1073    2.6474   H         1 RES1   0.0000
   119 H64       1.7709   -5.5669    2.1260   H         1 RES1   0.0000
   120 H65       3.0786   -2.6018    1.1326   H         1 RES1   0.0000
   121 H66       2.3227   -1.4888    2.3267   H         1 RES1   0.0000
   122 H67       3.3173   -1.9931   -0.9470   H         1 RES1   0.0000
   123 H68       4.0114   -0.4363   -0.3373   H         1 RES1   0.0000
   124 H69       4.8858   -1.0820   -2.2534   H         1 RES1   0.0000
   125 H70       5.1175    0.2037   -3.4259   H         1 RES1   0.0000
   126 H71       4.5257   -1.3758   -3.9531   H         1 RES1   0.0000
   127 H72       3.3357    0.7554   -4.8260   H         1 RES1   0.0000
   128 H73       1.9148    1.2749   -3.8937   H         1 RES1   0.0000
   129 H74       1.7611   -1.5826   -4.4961   H         1 RES1   0.0000
   130 H75       2.0054   -0.6964   -5.9871   H         1 RES1   0.0000
   131 H76      -0.1434    0.1875   -4.0360   H         1 RES1   0.0000
   132 H77      -0.4091   -1.1973   -5.0957   H         1 RES1   0.0000
   133 H78      -1.3971    0.6087   -6.1779   H         1 RES1   0.0000
   134 H79       0.0452    0.1919   -7.0842   H         1 RES1   0.0000
   135 H80      -0.0475    2.5241   -7.1105   H         1 RES1   0.0000
   136 H81       1.2160    2.1567   -5.9542   H         1 RES1   0.0000
   137 H82      -0.0867    3.9617   -5.0914   H         1 RES1   0.0000
   138 H83      -0.5022    2.5600   -4.0960   H         1 RES1   0.0000
   139 H84      -2.6357    2.3099   -5.1840   H         1 RES1   0.0000
   140 H85      -2.1629    3.3543   -6.5239   H         1 RES1   0.0000
   141 H86      -2.6498    4.2719   -3.6540   H         1 RES1   0.0000
   142 H87      -3.7161    4.5272   -5.0341   H         1 RES1   0.0000
   143 H88      -2.1468    5.3208   -4.9843   H         1 RES1   0.0000
   144 N5       -2.0431   -0.8162   -2.0110   N.3       1 RES1   0.0000
   145 O7       -2.5187   -1.4006   -2.9277   O.2       1 RES1   0.0000
   146 O8       -1.3857    0.2314   -2.1726   O.co2     1 RES1   0.0000
   147 O9       -2.1868   -1.1977   -0.8354   O.co2     1 RES1   0.0000
@<TRIPOS>BOND
     1     1    13    1
     2     1    15    1
     3     1    18    1
     4     1    84    1
     5     1    86    1
     6     1    89    1
     7     1   146    1
     8     1   147    1
     9     2     3    1
    10     2    29    1
    11     2    30    1
    12     2    31    1
    13     3     4    1
    14     3    32    1
    15     3    33    1
    16     4     5    1
    17     4    34    1
    18     4    35    1
    19     5     6    1
    20     5    36    1
    21     5    37    1
    22     6     7    1
    23     6    38    1
    24     6    39    1
    25     7     8    1
    26     7    40    1
    27     7    41    1
    28     8     9    1
    29     8    42    1
    30     8    43    1
    31     9    10    1
    32     9    44    1
    33     9    45    1
    34    10    11    1
    35    10    12    1
    36    11    46    1
    37    11    47    1
    38    11    48    1
    39    12    13    2
    40    12    14    1
    41    14    15    1
    42    14    49    1
    43    14    50    1
    44    15    16    1
    45    16    17    1
    46    16    51    1
    47    16    52    1
    48    17    18    2
    49    17    19    1
    50    19    20    1
    51    19    21    1
    52    20    53    1
    53    20    54    1
    54    20    55    1
    55    21    22    1
    56    21    56    1
    57    21    57    1
    58    22    23    1
    59    22    58    1
    60    22    59    1
    61    23    24    1
    62    23    60    1
    63    23    61    1
    64    24    25    1
    65    24    62    1
    66    24    63    1
    67    25    26    1
    68    25    64    1
    69    25    65    1
    70    26    27    1
    71    26    66    1
    72    26    67    1
    73    27    28    1
    74    27    68    1
    75    27    69    1
    76    28    70    1
    77    28    71    1
    78    28    72    1
    79    73    74    1
    80    73   100    1
    81    73   101    1
    82    73   102    1
    83    74    75    1
    84    74   103    1
    85    74   104    1
    86    75    76    1
    87    75   105    1
    88    75   106    1
    89    76    77    1
    90    76   107    1
    91    76   108    1
    92    77    78    1
    93    77   109    1
    94    77   110    1
    95    78    79    1
    96    78   111    1
    97    78   112    1
    98    79    80    1
    99    79   113    1
   100    79   114    1
   101    80    81    1
   102    80   115    1
   103    80   116    1
   104    81    82    1
   105    81    83    1
   106    82   117    1
   107    82   118    1
   108    82   119    1
   109    83    84    2
   110    83    85    1
   111    85    86    1
   112    85   120    1
   113    85   121    1
   114    86    87    1
   115    87    88    1
   116    87   122    1
   117    87   123    1
   118    88    89    2
   119    88    90    1
   120    90    91    1
   121    90    92    1
   122    91   124    1
   123    91   125    1
   124    91   126    1
   125    92    93    1
   126    92   127    1
   127    92   128    1
   128    93    94    1
   129    93   129    1
   130    93   130    1
   131    94    95    1
   132    94   131    1
   133    94   132    1
   134    95    96    1
   135    95   133    1
   136    95   134    1
   137    96    97    1
   138    96   135    1
   139    96   136    1
   140    97    98    1
   141    97   137    1
   142    97   138    1
   143    98    99    1
   144    98   139    1
   145    98   140    1
   146    99   141    1
   147    99   142    1
   148    99   143    1
   149   144   145    2
   150   144   146    1
   151   144   147    1
@<TRIPOS>SUBSTRUCTURE
     1 RES1      147 GROUP             0 ****  ****    0  
