@<TRIPOS>MOLECULE
ICIGOT_geomtry_0_nunpairedes_0_charge_3 Charge: 3 Unpaired_Electrons: 3 XTB_Unpaired_Electrons: 0 XTB_Charge: 3
    87    92     1     0     0
SMALL
NoCharges
****
Generated from Architector

@<TRIPOS>ATOM
     1 Er1      -0.6819    0.1215    0.4686   Er        1 RES1   0.0000
     2 C1        2.8975    1.9840    0.1592   C.3       1 RES1   0.0000
     3 N1        2.7707    0.9599    1.1851   N.am      1 RES1   0.0000
     4 C2        4.0186    0.2757    1.4633   C.3       1 RES1   0.0000
     5 C3        1.6323    0.8779    1.8616   C.2       1 RES1   0.0000
     6 O1        0.6041    1.4686    1.4538   O.2       1 RES1   0.0000
     7 C4        1.4902    0.1563    3.2074   C.3       1 RES1   0.0000
     8 N2        0.3795   -0.7905    3.1476   N.3       1 RES1   0.0000
     9 C5        0.8242   -2.1716    3.0783   C.3       1 RES1   0.0000
    10 C6        1.0229   -2.5682    1.6137   C.2       1 RES1   0.0000
    11 O2        0.7294   -1.7399    0.7207   O.2       1 RES1   0.0000
    12 N3        1.4710   -3.7864    1.3534   N.am      1 RES1   0.0000
    13 C7        1.8887   -4.7423    2.3557   C.3       1 RES1   0.0000
    14 C8        1.5507   -4.2857   -0.0040   C.3       1 RES1   0.0000
    15 C9       -0.7812   -0.6330    4.0253   C.3       1 RES1   0.0000
    16 C10      -1.9634   -1.0423    3.1451   C.2       1 RES1   0.0000
    17 O3       -2.0042   -0.5226    2.0008   O.2       1 RES1   0.0000
    18 N4       -2.8461   -1.9746    3.4710   N.am      1 RES1   0.0000
    19 C11      -3.1160   -2.5906    4.7507   C.3       1 RES1   0.0000
    20 C12      -3.8070   -2.3868    2.4646   C.3       1 RES1   0.0000
    21 H1        3.6574    2.6916    0.4896   H         1 RES1   0.0000
    22 H2        1.9530    2.5077    0.0309   H         1 RES1   0.0000
    23 H3        3.1986    1.5564   -0.7940   H         1 RES1   0.0000
    24 H4        4.6662    0.8777    2.1013   H         1 RES1   0.0000
    25 H5        4.5649    0.1215    0.5311   H         1 RES1   0.0000
    26 H6        3.8752   -0.6951    1.9288   H         1 RES1   0.0000
    27 H7        1.2591    0.9607    3.9113   H         1 RES1   0.0000
    28 H8        2.4082   -0.3335    3.5433   H         1 RES1   0.0000
    29 H9        0.0650   -2.8321    3.5093   H         1 RES1   0.0000
    30 H10       1.7520   -2.3208    3.6500   H         1 RES1   0.0000
    31 H11       1.9658   -4.2900    3.3365   H         1 RES1   0.0000
    32 H12       2.8634   -5.1462    2.0770   H         1 RES1   0.0000
    33 H13       1.1779   -5.5680    2.4124   H         1 RES1   0.0000
    34 H14       1.0825   -3.5686   -0.6711   H         1 RES1   0.0000
    35 H15       1.0321   -5.2425   -0.0596   H         1 RES1   0.0000
    36 H16       2.5893   -4.4445   -0.2938   H         1 RES1   0.0000
    37 H17      -0.9141    0.4142    4.3088   H         1 RES1   0.0000
    38 H18      -0.7027   -1.2287    4.9406   H         1 RES1   0.0000
    39 H19      -2.4054   -2.2994    5.5126   H         1 RES1   0.0000
    40 H20      -3.1071   -3.6784    4.6439   H         1 RES1   0.0000
    41 H21      -4.1206   -2.3088    5.0785   H         1 RES1   0.0000
    42 H22      -3.4581   -2.0519    1.4910   H         1 RES1   0.0000
    43 H23      -4.7832   -1.9496    2.6761   H         1 RES1   0.0000
    44 H24      -3.8844   -3.4740    2.4764   H         1 RES1   0.0000
    45 C13       1.9537   -1.4719   -2.4387   C.3       1 RES1   0.0000
    46 N5        0.5970   -1.2119   -2.9038   N.am      1 RES1   0.0000
    47 C14       0.1397   -2.0769   -3.9752   C.3       1 RES1   0.0000
    48 C15      -0.0663   -0.2114   -2.3440   C.2       1 RES1   0.0000
    49 O4        0.3993    0.4207   -1.3630   O.2       1 RES1   0.0000
    50 C16      -1.3976    0.2714   -2.9162   C.3       1 RES1   0.0000
    51 N6       -2.2430    0.7660   -1.8271   N.3       1 RES1   0.0000
    52 C17      -3.4210   -0.0856   -1.6637   C.3       1 RES1   0.0000
    53 C18      -2.8933   -1.4559   -1.2379   C.2       1 RES1   0.0000
    54 O5       -1.7763   -1.5141   -0.6638   O.2       1 RES1   0.0000
    55 N7       -3.5823   -2.5467   -1.5209   N.am      1 RES1   0.0000
    56 C19      -4.9141   -2.5391   -2.0877   C.3       1 RES1   0.0000
    57 C20      -3.0081   -3.8530   -1.2711   C.3       1 RES1   0.0000
    58 C21      -2.5380    2.1996   -1.8439   C.3       1 RES1   0.0000
    59 C22      -2.2190    2.7768   -0.4549   C.2       1 RES1   0.0000
    60 O6       -1.8583    1.9673    0.4318   O.2       1 RES1   0.0000
    61 N8       -2.2569    4.0782   -0.2365   N.am      1 RES1   0.0000
    62 C23      -1.7029    4.6118    0.9965   C.3       1 RES1   0.0000
    63 C24      -2.8656    5.0818   -1.0828   C.3       1 RES1   0.0000
    64 H25       2.6409   -0.8608   -3.0249   H         1 RES1   0.0000
    65 H26       2.2196   -2.5201   -2.5724   H         1 RES1   0.0000
    66 H27       2.0418   -1.1783   -1.3893   H         1 RES1   0.0000
    67 H28       0.9692   -2.3164   -4.6411   H         1 RES1   0.0000
    68 H29      -0.6387   -1.6159   -4.5718   H         1 RES1   0.0000
    69 H30      -0.2380   -3.0149   -3.5656   H         1 RES1   0.0000
    70 H31      -1.9332   -0.4919   -3.4795   H         1 RES1   0.0000
    71 H32      -1.1450    1.0647   -3.6244   H         1 RES1   0.0000
    72 H33      -4.0272   -0.1656   -2.5842   H         1 RES1   0.0000
    73 H34      -4.0590    0.3284   -0.8716   H         1 RES1   0.0000
    74 H35      -4.9454   -2.0288   -3.0501   H         1 RES1   0.0000
    75 H36      -5.6176   -2.0588   -1.4084   H         1 RES1   0.0000
    76 H37      -5.2283   -3.5672   -2.2449   H         1 RES1   0.0000
    77 H38      -2.0736   -3.7327   -0.7317   H         1 RES1   0.0000
    78 H39      -2.8165   -4.3545   -2.2195   H         1 RES1   0.0000
    79 H40      -3.7007   -4.4566   -0.6914   H         1 RES1   0.0000
    80 H41      -3.5760    2.3912   -2.1348   H         1 RES1   0.0000
    81 H42      -1.8804    2.6932   -2.5603   H         1 RES1   0.0000
    82 H43      -1.0781    3.8598    1.4735   H         1 RES1   0.0000
    83 H44      -2.4868    4.9129    1.6902   H         1 RES1   0.0000
    84 H45      -1.1001    5.4893    0.7634   H         1 RES1   0.0000
    85 H46      -3.2323    4.6599   -2.0108   H         1 RES1   0.0000
    86 H47      -2.1448    5.8721   -1.3007   H         1 RES1   0.0000
    87 H48      -3.7045    5.5377   -0.5498   H         1 RES1   0.0000
@<TRIPOS>BOND
     1     1     3    1
     2     1     6    1
     3     1    11    1
     4     1    17    1
     5     1    46    1
     6     1    49    1
     7     1    54    1
     8     1    60    1
     9     2     3    1
    10     2    21    1
    11     2    22    1
    12     2    23    1
    13     3     4    1
    14     3     5    1
    15     4    24    1
    16     4    25    1
    17     4    26    1
    18     5     6    2
    19     5     7    1
    20     7     8    1
    21     7    27    1
    22     7    28    1
    23     8     9    1
    24     8    15    1
    25     9    10    1
    26     9    29    1
    27     9    30    1
    28    10    11    2
    29    10    12    1
    30    12    13    1
    31    12    14    1
    32    13    31    1
    33    13    32    1
    34    13    33    1
    35    14    34    1
    36    14    35    1
    37    14    36    1
    38    15    16    1
    39    15    37    1
    40    15    38    1
    41    16    17    2
    42    16    18    1
    43    18    19    1
    44    18    20    1
    45    19    39    1
    46    19    40    1
    47    19    41    1
    48    20    42    1
    49    20    43    1
    50    20    44    1
    51    45    46    1
    52    45    64    1
    53    45    65    1
    54    45    66    1
    55    46    47    1
    56    46    48    1
    57    47    67    1
    58    47    68    1
    59    47    69    1
    60    48    49    2
    61    48    50    1
    62    50    51    1
    63    50    70    1
    64    50    71    1
    65    51    52    1
    66    51    58    1
    67    52    53    1
    68    52    72    1
    69    52    73    1
    70    53    54    2
    71    53    55    1
    72    55    56    1
    73    55    57    1
    74    56    74    1
    75    56    75    1
    76    56    76    1
    77    57    77    1
    78    57    78    1
    79    57    79    1
    80    58    59    1
    81    58    80    1
    82    58    81    1
    83    59    60    2
    84    59    61    1
    85    61    62    1
    86    61    63    1
    87    62    82    1
    88    62    83    1
    89    62    84    1
    90    63    85    1
    91    63    86    1
    92    63    87    1
@<TRIPOS>SUBSTRUCTURE
     1 RES1       87 GROUP             0 ****  ****    0  
