@<TRIPOS>MOLECULE
ICIGOT_geomtry_0_nunpairedes_0_charge_2 Charge: 2 Unpaired_Electrons: 3 XTB_Unpaired_Electrons: 0 XTB_Charge: 2
   243   247     1     0     0
SMALL
NoCharges
****
Generated from Architector

@<TRIPOS>ATOM
     1 Er1       0.0744   -0.0101   -0.0373   Er        1 RES1   0.0000
     2 C1       -5.5362   -5.8790   -2.0657   C.3       1 RES1   0.0000
     3 C2       -4.7284   -4.7941   -1.3606   C.3       1 RES1   0.0000
     4 C3       -5.5190   -4.0364   -0.2903   C.3       1 RES1   0.0000
     5 C4       -6.5090   -3.0331   -0.8799   C.3       1 RES1   0.0000
     6 C5       -7.4102   -2.3777    0.1679   C.3       1 RES1   0.0000
     7 C6       -6.6693   -1.4867    1.1712   C.3       1 RES1   0.0000
     8 C7       -6.2048   -0.1564    0.5699   C.3       1 RES1   0.0000
     9 C8       -5.3939    0.7223    1.5458   C.3       1 RES1   0.0000
    10 N1       -4.0405    0.2243    1.7192   N.am      1 RES1   0.0000
    11 C9       -3.7702   -0.6881    2.8277   C.3       1 RES1   0.0000
    12 C10      -3.2751    0.1364    4.0224   C.3       1 RES1   0.0000
    13 C11      -1.8099    0.6123    3.9663   C.3       1 RES1   0.0000
    14 C12      -0.9128   -0.1001    4.9791   C.3       1 RES1   0.0000
    15 C13      -0.5299   -1.5484    4.6626   C.3       1 RES1   0.0000
    16 C14      -1.6507   -2.5972    4.6631   C.3       1 RES1   0.0000
    17 C15      -1.1492   -3.9701    5.1128   C.3       1 RES1   0.0000
    18 C16      -2.1834   -5.0799    4.9630   C.3       1 RES1   0.0000
    19 C17      -3.0045    0.5485    0.9554   C.2       1 RES1   0.0000
    20 O1       -1.9844   -0.1830    0.9048   O.2       1 RES1   0.0000
    21 C18      -2.9571    1.9190    0.2437   C.3       1 RES1   0.0000
    22 C19      -3.7018    1.9590   -1.0943   C.3       1 RES1   0.0000
    23 O2       -1.5598    2.1662    0.0564   O.3       1 RES1   0.0000
    24 C20      -0.9983    3.3884    0.5666   C.3       1 RES1   0.0000
    25 C21      -0.9293    4.3975   -0.5803   C.3       1 RES1   0.0000
    26 C22       0.3634    2.9489    1.1648   C.2       1 RES1   0.0000
    27 O3        0.5677    1.7126    1.2152   O.2       1 RES1   0.0000
    28 N2        1.2686    3.7787    1.6626   N.am      1 RES1   0.0000
    29 C23       1.2777    5.2329    1.5973   C.3       1 RES1   0.0000
    30 C24       2.1121    5.7404    0.4114   C.3       1 RES1   0.0000
    31 C25       2.0553    7.2648    0.3181   C.3       1 RES1   0.0000
    32 C26       2.9080    7.8273   -0.8228   C.3       1 RES1   0.0000
    33 C27       2.4429    7.4493   -2.2298   C.3       1 RES1   0.0000
    34 C28       1.0014    7.8571   -2.5324   C.3       1 RES1   0.0000
    35 C29       0.7162    7.9140   -4.0337   C.3       1 RES1   0.0000
    36 C30      -0.7773    8.0363   -4.3108   C.3       1 RES1   0.0000
    37 C31       2.5155    3.1576    2.1250   C.3       1 RES1   0.0000
    38 C32       2.4047    2.3873    3.4492   C.3       1 RES1   0.0000
    39 C33       2.3771    3.2505    4.7126   C.3       1 RES1   0.0000
    40 C34       1.0337    3.9116    5.0070   C.3       1 RES1   0.0000
    41 C35       1.1486    4.9160    6.1544   C.3       1 RES1   0.0000
    42 C36      -0.0561    5.8516    6.2703   C.3       1 RES1   0.0000
    43 C37      -0.2575    6.7884    5.0744   C.3       1 RES1   0.0000
    44 C38       0.9479    7.6775    4.7854   C.3       1 RES1   0.0000
    45 H1       -4.8973   -6.4228   -2.7588   H         1 RES1   0.0000
    46 H2       -5.9337   -6.5900   -1.3439   H         1 RES1   0.0000
    47 H3       -6.3653   -5.4555   -2.6268   H         1 RES1   0.0000
    48 H4       -3.8637   -5.2671   -0.8867   H         1 RES1   0.0000
    49 H5       -4.3540   -4.0795   -2.0993   H         1 RES1   0.0000
    50 H6       -6.0585   -4.7564    0.3279   H         1 RES1   0.0000
    51 H7       -4.8081   -3.5078    0.3515   H         1 RES1   0.0000
    52 H8       -5.9649   -2.2643   -1.4314   H         1 RES1   0.0000
    53 H9       -7.1541   -3.5463   -1.5899   H         1 RES1   0.0000
    54 H10      -8.1762   -1.7836   -0.3332   H         1 RES1   0.0000
    55 H11      -7.9310   -3.1584    0.7256   H         1 RES1   0.0000
    56 H12      -7.3394   -1.2740    2.0080   H         1 RES1   0.0000
    57 H13      -5.8116   -2.0420    1.5505   H         1 RES1   0.0000
    58 H14      -5.6038   -0.3504   -0.3212   H         1 RES1   0.0000
    59 H15      -7.0836    0.4154    0.2609   H         1 RES1   0.0000
    60 H16      -5.3540    1.7389    1.1562   H         1 RES1   0.0000
    61 H17      -5.8872    0.7476    2.5211   H         1 RES1   0.0000
    62 H18      -4.6866   -1.1990    3.1133   H         1 RES1   0.0000
    63 H19      -3.0286   -1.4140    2.4940   H         1 RES1   0.0000
    64 H20      -3.9422    0.9959    4.1043   H         1 RES1   0.0000
    65 H21      -3.4106   -0.4492    4.9295   H         1 RES1   0.0000
    66 H22      -1.3844    0.4888    2.9691   H         1 RES1   0.0000
    67 H23      -1.7781    1.6796    4.1964   H         1 RES1   0.0000
    68 H24       0.0217    0.4616    5.0573   H         1 RES1   0.0000
    69 H25      -1.3921   -0.0439    5.9576   H         1 RES1   0.0000
    70 H26      -0.0111   -1.5719    3.6979   H         1 RES1   0.0000
    71 H27       0.1802   -1.8353    5.4356   H         1 RES1   0.0000
    72 H28      -2.4493   -2.2970    5.3360   H         1 RES1   0.0000
    73 H29      -2.0832   -2.6979    3.6646   H         1 RES1   0.0000
    74 H30      -0.2778   -4.2429    4.5196   H         1 RES1   0.0000
    75 H31      -0.8342   -3.9225    6.1561   H         1 RES1   0.0000
    76 H32      -2.5617   -5.1302    3.9430   H         1 RES1   0.0000
    77 H33      -1.7229   -6.0380    5.1960   H         1 RES1   0.0000
    78 H34      -3.0229   -4.9262    5.6364   H         1 RES1   0.0000
    79 H35      -3.3693    2.6826    0.9195   H         1 RES1   0.0000
    80 H36      -3.4642    1.0887   -1.7017   H         1 RES1   0.0000
    81 H37      -4.7765    1.9908   -0.9360   H         1 RES1   0.0000
    82 H38      -3.4130    2.8502   -1.6483   H         1 RES1   0.0000
    83 H39      -1.6268    3.7789    1.3849   H         1 RES1   0.0000
    84 H40      -0.3540    3.9812   -1.4054   H         1 RES1   0.0000
    85 H41      -1.9421    4.6050   -0.9218   H         1 RES1   0.0000
    86 H42      -0.4785    5.3331   -0.2756   H         1 RES1   0.0000
    87 H43       0.2560    5.6112    1.5364   H         1 RES1   0.0000
    88 H44       1.7160    5.6087    2.5272   H         1 RES1   0.0000
    89 H45       3.1538    5.4418    0.5376   H         1 RES1   0.0000
    90 H46       1.7536    5.2847   -0.5113   H         1 RES1   0.0000
    91 H47       1.0205    7.5918    0.1997   H         1 RES1   0.0000
    92 H48       2.4244    7.6765    1.2611   H         1 RES1   0.0000
    93 H49       2.9039    8.9148   -0.7356   H         1 RES1   0.0000
    94 H50       3.9387    7.4896   -0.6920   H         1 RES1   0.0000
    95 H51       3.1015    7.9465   -2.9425   H         1 RES1   0.0000
    96 H52       2.5619    6.3760   -2.3827   H         1 RES1   0.0000
    97 H53       0.3072    7.1451   -2.0771   H         1 RES1   0.0000
    98 H54       0.8042    8.8391   -2.0988   H         1 RES1   0.0000
    99 H55       1.2393    8.7650   -4.4731   H         1 RES1   0.0000
   100 H56       1.0985    7.0119   -4.5130   H         1 RES1   0.0000
   101 H57      -1.1769    8.9281   -3.8343   H         1 RES1   0.0000
   102 H58      -0.9681    8.1030   -5.3788   H         1 RES1   0.0000
   103 H59      -1.3117    7.1702   -3.9228   H         1 RES1   0.0000
   104 H60       2.8354    2.4587    1.3411   H         1 RES1   0.0000
   105 H61       3.2631    3.9437    2.2257   H         1 RES1   0.0000
   106 H62       1.5343    1.7307    3.4096   H         1 RES1   0.0000
   107 H63       3.2961    1.7604    3.5041   H         1 RES1   0.0000
   108 H64       2.6545    2.6251    5.5637   H         1 RES1   0.0000
   109 H65       3.1467    4.0196    4.6234   H         1 RES1   0.0000
   110 H66       0.6859    4.4221    4.1116   H         1 RES1   0.0000
   111 H67       0.2934    3.1493    5.2609   H         1 RES1   0.0000
   112 H68       1.2627    4.3744    7.0950   H         1 RES1   0.0000
   113 H69       2.0501    5.5141    6.0187   H         1 RES1   0.0000
   114 H70      -0.9651    5.2608    6.4099   H         1 RES1   0.0000
   115 H71       0.0727    6.4610    7.1658   H         1 RES1   0.0000
   116 H72      -0.5050    6.2071    4.1814   H         1 RES1   0.0000
   117 H73      -1.1169    7.4284    5.2864   H         1 RES1   0.0000
   118 H74       1.8132    7.0948    4.4764   H         1 RES1   0.0000
   119 H75       0.7176    8.3825    3.9896   H         1 RES1   0.0000
   120 H76       1.2195    8.2444    5.6719   H         1 RES1   0.0000
   121 C39       4.2503   -3.9023   -3.9644   C.3       1 RES1   0.0000
   122 C40       5.3230   -4.5725   -3.1137   C.3       1 RES1   0.0000
   123 C41       5.6751   -3.7892   -1.8493   C.3       1 RES1   0.0000
   124 C42       4.5419   -3.7908   -0.8249   C.3       1 RES1   0.0000
   125 C43       4.9817   -3.2780    0.5481   C.3       1 RES1   0.0000
   126 C44       4.9587   -1.7530    0.6746   C.3       1 RES1   0.0000
   127 C45       5.1919   -1.2900    2.1199   C.3       1 RES1   0.0000
   128 C46       3.8975   -1.0166    2.9005   C.3       1 RES1   0.0000
   129 N3        2.9575   -2.1286    2.7551   N.am      1 RES1   0.0000
   130 C47       3.3209   -3.2992    3.5480   C.3       1 RES1   0.0000
   131 C48       2.6486   -3.3650    4.9313   C.3       1 RES1   0.0000
   132 C49       2.7849   -2.1283    5.8276   C.3       1 RES1   0.0000
   133 C50       2.1185   -2.4157    7.1827   C.3       1 RES1   0.0000
   134 C51       1.8085   -1.1655    8.0285   C.3       1 RES1   0.0000
   135 C52       0.3315   -1.0108    8.4191   C.3       1 RES1   0.0000
   136 C53      -0.1636   -1.9749    9.5146   C.3       1 RES1   0.0000
   137 C54      -0.8890   -3.2172    8.9973   C.3       1 RES1   0.0000
   138 C55       1.9938   -1.9570    1.8528   C.2       1 RES1   0.0000
   139 O4        1.6907   -0.8111    1.4465   O.2       1 RES1   0.0000
   140 C56       1.3156   -3.1252    1.0955   C.3       1 RES1   0.0000
   141 C57       0.5723   -4.1885    1.8981   C.3       1 RES1   0.0000
   142 O5        0.3925   -2.4700    0.2074   O.3       1 RES1   0.0000
   143 C58       0.0699   -3.1406   -1.0209   C.3       1 RES1   0.0000
   144 C59      -1.4239   -3.4561   -0.9453   C.3       1 RES1   0.0000
   145 C60       0.5096   -2.1487   -2.1386   C.2       1 RES1   0.0000
   146 O6        1.1585   -1.1552   -1.7362   O.2       1 RES1   0.0000
   147 N4        0.2385   -2.3331   -3.4205   N.am      1 RES1   0.0000
   148 C61       0.6075   -1.2863   -4.3817   C.3       1 RES1   0.0000
   149 C62       2.1053   -1.1221   -4.6385   C.3       1 RES1   0.0000
   150 C63       2.3744    0.1374   -5.4714   C.3       1 RES1   0.0000
   151 C64       2.1003    1.4206   -4.6898   C.3       1 RES1   0.0000
   152 C65       2.3835    2.6830   -5.4978   C.3       1 RES1   0.0000
   153 C66       2.2009    3.9537   -4.6646   C.3       1 RES1   0.0000
   154 C67       0.8356    4.0967   -3.9864   C.3       1 RES1   0.0000
   155 C68      -0.3358    4.1075   -4.9606   C.3       1 RES1   0.0000
   156 C69      -0.4361   -3.4857   -3.9975   C.3       1 RES1   0.0000
   157 C70      -1.9422   -3.2748   -4.2478   C.3       1 RES1   0.0000
   158 C71      -2.2795   -2.3562   -5.4254   C.3       1 RES1   0.0000
   159 C72      -3.7626   -2.4452   -5.7881   C.3       1 RES1   0.0000
   160 C73      -4.1512   -1.5236   -6.9446   C.3       1 RES1   0.0000
   161 C74      -4.0204   -0.0166   -6.7043   C.3       1 RES1   0.0000
   162 C75      -5.0051    0.5836   -5.6931   C.3       1 RES1   0.0000
   163 C76      -4.4861    0.6200   -4.2589   C.3       1 RES1   0.0000
   164 H77       4.1107   -4.4626   -4.8861   H         1 RES1   0.0000
   165 H78       3.2948   -3.8619   -3.4417   H         1 RES1   0.0000
   166 H79       4.5503   -2.8877   -4.2179   H         1 RES1   0.0000
   167 H80       4.9888   -5.5740   -2.8318   H         1 RES1   0.0000
   168 H81       6.2244   -4.6882   -3.7172   H         1 RES1   0.0000
   169 H82       6.5521   -4.2552   -1.3961   H         1 RES1   0.0000
   170 H83       5.9413   -2.7645   -2.1114   H         1 RES1   0.0000
   171 H84       3.7103   -3.1824   -1.1933   H         1 RES1   0.0000
   172 H85       4.1924   -4.8226   -0.7207   H         1 RES1   0.0000
   173 H86       4.3458   -3.7227    1.3113   H         1 RES1   0.0000
   174 H87       5.9977   -3.6230    0.7373   H         1 RES1   0.0000
   175 H88       5.7437   -1.3470    0.0354   H         1 RES1   0.0000
   176 H89       4.0040   -1.3540    0.3157   H         1 RES1   0.0000
   177 H90       5.7765   -2.0431    2.6465   H         1 RES1   0.0000
   178 H91       5.7773   -0.3712    2.1442   H         1 RES1   0.0000
   179 H92       4.1249   -0.8895    3.9561   H         1 RES1   0.0000
   180 H93       3.4138   -0.1148    2.5270   H         1 RES1   0.0000
   181 H94       3.1028   -4.2209    3.0071   H         1 RES1   0.0000
   182 H95       4.3992   -3.2447    3.6998   H         1 RES1   0.0000
   183 H96       1.5840   -3.5624    4.8108   H         1 RES1   0.0000
   184 H97       3.0878   -4.2173    5.4594   H         1 RES1   0.0000
   185 H98       3.8366   -1.8913    5.9997   H         1 RES1   0.0000
   186 H99       2.3164   -1.2676    5.3416   H         1 RES1   0.0000
   187 H100      1.1865   -2.9465    7.0004   H         1 RES1   0.0000
   188 H101      2.7750   -3.0883    7.7341   H         1 RES1   0.0000
   189 H102      2.3987   -1.1891    8.9452   H         1 RES1   0.0000
   190 H103      2.1208   -0.2759    7.4730   H         1 RES1   0.0000
   191 H104      0.1880    0.0098    8.7834   H         1 RES1   0.0000
   192 H105     -0.2971   -1.1259    7.5363   H         1 RES1   0.0000
   193 H106      0.6726   -2.2856   10.1448   H         1 RES1   0.0000
   194 H107     -0.8624   -1.4312   10.1534   H         1 RES1   0.0000
   195 H108     -0.2104   -3.8914    8.4793   H         1 RES1   0.0000
   196 H109     -1.3297   -3.7627    9.8297   H         1 RES1   0.0000
   197 H110     -1.6976   -2.9440    8.3198   H         1 RES1   0.0000
   198 H111      2.1212   -3.5810    0.4953   H         1 RES1   0.0000
   199 H112     -0.3004   -3.7491    2.3756   H         1 RES1   0.0000
   200 H113      0.2501   -4.9873    1.2322   H         1 RES1   0.0000
   201 H114      1.2004   -4.6320    2.6611   H         1 RES1   0.0000
   202 H115      0.6625   -4.0599   -1.1155   H         1 RES1   0.0000
   203 H116     -1.7363   -4.1544   -1.7120   H         1 RES1   0.0000
   204 H117     -1.6377   -3.9136    0.0206   H         1 RES1   0.0000
   205 H118     -2.0041   -2.5340   -1.0222   H         1 RES1   0.0000
   206 H119      0.1242   -1.5274   -5.3245   H         1 RES1   0.0000
   207 H120      0.2090   -0.3386   -4.0263   H         1 RES1   0.0000
   208 H121      2.6282   -1.0453   -3.6856   H         1 RES1   0.0000
   209 H122      2.4697   -2.0017   -5.1704   H         1 RES1   0.0000
   210 H123      3.4157    0.1195   -5.7968   H         1 RES1   0.0000
   211 H124      1.7552    0.1244   -6.3705   H         1 RES1   0.0000
   212 H125      1.0511    1.4479   -4.4027   H         1 RES1   0.0000
   213 H126      2.7046    1.4259   -3.7783   H         1 RES1   0.0000
   214 H127      3.4104    2.6539   -5.8677   H         1 RES1   0.0000
   215 H128      1.7232    2.7152   -6.3654   H         1 RES1   0.0000
   216 H129      2.9702    3.9776   -3.8881   H         1 RES1   0.0000
   217 H130      2.3655    4.8175   -5.3103   H         1 RES1   0.0000
   218 H131      0.7019    3.2837   -3.2715   H         1 RES1   0.0000
   219 H132      0.8312    5.0346   -3.4254   H         1 RES1   0.0000
   220 H133     -0.4410    3.1464   -5.4546   H         1 RES1   0.0000
   221 H134     -1.2646    4.3092   -4.4308   H         1 RES1   0.0000
   222 H135     -0.1981    4.8776   -5.7149   H         1 RES1   0.0000
   223 H136      0.0554   -3.6932   -4.9508   H         1 RES1   0.0000
   224 H137     -0.2776   -4.3553   -3.3585   H         1 RES1   0.0000
   225 H138     -2.3787   -4.2597   -4.4384   H         1 RES1   0.0000
   226 H139     -2.4172   -2.8685   -3.3538   H         1 RES1   0.0000
   227 H140     -2.0384   -1.3262   -5.1636   H         1 RES1   0.0000
   228 H141     -1.6906   -2.6470   -6.2984   H         1 RES1   0.0000
   229 H142     -3.9858   -3.4734   -6.0839   H         1 RES1   0.0000
   230 H143     -4.3712   -2.2212   -4.9121   H         1 RES1   0.0000
   231 H144     -3.5334   -1.7849   -7.8068   H         1 RES1   0.0000
   232 H145     -5.1869   -1.7376   -7.2117   H         1 RES1   0.0000
   233 H146     -3.0022    0.2366   -6.4069   H         1 RES1   0.0000
   234 H147     -4.1953    0.4627   -7.6694   H         1 RES1   0.0000
   235 H148     -5.2188    1.6130   -5.9900   H         1 RES1   0.0000
   236 H149     -5.9491    0.0375   -5.7344   H         1 RES1   0.0000
   237 H150     -3.5189    1.1174   -4.2276   H         1 RES1   0.0000
   238 H151     -5.1840    1.1748   -3.6341   H         1 RES1   0.0000
   239 H152     -4.3762   -0.3791   -3.8455   H         1 RES1   0.0000
   240 N5       -0.5847    0.9372   -2.1660   N.3       1 RES1   0.0000
   241 O7       -0.9546    1.4436   -3.1788   O.2       1 RES1   0.0000
   242 O8       -1.1957   -0.0367   -1.6899   O.co2     1 RES1   0.0000
   243 O9        0.4244    1.3352   -1.5759   O.co2     1 RES1   0.0000
@<TRIPOS>BOND
     1     1    20    1
     2     1    23    1
     3     1    27    1
     4     1   139    1
     5     1   142    1
     6     1   146    1
     7     1   242    1
     8     1   243    1
     9     2     3    1
    10     2    45    1
    11     2    46    1
    12     2    47    1
    13     3     4    1
    14     3    48    1
    15     3    49    1
    16     4     5    1
    17     4    50    1
    18     4    51    1
    19     5     6    1
    20     5    52    1
    21     5    53    1
    22     6     7    1
    23     6    54    1
    24     6    55    1
    25     7     8    1
    26     7    56    1
    27     7    57    1
    28     8     9    1
    29     8    58    1
    30     8    59    1
    31     9    10    1
    32     9    60    1
    33     9    61    1
    34    10    11    1
    35    10    19    1
    36    11    12    1
    37    11    62    1
    38    11    63    1
    39    12    13    1
    40    12    64    1
    41    12    65    1
    42    13    14    1
    43    13    66    1
    44    13    67    1
    45    14    15    1
    46    14    68    1
    47    14    69    1
    48    15    16    1
    49    15    70    1
    50    15    71    1
    51    16    17    1
    52    16    72    1
    53    16    73    1
    54    17    18    1
    55    17    74    1
    56    17    75    1
    57    18    76    1
    58    18    77    1
    59    18    78    1
    60    19    20    2
    61    19    21    1
    62    21    22    1
    63    21    23    1
    64    21    79    1
    65    22    80    1
    66    22    81    1
    67    22    82    1
    68    23    24    1
    69    24    25    1
    70    24    26    1
    71    24    83    1
    72    25    84    1
    73    25    85    1
    74    25    86    1
    75    26    27    2
    76    26    28    1
    77    28    29    1
    78    28    37    1
    79    29    30    1
    80    29    87    1
    81    29    88    1
    82    30    31    1
    83    30    89    1
    84    30    90    1
    85    31    32    1
    86    31    91    1
    87    31    92    1
    88    32    33    1
    89    32    93    1
    90    32    94    1
    91    33    34    1
    92    33    95    1
    93    33    96    1
    94    34    35    1
    95    34    97    1
    96    34    98    1
    97    35    36    1
    98    35    99    1
    99    35   100    1
   100    36   101    1
   101    36   102    1
   102    36   103    1
   103    37    38    1
   104    37   104    1
   105    37   105    1
   106    38    39    1
   107    38   106    1
   108    38   107    1
   109    39    40    1
   110    39   108    1
   111    39   109    1
   112    40    41    1
   113    40   110    1
   114    40   111    1
   115    41    42    1
   116    41   112    1
   117    41   113    1
   118    42    43    1
   119    42   114    1
   120    42   115    1
   121    43    44    1
   122    43   116    1
   123    43   117    1
   124    44   118    1
   125    44   119    1
   126    44   120    1
   127   121   122    1
   128   121   164    1
   129   121   165    1
   130   121   166    1
   131   122   123    1
   132   122   167    1
   133   122   168    1
   134   123   124    1
   135   123   169    1
   136   123   170    1
   137   124   125    1
   138   124   171    1
   139   124   172    1
   140   125   126    1
   141   125   173    1
   142   125   174    1
   143   126   127    1
   144   126   175    1
   145   126   176    1
   146   127   128    1
   147   127   177    1
   148   127   178    1
   149   128   129    1
   150   128   179    1
   151   128   180    1
   152   129   130    1
   153   129   138    1
   154   130   131    1
   155   130   181    1
   156   130   182    1
   157   131   132    1
   158   131   183    1
   159   131   184    1
   160   132   133    1
   161   132   185    1
   162   132   186    1
   163   133   134    1
   164   133   187    1
   165   133   188    1
   166   134   135    1
   167   134   189    1
   168   134   190    1
   169   135   136    1
   170   135   191    1
   171   135   192    1
   172   136   137    1
   173   136   193    1
   174   136   194    1
   175   137   195    1
   176   137   196    1
   177   137   197    1
   178   138   139    2
   179   138   140    1
   180   140   141    1
   181   140   142    1
   182   140   198    1
   183   141   199    1
   184   141   200    1
   185   141   201    1
   186   142   143    1
   187   143   144    1
   188   143   145    1
   189   143   202    1
   190   144   203    1
   191   144   204    1
   192   144   205    1
   193   145   146    2
   194   145   147    1
   195   147   148    1
   196   147   156    1
   197   148   149    1
   198   148   206    1
   199   148   207    1
   200   149   150    1
   201   149   208    1
   202   149   209    1
   203   150   151    1
   204   150   210    1
   205   150   211    1
   206   151   152    1
   207   151   212    1
   208   151   213    1
   209   152   153    1
   210   152   214    1
   211   152   215    1
   212   153   154    1
   213   153   216    1
   214   153   217    1
   215   154   155    1
   216   154   218    1
   217   154   219    1
   218   155   220    1
   219   155   221    1
   220   155   222    1
   221   156   157    1
   222   156   223    1
   223   156   224    1
   224   157   158    1
   225   157   225    1
   226   157   226    1
   227   158   159    1
   228   158   227    1
   229   158   228    1
   230   159   160    1
   231   159   229    1
   232   159   230    1
   233   160   161    1
   234   160   231    1
   235   160   232    1
   236   161   162    1
   237   161   233    1
   238   161   234    1
   239   162   163    1
   240   162   235    1
   241   162   236    1
   242   163   237    1
   243   163   238    1
   244   163   239    1
   245   240   241    2
   246   240   242    1
   247   240   243    1
@<TRIPOS>SUBSTRUCTURE
     1 RES1      243 GROUP             0 ****  ****    0  
