@<TRIPOS>MOLECULE
ICIGOT_geomtry_0_nunpairedes_0_charge_3 Charge: 3 Unpaired_Electrons: 3 XTB_Unpaired_Electrons: 0 XTB_Charge: 3
    61    66     1     0     0
SMALL
NoCharges
****
Generated from Architector

@<TRIPOS>ATOM
     1 Er1      -0.0871   -0.2125   -0.0139   Er        1 RES1   0.0000
     2 C1        2.4123   -0.6297    2.2357   C.3       1 RES1   0.0000
     3 O1        1.0153   -0.3641    1.9883   O.3       1 RES1   0.0000
     4 C2        0.2111   -0.5058    3.1809   C.3       1 RES1   0.0000
     5 C3       -0.7386    0.6851    3.4587   C.3       1 RES1   0.0000
     6 N1       -1.3189    1.4261    2.3272   N.am      1 RES1   0.0000
     7 C4       -0.9763    2.8380    2.2542   C.3       1 RES1   0.0000
     8 C5        0.5240    2.9773    1.9572   C.3       1 RES1   0.0000
     9 O2        0.9054    2.0762    0.8950   O.3       1 RES1   0.0000
    10 C6        2.2777    2.3129    0.5395   C.3       1 RES1   0.0000
    11 C7       -2.0032    0.7614    1.3994   C.2       1 RES1   0.0000
    12 O3       -1.8670   -0.4714    1.2935   O.2       1 RES1   0.0000
    13 C8       -2.8077    1.4224    0.2705   C.3       1 RES1   0.0000
    14 O4       -1.8502    1.3899   -0.8088   O.3       1 RES1   0.0000
    15 C9       -2.2222    0.8935   -2.1135   C.3       1 RES1   0.0000
    16 C10      -1.2100   -0.2362   -2.3512   C.2       1 RES1   0.0000
    17 O5       -1.2612   -1.1386   -1.4851   O.2       1 RES1   0.0000
    18 N2       -0.2802   -0.2825   -3.3015   N.am      1 RES1   0.0000
    19 C11       0.4815   -1.5282   -3.4241   C.3       1 RES1   0.0000
    20 C12       1.7906   -1.6127   -2.6279   C.3       1 RES1   0.0000
    21 O6        1.5772   -1.5489   -1.1977   O.3       1 RES1   0.0000
    22 C13       2.2286   -2.6577   -0.5291   C.3       1 RES1   0.0000
    23 C14       0.2058    0.8796   -4.0227   C.3       1 RES1   0.0000
    24 C15       1.1438    1.6857   -3.1031   C.3       1 RES1   0.0000
    25 O7        0.5296    1.9355   -1.8337   O.3       1 RES1   0.0000
    26 C16       0.0589    3.2978   -1.7609   C.3       1 RES1   0.0000
    27 H1        2.5652   -1.6451    2.6099   H         1 RES1   0.0000
    28 H2        2.8071    0.0684    2.9769   H         1 RES1   0.0000
    29 H3        2.9447   -0.4876    1.2939   H         1 RES1   0.0000
    30 H4        0.8780   -0.5755    4.0424   H         1 RES1   0.0000
    31 H5       -0.3425   -1.4500    3.1103   H         1 RES1   0.0000
    32 H6       -0.2217    1.4211    4.0688   H         1 RES1   0.0000
    33 H7       -1.5667    0.2739    4.0460   H         1 RES1   0.0000
    34 H8       -1.2027    3.3425    3.1967   H         1 RES1   0.0000
    35 H9       -1.5554    3.3221    1.4705   H         1 RES1   0.0000
    36 H10       1.1359    2.7505    2.8420   H         1 RES1   0.0000
    37 H11       0.7411    4.0114    1.6624   H         1 RES1   0.0000
    38 H12       2.4043    3.3271    0.1499   H         1 RES1   0.0000
    39 H13       2.5473    1.5884   -0.2341   H         1 RES1   0.0000
    40 H14       2.9327    2.1928    1.4072   H         1 RES1   0.0000
    41 H15      -3.1596    2.4444    0.4490   H         1 RES1   0.0000
    42 H16      -3.6714    0.7735    0.0745   H         1 RES1   0.0000
    43 H17      -2.2295    1.7147   -2.8370   H         1 RES1   0.0000
    44 H18      -3.2215    0.4397   -2.0943   H         1 RES1   0.0000
    45 H19       0.7293   -1.6695   -4.4771   H         1 RES1   0.0000
    46 H20      -0.1690   -2.3513   -3.1062   H         1 RES1   0.0000
    47 H21       2.5078   -0.8343   -2.9082   H         1 RES1   0.0000
    48 H22       2.2403   -2.5778   -2.8755   H         1 RES1   0.0000
    49 H23       1.9378   -3.6048   -0.9927   H         1 RES1   0.0000
    50 H24       1.9016   -2.6540    0.5121   H         1 RES1   0.0000
    51 H25       3.3177   -2.5577   -0.5823   H         1 RES1   0.0000
    52 H26      -0.6228    1.5071   -4.3550   H         1 RES1   0.0000
    53 H27       0.7663    0.5563   -4.9004   H         1 RES1   0.0000
    54 H28       1.3909    2.6259   -3.6014   H         1 RES1   0.0000
    55 H29       2.0724    1.1425   -2.9083   H         1 RES1   0.0000
    56 H30      -0.5718    3.5344   -2.6206   H         1 RES1   0.0000
    57 H31       0.9008    3.9955   -1.7450   H         1 RES1   0.0000
    58 H32      -0.5188    3.4009   -0.8463   H         1 RES1   0.0000
    59 O8       -0.4847   -2.6222    0.6586   O.3       1 RES1   0.0000
    60 H33      -1.3126   -2.7670    1.1478   H         1 RES1   0.0000
    61 H34      -0.4894   -3.3319    0.0027   H         1 RES1   0.0000
@<TRIPOS>BOND
     1     1     3    1
     2     1     9    1
     3     1    12    1
     4     1    14    1
     5     1    17    1
     6     1    21    1
     7     1    25    1
     8     1    59    1
     9     2     3    1
    10     2    27    1
    11     2    28    1
    12     2    29    1
    13     3     4    1
    14     4     5    1
    15     4    30    1
    16     4    31    1
    17     5     6    1
    18     5    32    1
    19     5    33    1
    20     6     7    1
    21     6    11    1
    22     7     8    1
    23     7    34    1
    24     7    35    1
    25     8     9    1
    26     8    36    1
    27     8    37    1
    28     9    10    1
    29    10    38    1
    30    10    39    1
    31    10    40    1
    32    11    12    2
    33    11    13    1
    34    13    14    1
    35    13    41    1
    36    13    42    1
    37    14    15    1
    38    15    16    1
    39    15    43    1
    40    15    44    1
    41    16    17    2
    42    16    18    1
    43    18    19    1
    44    18    23    1
    45    19    20    1
    46    19    45    1
    47    19    46    1
    48    20    21    1
    49    20    47    1
    50    20    48    1
    51    21    22    1
    52    22    49    1
    53    22    50    1
    54    22    51    1
    55    23    24    1
    56    23    52    1
    57    23    53    1
    58    24    25    1
    59    24    54    1
    60    24    55    1
    61    25    26    1
    62    26    56    1
    63    26    57    1
    64    26    58    1
    65    59    60    1
    66    59    61    1
@<TRIPOS>SUBSTRUCTURE
     1 RES1       61 GROUP             0 ****  ****    0  
