@<TRIPOS>MOLECULE
YEMSEP_geometry_0_nunpairedes_0_charge_2 Charge: 2 Unpaired_Electrons: 3 XTB_Unpaired_Electrons: 0 XTB_Charge: 2
   297   301     1     0     0
SMALL
NoCharges
****
Generated from Architector

@<TRIPOS>ATOM
     1 Er1       0.3945    0.1918    0.2023   Er        1 RES1   0.0000
     2 C1        2.5669    4.2914    5.2850   C.3       1 RES1   0.0000
     3 C2        2.9823    3.5469    4.0243   C.3       1 RES1   0.0000
     4 C3        4.4050    3.0094    4.1170   C.3       1 RES1   0.0000
     5 C4        4.8168    2.2493    2.8596   C.3       1 RES1   0.0000
     6 C5        6.2242    1.6770    3.0063   C.3       1 RES1   0.0000
     7 C6        6.7785    1.0157    1.7452   C.3       1 RES1   0.0000
     8 C7        6.0712   -0.2772    1.3380   C.3       1 RES1   0.0000
     9 C8        6.8695   -0.9762    0.2411   C.3       1 RES1   0.0000
    10 C9        6.3240   -2.3427   -0.1684   C.3       1 RES1   0.0000
    11 C10       5.1459   -2.3285   -1.1570   C.3       1 RES1   0.0000
    12 N1        3.8345   -2.2562   -0.5401   N.am      1 RES1   0.0000
    13 C11       3.4805   -3.2794    0.4631   C.3       1 RES1   0.0000
    14 C12       4.0527   -4.6968    0.2916   C.3       1 RES1   0.0000
    15 C13       2.9725   -5.7966    0.2352   C.3       1 RES1   0.0000
    16 C14       2.5918   -6.1808   -1.2005   C.3       1 RES1   0.0000
    17 C15       3.6021   -7.1381   -1.8388   C.3       1 RES1   0.0000
    18 C16       3.4007   -7.3520   -3.3416   C.3       1 RES1   0.0000
    19 C17       2.1019   -8.0665   -3.7231   C.3       1 RES1   0.0000
    20 C18       2.0379   -8.4200   -5.2155   C.3       1 RES1   0.0000
    21 C19       1.8547   -7.2093   -6.1309   C.3       1 RES1   0.0000
    22 C20       1.8857   -7.5851   -7.6073   C.3       1 RES1   0.0000
    23 C21       2.9178   -1.3137   -0.7304   C.2       1 RES1   0.0000
    24 O1        1.8765   -1.3213   -0.0322   O.2       1 RES1   0.0000
    25 C22       3.0308   -0.2070   -1.8186   C.3       1 RES1   0.0000
    26 C23       4.0964    0.8366   -1.4795   C.3       1 RES1   0.0000
    27 O2        1.7445    0.4407   -1.8670   O.3       1 RES1   0.0000
    28 C24       1.0935    0.7262   -3.1177   C.3       1 RES1   0.0000
    29 C25       0.7229    2.2290   -3.0909   C.3       1 RES1   0.0000
    30 C26       1.9513    3.1244   -3.0235   C.3       1 RES1   0.0000
    31 C27      -0.2013   -0.1400   -3.1204   C.2       1 RES1   0.0000
    32 O3       -0.4308   -0.7569   -2.0618   O.2       1 RES1   0.0000
    33 N2       -1.0661   -0.1098   -4.1388   N.am      1 RES1   0.0000
    34 C28      -0.7596    0.4329   -5.4578   C.3       1 RES1   0.0000
    35 C29      -0.2260   -0.5846   -6.4757   C.3       1 RES1   0.0000
    36 C30       0.3478    0.1455   -7.6971   C.3       1 RES1   0.0000
    37 C31       1.6344    0.9328   -7.4350   C.3       1 RES1   0.0000
    38 C32       2.8084    0.0314   -7.0575   C.3       1 RES1   0.0000
    39 C33       4.1585    0.7382   -7.1322   C.3       1 RES1   0.0000
    40 C34       4.3905    1.7867   -6.0469   C.3       1 RES1   0.0000
    41 C35       5.8454    2.2557   -6.0846   C.3       1 RES1   0.0000
    42 C36       6.1475    3.5191   -5.2796   C.3       1 RES1   0.0000
    43 C37       5.9707    3.3460   -3.7772   C.3       1 RES1   0.0000
    44 C38      -2.3664   -0.7938   -4.0306   C.3       1 RES1   0.0000
    45 C39      -3.5771    0.1436   -4.2684   C.3       1 RES1   0.0000
    46 C40      -4.7685    0.2560   -3.2576   C.3       1 RES1   0.0000
    47 C41      -5.0007   -0.7437   -2.1065   C.3       1 RES1   0.0000
    48 C42      -6.1721   -0.2492   -1.2180   C.3       1 RES1   0.0000
    49 C43      -6.0263    0.8004   -0.0622   C.3       1 RES1   0.0000
    50 C44      -5.6346    0.7342    1.4951   C.3       1 RES1   0.0000
    51 C45      -5.0485   -0.3814    2.3897   C.3       1 RES1   0.0000
    52 C46      -5.1977   -0.0993    3.8965   C.3       1 RES1   0.0000
    53 C47      -4.9705   -1.4000    4.6639   C.3       1 RES1   0.0000
    54 H1        1.5636    4.6967    5.1827   H         1 RES1   0.0000
    55 H2        3.2532    5.1092    5.4843   H         1 RES1   0.0000
    56 H3        2.5906    3.6192    6.1379   H         1 RES1   0.0000
    57 H4        2.9010    4.2124    3.1640   H         1 RES1   0.0000
    58 H5        2.3031    2.7082    3.8477   H         1 RES1   0.0000
    59 H6        4.4893    2.3473    4.9803   H         1 RES1   0.0000
    60 H7        5.0939    3.8390    4.2730   H         1 RES1   0.0000
    61 H8        4.7903    2.9269    2.0052   H         1 RES1   0.0000
    62 H9        4.0996    1.4486    2.6620   H         1 RES1   0.0000
    63 H10       6.2239    0.9518    3.8216   H         1 RES1   0.0000
    64 H11       6.9023    2.4869    3.2895   H         1 RES1   0.0000
    65 H12       7.8326    0.7857    1.9242   H         1 RES1   0.0000
    66 H13       6.7302    1.7280    0.9190   H         1 RES1   0.0000
    67 H14       5.0551   -0.0702    1.0027   H         1 RES1   0.0000
    68 H15       6.0018   -0.9368    2.2046   H         1 RES1   0.0000
    69 H16       7.8829   -1.1215    0.6169   H         1 RES1   0.0000
    70 H17       6.9604   -0.3293   -0.6344   H         1 RES1   0.0000
    71 H18       6.0502   -2.8896    0.7300   H         1 RES1   0.0000
    72 H19       7.1327   -2.8974   -0.6467   H         1 RES1   0.0000
    73 H20       5.1940   -3.2483   -1.7416   H         1 RES1   0.0000
    74 H21       5.2668   -1.5009   -1.8493   H         1 RES1   0.0000
    75 H22       2.3919   -3.3481    0.4376   H         1 RES1   0.0000
    76 H23       3.7500   -2.8870    1.4467   H         1 RES1   0.0000
    77 H24       4.7235   -4.9151    1.1227   H         1 RES1   0.0000
    78 H25       4.6377   -4.7739   -0.6186   H         1 RES1   0.0000
    79 H26       2.0832   -5.4656    0.7772   H         1 RES1   0.0000
    80 H27       3.3397   -6.6886    0.7464   H         1 RES1   0.0000
    81 H28       2.5185   -5.2617   -1.7856   H         1 RES1   0.0000
    82 H29       1.6125   -6.6628   -1.1905   H         1 RES1   0.0000
    83 H30       3.5574   -8.1023   -1.3273   H         1 RES1   0.0000
    84 H31       4.6095   -6.7410   -1.6927   H         1 RES1   0.0000
    85 H32       4.2320   -7.9567   -3.7096   H         1 RES1   0.0000
    86 H33       3.4448   -6.3857   -3.8479   H         1 RES1   0.0000
    87 H34       1.2340   -7.4507   -3.4744   H         1 RES1   0.0000
    88 H35       2.0258   -8.9933   -3.1487   H         1 RES1   0.0000
    89 H36       1.2040   -9.1065   -5.3821   H         1 RES1   0.0000
    90 H37       2.9528   -8.9451   -5.4966   H         1 RES1   0.0000
    91 H38       2.6504   -6.4880   -5.9410   H         1 RES1   0.0000
    92 H39       0.9027   -6.7242   -5.9014   H         1 RES1   0.0000
    93 H40       2.8443   -8.0248   -7.8675   H         1 RES1   0.0000
    94 H41       1.7333   -6.7057   -8.2293   H         1 RES1   0.0000
    95 H42       1.1088   -8.3061   -7.8439   H         1 RES1   0.0000
    96 H43       3.2309   -0.6745   -2.7888   H         1 RES1   0.0000
    97 H44       3.8323    1.3636   -0.5649   H         1 RES1   0.0000
    98 H45       4.1880    1.5444   -2.2959   H         1 RES1   0.0000
    99 H46       5.0639    0.3786   -1.3357   H         1 RES1   0.0000
   100 H47       1.7384    0.4734   -3.9690   H         1 RES1   0.0000
   101 H48       0.1441    2.5061   -3.9681   H         1 RES1   0.0000
   102 H49       0.0997    2.4082   -2.2138   H         1 RES1   0.0000
   103 H50       2.6096    2.9199   -3.8617   H         1 RES1   0.0000
   104 H51       2.4885    2.9843   -2.0921   H         1 RES1   0.0000
   105 H52       1.6547    4.1656   -3.0826   H         1 RES1   0.0000
   106 H53      -0.0199    1.2198   -5.3509   H         1 RES1   0.0000
   107 H54      -1.6753    0.8735   -5.8539   H         1 RES1   0.0000
   108 H55      -1.0235   -1.2479   -6.8171   H         1 RES1   0.0000
   109 H56       0.5475   -1.2044   -6.0211   H         1 RES1   0.0000
   110 H57      -0.4079    0.8252   -8.0952   H         1 RES1   0.0000
   111 H58       0.5582   -0.5931   -8.4718   H         1 RES1   0.0000
   112 H59       1.4805    1.6908   -6.6638   H         1 RES1   0.0000
   113 H60       1.8900    1.4630   -8.3537   H         1 RES1   0.0000
   114 H61       2.8280   -0.8144   -7.7470   H         1 RES1   0.0000
   115 H62       2.6721   -0.3666   -6.0479   H         1 RES1   0.0000
   116 H63       4.2527    1.2213   -8.1038   H         1 RES1   0.0000
   117 H64       4.9503   -0.0093   -7.0625   H         1 RES1   0.0000
   118 H65       4.1680    1.3586   -5.0656   H         1 RES1   0.0000
   119 H66       3.7318    2.6422   -6.2048   H         1 RES1   0.0000
   120 H67       6.1098    2.4508   -7.1238   H         1 RES1   0.0000
   121 H68       6.4890    1.4442   -5.7386   H         1 RES1   0.0000
   122 H69       5.5069    4.3317   -5.6265   H         1 RES1   0.0000
   123 H70       7.1818    3.8064   -5.4799   H         1 RES1   0.0000
   124 H71       4.9212    3.2425   -3.5162   H         1 RES1   0.0000
   125 H72       6.3566    4.2145   -3.2538   H         1 RES1   0.0000
   126 H73       6.5119    2.4715   -3.4250   H         1 RES1   0.0000
   127 H74      -2.3973   -1.2745   -3.0545   H         1 RES1   0.0000
   128 H75      -2.3908   -1.5771   -4.7911   H         1 RES1   0.0000
   129 H76      -4.0027   -0.1274   -5.2348   H         1 RES1   0.0000
   130 H77      -3.1997    1.1589   -4.3927   H         1 RES1   0.0000
   131 H78      -5.6661    0.1977   -3.8716   H         1 RES1   0.0000
   132 H79      -4.7547    1.2692   -2.8505   H         1 RES1   0.0000
   133 H80      -4.1099   -0.9181   -1.5140   H         1 RES1   0.0000
   134 H81      -5.2807   -1.7081   -2.5460   H         1 RES1   0.0000
   135 H82      -6.7298   -1.1204   -0.8957   H         1 RES1   0.0000
   136 H83      -6.8460    0.2592   -1.9115   H         1 RES1   0.0000
   137 H84      -5.4375    1.6165   -0.4753   H         1 RES1   0.0000
   138 H85      -7.0441    1.1948   -0.0191   H         1 RES1   0.0000
   139 H86      -6.5727    0.9330    2.0045   H         1 RES1   0.0000
   140 H87      -5.0238    1.6274    1.6573   H         1 RES1   0.0000
   141 H88      -3.9914   -0.6076    2.2281   H         1 RES1   0.0000
   142 H89      -5.6130   -1.2821    2.2405   H         1 RES1   0.0000
   143 H90      -6.1950    0.2763    4.1213   H         1 RES1   0.0000
   144 H91      -4.4994    0.6571    4.2581   H         1 RES1   0.0000
   145 H92      -5.7704   -2.1059    4.4490   H         1 RES1   0.0000
   146 H93      -4.9721   -1.2244    5.7353   H         1 RES1   0.0000
   147 H94      -4.0165   -1.8502    4.3832   H         1 RES1   0.0000
   148 C48       2.0244    7.4339   -0.7083   C.3       1 RES1   0.0000
   149 C49       0.8545    6.6406   -0.1423   C.3       1 RES1   0.0000
   150 C50       0.2186    7.3533    1.0472   C.3       1 RES1   0.0000
   151 C51      -0.8191    6.4893    1.7565   C.3       1 RES1   0.0000
   152 C52      -1.4882    7.2422    2.9076   C.3       1 RES1   0.0000
   153 C53      -2.4266    6.3594    3.7373   C.3       1 RES1   0.0000
   154 C54      -1.6745    5.3124    4.5645   C.3       1 RES1   0.0000
   155 C55      -2.6035    4.4289    5.3991   C.3       1 RES1   0.0000
   156 C56      -1.8874    3.1995    5.9777   C.3       1 RES1   0.0000
   157 C57      -2.0843    1.8899    5.1916   C.3       1 RES1   0.0000
   158 N3       -0.9275    1.4338    4.4380   N.am      1 RES1   0.0000
   159 C58       0.1673    0.8873    5.2370   C.3       1 RES1   0.0000
   160 C59      -0.0871   -0.5854    5.5939   C.3       1 RES1   0.0000
   161 C60       0.4182   -1.5881    4.5444   C.3       1 RES1   0.0000
   162 C61      -0.4046   -2.8784    4.5154   C.3       1 RES1   0.0000
   163 C62      -0.3071   -3.7102    5.7962   C.3       1 RES1   0.0000
   164 C63      -1.3791   -4.7995    5.8717   C.3       1 RES1   0.0000
   165 C64      -1.3198   -5.7934    4.7128   C.3       1 RES1   0.0000
   166 C65      -2.4319   -6.8397    4.7660   C.3       1 RES1   0.0000
   167 C66      -3.8076   -6.2607    4.4512   C.3       1 RES1   0.0000
   168 C67      -4.8924   -7.3228    4.5157   C.3       1 RES1   0.0000
   169 C68      -0.8897    1.2799    3.1279   C.2       1 RES1   0.0000
   170 O4        0.0882    0.7827    2.5260   O.2       1 RES1   0.0000
   171 C69      -2.1326    1.5851    2.2771   C.3       1 RES1   0.0000
   172 C70      -2.4283    3.0696    2.0619   C.3       1 RES1   0.0000
   173 O5       -1.7999    0.9834    1.0288   O.3       1 RES1   0.0000
   174 C71      -2.7476    0.2670    0.2338   C.3       1 RES1   0.0000
   175 C72      -2.4759    0.9147   -1.1385   C.3       1 RES1   0.0000
   176 C73      -2.8894    2.3813   -1.2076   C.3       1 RES1   0.0000
   177 C74      -2.2984   -1.2379    0.4181   C.2       1 RES1   0.0000
   178 O6       -1.0571   -1.3232    0.5938   O.2       1 RES1   0.0000
   179 N4       -3.0420   -2.3504    0.5253   N.am      1 RES1   0.0000
   180 C75      -4.4916   -2.5501    0.4114   C.3       1 RES1   0.0000
   181 C76      -5.1288   -3.3823    1.5450   C.3       1 RES1   0.0000
   182 C77      -6.6744   -3.4945    1.4667   C.3       1 RES1   0.0000
   183 C78      -7.5933   -2.2496    1.3190   C.3       1 RES1   0.0000
   184 C79      -8.3144   -1.7910    2.6045   C.3       1 RES1   0.0000
   185 C80      -9.5186   -0.8313    2.4353   C.3       1 RES1   0.0000
   186 C81      -9.2174    0.6589    2.1670   C.3       1 RES1   0.0000
   187 C82      -9.0286    1.4759    3.4546   C.3       1 RES1   0.0000
   188 C83      -8.6247    2.9502    3.2786   C.3       1 RES1   0.0000
   189 C84      -7.1629    3.2456    2.9507   C.3       1 RES1   0.0000
   190 C85      -2.3056   -3.6053    0.7441   C.3       1 RES1   0.0000
   191 C86      -2.5616   -4.6651   -0.3258   C.3       1 RES1   0.0000
   192 C87      -2.1650   -4.1742   -1.7173   C.3       1 RES1   0.0000
   193 C88      -0.6602   -4.1783   -1.9990   C.3       1 RES1   0.0000
   194 C89      -0.4441   -4.0066   -3.5050   C.3       1 RES1   0.0000
   195 C90       0.9949   -4.2212   -3.9699   C.3       1 RES1   0.0000
   196 C91       1.9136   -3.0356   -3.6807   C.3       1 RES1   0.0000
   197 C92       3.3929   -3.3131   -3.9615   C.3       1 RES1   0.0000
   198 C93       3.7501   -3.5300   -5.4311   C.3       1 RES1   0.0000
   199 C94       5.2573   -3.7190   -5.5798   C.3       1 RES1   0.0000
   200 H95       2.4172    6.9649   -1.6080   H         1 RES1   0.0000
   201 H96       1.7091    8.4438   -0.9565   H         1 RES1   0.0000
   202 H97       2.8243    7.4989    0.0250   H         1 RES1   0.0000
   203 H98       0.0998    6.4939   -0.9181   H         1 RES1   0.0000
   204 H99       1.2004    5.6542    0.1739   H         1 RES1   0.0000
   205 H100      0.9967    7.6281    1.7602   H         1 RES1   0.0000
   206 H101     -0.2483    8.2775    0.7068   H         1 RES1   0.0000
   207 H102     -1.5860    6.1755    1.0416   H         1 RES1   0.0000
   208 H103     -0.3196    5.5958    2.1351   H         1 RES1   0.0000
   209 H104     -0.7213    7.6662    3.5599   H         1 RES1   0.0000
   210 H105     -2.0633    8.0749    2.4931   H         1 RES1   0.0000
   211 H106     -3.0069    6.9940    4.4114   H         1 RES1   0.0000
   212 H107     -3.1359    5.8751    3.0590   H         1 RES1   0.0000
   213 H108     -1.0604    4.6911    3.9122   H         1 RES1   0.0000
   214 H109     -0.9911    5.8275    5.2396   H         1 RES1   0.0000
   215 H110     -3.0066    5.0258    6.2159   H         1 RES1   0.0000
   216 H111     -3.4695    4.1204    4.8110   H         1 RES1   0.0000
   217 H112     -0.8256    3.4215    6.0507   H         1 RES1   0.0000
   218 H113     -2.2554    3.0342    6.9876   H         1 RES1   0.0000
   219 H114     -2.3339    1.0925    5.8962   H         1 RES1   0.0000
   220 H115     -2.9351    2.0123    4.5289   H         1 RES1   0.0000
   221 H116      1.0874    0.9956    4.6604   H         1 RES1   0.0000
   222 H117      0.2416    1.4898    6.1414   H         1 RES1   0.0000
   223 H118      0.4007   -0.7917    6.5457   H         1 RES1   0.0000
   224 H119     -1.1606   -0.7413    5.7357   H         1 RES1   0.0000
   225 H120      0.3740   -1.1494    3.5431   H         1 RES1   0.0000
   226 H121      1.4640   -1.8263    4.7458   H         1 RES1   0.0000
   227 H122     -1.4536   -2.6229    4.3286   H         1 RES1   0.0000
   228 H123     -0.0586   -3.4780    3.6705   H         1 RES1   0.0000
   229 H124      0.6829   -4.1679    5.8530   H         1 RES1   0.0000
   230 H125     -0.4243   -3.0585    6.6644   H         1 RES1   0.0000
   231 H126     -1.2474   -5.3503    6.8037   H         1 RES1   0.0000
   232 H127     -2.3618   -4.3245    5.9100   H         1 RES1   0.0000
   233 H128     -1.3935   -5.2681    3.7584   H         1 RES1   0.0000
   234 H129     -0.3516   -6.2975    4.7367   H         1 RES1   0.0000
   235 H130     -2.2146   -7.6267    4.0412   H         1 RES1   0.0000
   236 H131     -2.4537   -7.3023    5.7518   H         1 RES1   0.0000
   237 H132     -4.0508   -5.4705    5.1600   H         1 RES1   0.0000
   238 H133     -3.7843   -5.8122    3.4555   H         1 RES1   0.0000
   239 H134     -4.9279   -7.7546    5.5099   H         1 RES1   0.0000
   240 H135     -5.8685   -6.9017    4.2934   H         1 RES1   0.0000
   241 H136     -4.6916   -8.1217    3.8096   H         1 RES1   0.0000
   242 H137     -2.9791    1.0681    2.7343   H         1 RES1   0.0000
   243 H138     -1.5684    3.5739    1.6208   H         1 RES1   0.0000
   244 H139     -3.2793    3.1739    1.3908   H         1 RES1   0.0000
   245 H140     -2.6661    3.5681    2.9911   H         1 RES1   0.0000
   246 H141     -3.7751    0.4383    0.5278   H         1 RES1   0.0000
   247 H142     -2.9434    0.3924   -1.9486   H         1 RES1   0.0000
   248 H143     -1.3951    0.8892   -1.2806   H         1 RES1   0.0000
   249 H144     -3.9324    2.5337   -0.9526   H         1 RES1   0.0000
   250 H145     -2.2881    2.9834   -0.5398   H         1 RES1   0.0000
   251 H146     -2.7485    2.7452   -2.2228   H         1 RES1   0.0000
   252 H147     -4.9616   -1.5798    0.3812   H         1 RES1   0.0000
   253 H148     -4.6994   -3.0548   -0.5349   H         1 RES1   0.0000
   254 H149     -4.7589   -4.4075    1.5008   H         1 RES1   0.0000
   255 H150     -4.8214   -2.9996    2.5158   H         1 RES1   0.0000
   256 H151     -6.8918   -4.1740    0.6432   H         1 RES1   0.0000
   257 H152     -6.9736   -4.0184    2.3725   H         1 RES1   0.0000
   258 H153     -7.0418   -1.4113    0.9196   H         1 RES1   0.0000
   259 H154     -8.3517   -2.4955    0.5745   H         1 RES1   0.0000
   260 H155     -8.7081   -2.6835    3.0941   H         1 RES1   0.0000
   261 H156     -7.6012   -1.3360    3.2931   H         1 RES1   0.0000
   262 H157    -10.1811   -1.2151    1.6562   H         1 RES1   0.0000
   263 H158    -10.0779   -0.8811    3.3713   H         1 RES1   0.0000
   264 H159     -8.3587    0.7464    1.5084   H         1 RES1   0.0000
   265 H160    -10.0569    1.1055    1.6299   H         1 RES1   0.0000
   266 H161     -9.9980    1.4787    3.9563   H         1 RES1   0.0000
   267 H162     -8.3289    0.9790    4.1307   H         1 RES1   0.0000
   268 H163     -9.2488    3.3969    2.5043   H         1 RES1   0.0000
   269 H164     -8.8548    3.4634    4.2142   H         1 RES1   0.0000
   270 H165     -6.9323    3.0330    1.9127   H         1 RES1   0.0000
   271 H166     -6.9578    4.3001    3.1138   H         1 RES1   0.0000
   272 H167     -6.4920    2.6803    3.5921   H         1 RES1   0.0000
   273 H168     -1.2456   -3.3638    0.7475   H         1 RES1   0.0000
   274 H169     -2.5626   -3.9841    1.7347   H         1 RES1   0.0000
   275 H170     -1.9750   -5.5456   -0.0588   H         1 RES1   0.0000
   276 H171     -3.6077   -4.9731   -0.3300   H         1 RES1   0.0000
   277 H172     -2.6638   -4.8057   -2.4564   H         1 RES1   0.0000
   278 H173     -2.5352   -3.1548   -1.8545   H         1 RES1   0.0000
   279 H174     -0.1747   -3.3643   -1.4488   H         1 RES1   0.0000
   280 H175     -0.2313   -5.1266   -1.6664   H         1 RES1   0.0000
   281 H176     -1.0801   -4.7317   -4.0230   H         1 RES1   0.0000
   282 H177     -0.7725   -3.0052   -3.7886   H         1 RES1   0.0000
   283 H178      1.3794   -5.1178   -3.4890   H         1 RES1   0.0000
   284 H179      0.9865   -4.4125   -5.0413   H         1 RES1   0.0000
   285 H180      1.5882   -2.1827   -4.2870   H         1 RES1   0.0000
   286 H181      1.7994   -2.7528   -2.6295   H         1 RES1   0.0000
   287 H182      3.9776   -2.4548   -3.6199   H         1 RES1   0.0000
   288 H183      3.7156   -4.1821   -3.3819   H         1 RES1   0.0000
   289 H184      3.2422   -4.4098   -5.8270   H         1 RES1   0.0000
   290 H185      3.4245   -2.6670   -6.0178   H         1 RES1   0.0000
   291 H186      5.5826   -4.6011   -5.0313   H         1 RES1   0.0000
   292 H187      5.5315   -3.8477   -6.6225   H         1 RES1   0.0000
   293 H188      5.8021   -2.8590   -5.1933   H         1 RES1   0.0000
   294 N5        1.1066    2.3076    0.8210   N.3       1 RES1   0.0000
   295 O7        1.0671    3.1965    1.6050   O.2       1 RES1   0.0000
   296 O8        1.9831    1.4418    0.8134   O.co2     1 RES1   0.0000
   297 O9        0.2438    2.2163   -0.0734   O.co2     1 RES1   0.0000
@<TRIPOS>BOND
     1     1    24    1
     2     1    27    1
     3     1    32    1
     4     1   170    1
     5     1   173    1
     6     1   178    1
     7     1   296    1
     8     1   297    1
     9     2     3    1
    10     2    54    1
    11     2    55    1
    12     2    56    1
    13     3     4    1
    14     3    57    1
    15     3    58    1
    16     4     5    1
    17     4    59    1
    18     4    60    1
    19     5     6    1
    20     5    61    1
    21     5    62    1
    22     6     7    1
    23     6    63    1
    24     6    64    1
    25     7     8    1
    26     7    65    1
    27     7    66    1
    28     8     9    1
    29     8    67    1
    30     8    68    1
    31     9    10    1
    32     9    69    1
    33     9    70    1
    34    10    11    1
    35    10    71    1
    36    10    72    1
    37    11    12    1
    38    11    73    1
    39    11    74    1
    40    12    13    1
    41    12    23    1
    42    13    14    1
    43    13    75    1
    44    13    76    1
    45    14    15    1
    46    14    77    1
    47    14    78    1
    48    15    16    1
    49    15    79    1
    50    15    80    1
    51    16    17    1
    52    16    81    1
    53    16    82    1
    54    17    18    1
    55    17    83    1
    56    17    84    1
    57    18    19    1
    58    18    85    1
    59    18    86    1
    60    19    20    1
    61    19    87    1
    62    19    88    1
    63    20    21    1
    64    20    89    1
    65    20    90    1
    66    21    22    1
    67    21    91    1
    68    21    92    1
    69    22    93    1
    70    22    94    1
    71    22    95    1
    72    23    24    2
    73    23    25    1
    74    25    26    1
    75    25    27    1
    76    25    96    1
    77    26    97    1
    78    26    98    1
    79    26    99    1
    80    27    28    1
    81    28    29    1
    82    28    31    1
    83    28   100    1
    84    29    30    1
    85    29   101    1
    86    29   102    1
    87    30   103    1
    88    30   104    1
    89    30   105    1
    90    31    32    2
    91    31    33    1
    92    33    34    1
    93    33    44    1
    94    34    35    1
    95    34   106    1
    96    34   107    1
    97    35    36    1
    98    35   108    1
    99    35   109    1
   100    36    37    1
   101    36   110    1
   102    36   111    1
   103    37    38    1
   104    37   112    1
   105    37   113    1
   106    38    39    1
   107    38   114    1
   108    38   115    1
   109    39    40    1
   110    39   116    1
   111    39   117    1
   112    40    41    1
   113    40   118    1
   114    40   119    1
   115    41    42    1
   116    41   120    1
   117    41   121    1
   118    42    43    1
   119    42   122    1
   120    42   123    1
   121    43   124    1
   122    43   125    1
   123    43   126    1
   124    44    45    1
   125    44   127    1
   126    44   128    1
   127    45    46    1
   128    45   129    1
   129    45   130    1
   130    46    47    1
   131    46   131    1
   132    46   132    1
   133    47    48    1
   134    47   133    1
   135    47   134    1
   136    48    49    1
   137    48   135    1
   138    48   136    1
   139    49    50    1
   140    49   137    1
   141    49   138    1
   142    50    51    1
   143    50   139    1
   144    50   140    1
   145    51    52    1
   146    51   141    1
   147    51   142    1
   148    52    53    1
   149    52   143    1
   150    52   144    1
   151    53   145    1
   152    53   146    1
   153    53   147    1
   154   148   149    1
   155   148   200    1
   156   148   201    1
   157   148   202    1
   158   149   150    1
   159   149   203    1
   160   149   204    1
   161   150   151    1
   162   150   205    1
   163   150   206    1
   164   151   152    1
   165   151   207    1
   166   151   208    1
   167   152   153    1
   168   152   209    1
   169   152   210    1
   170   153   154    1
   171   153   211    1
   172   153   212    1
   173   154   155    1
   174   154   213    1
   175   154   214    1
   176   155   156    1
   177   155   215    1
   178   155   216    1
   179   156   157    1
   180   156   217    1
   181   156   218    1
   182   157   158    1
   183   157   219    1
   184   157   220    1
   185   158   159    1
   186   158   169    1
   187   159   160    1
   188   159   221    1
   189   159   222    1
   190   160   161    1
   191   160   223    1
   192   160   224    1
   193   161   162    1
   194   161   225    1
   195   161   226    1
   196   162   163    1
   197   162   227    1
   198   162   228    1
   199   163   164    1
   200   163   229    1
   201   163   230    1
   202   164   165    1
   203   164   231    1
   204   164   232    1
   205   165   166    1
   206   165   233    1
   207   165   234    1
   208   166   167    1
   209   166   235    1
   210   166   236    1
   211   167   168    1
   212   167   237    1
   213   167   238    1
   214   168   239    1
   215   168   240    1
   216   168   241    1
   217   169   170    2
   218   169   171    1
   219   171   172    1
   220   171   173    1
   221   171   242    1
   222   172   243    1
   223   172   244    1
   224   172   245    1
   225   173   174    1
   226   174   175    1
   227   174   177    1
   228   174   246    1
   229   175   176    1
   230   175   247    1
   231   175   248    1
   232   176   249    1
   233   176   250    1
   234   176   251    1
   235   177   178    2
   236   177   179    1
   237   179   180    1
   238   179   190    1
   239   180   181    1
   240   180   252    1
   241   180   253    1
   242   181   182    1
   243   181   254    1
   244   181   255    1
   245   182   183    1
   246   182   256    1
   247   182   257    1
   248   183   184    1
   249   183   258    1
   250   183   259    1
   251   184   185    1
   252   184   260    1
   253   184   261    1
   254   185   186    1
   255   185   262    1
   256   185   263    1
   257   186   187    1
   258   186   264    1
   259   186   265    1
   260   187   188    1
   261   187   266    1
   262   187   267    1
   263   188   189    1
   264   188   268    1
   265   188   269    1
   266   189   270    1
   267   189   271    1
   268   189   272    1
   269   190   191    1
   270   190   273    1
   271   190   274    1
   272   191   192    1
   273   191   275    1
   274   191   276    1
   275   192   193    1
   276   192   277    1
   277   192   278    1
   278   193   194    1
   279   193   279    1
   280   193   280    1
   281   194   195    1
   282   194   281    1
   283   194   282    1
   284   195   196    1
   285   195   283    1
   286   195   284    1
   287   196   197    1
   288   196   285    1
   289   196   286    1
   290   197   198    1
   291   197   287    1
   292   197   288    1
   293   198   199    1
   294   198   289    1
   295   198   290    1
   296   199   291    1
   297   199   292    1
   298   199   293    1
   299   294   295    2
   300   294   296    1
   301   294   297    1
@<TRIPOS>SUBSTRUCTURE
     1 RES1      297 GROUP             0 ****  ****    0  
