@<TRIPOS>MOLECULE
YEMSEP_geometry_0_nunpairedes_0_charge_2 Charge: 2 Unpaired_Electrons: 3 XTB_Unpaired_Electrons: 0 XTB_Charge: 2
    95   105     1     0     0
SMALL
NoCharges
****
Generated from Architector

@<TRIPOS>ATOM
     1 Er1      -0.1168    0.1584    0.0466   Er        1 RES1   0.0000
     2 C1        3.1307   -3.7132    0.5059   C.3       1 RES1   0.0000
     3 N1        2.6187   -3.3902   -0.8189   N.am      1 RES1   0.0000
     4 C2        1.6622   -2.4570   -0.9157   C.2       1 RES1   0.0000
     5 O1        1.4243   -1.6819    0.0291   O.2       1 RES1   0.0000
     6 C3        0.7659   -2.3516   -2.1194   C.ar      1 RES1   0.0000
     7 C4        0.6985   -3.2139   -3.2113   C.ar      1 RES1   0.0000
     8 C5       -0.1618   -2.8818   -4.2471   C.ar      1 RES1   0.0000
     9 C6       -0.9613   -1.7495   -4.1616   C.ar      1 RES1   0.0000
    10 C7       -0.9263   -1.0033   -2.9852   C.ar      1 RES1   0.0000
    11 C8       -1.6614    0.2741   -2.6608   C.2       1 RES1   0.0000
    12 O2       -1.1376    0.9753   -1.7610   O.2       1 RES1   0.0000
    13 N2       -2.7576    0.6824   -3.2884   N.am      1 RES1   0.0000
    14 C9       -3.2615    2.0185   -2.9860   C.3       1 RES1   0.0000
    15 C10      -3.5721   -0.1008   -4.1494   C.ar      1 RES1   0.0000
    16 C11      -3.9180   -1.4122   -3.8285   C.ar      1 RES1   0.0000
    17 C12      -4.7681   -2.1136   -4.6645   C.ar      1 RES1   0.0000
    18 C13      -5.3096   -1.5115   -5.7879   C.ar      1 RES1   0.0000
    19 C14      -4.9902   -0.1980   -6.0859   C.ar      1 RES1   0.0000
    20 C15      -4.1138    0.5017   -5.2789   C.ar      1 RES1   0.0000
    21 N3       -0.0643   -1.3085   -2.0081   N.ar      1 RES1   0.0000
    22 C16       3.3556   -3.8940   -1.9173   C.ar      1 RES1   0.0000
    23 C17       3.8376   -5.1967   -1.8992   C.ar      1 RES1   0.0000
    24 C18       4.6475   -5.6467   -2.9262   C.ar      1 RES1   0.0000
    25 C19       4.9667   -4.8128   -3.9840   C.ar      1 RES1   0.0000
    26 C20       4.4894   -3.5112   -3.9986   C.ar      1 RES1   0.0000
    27 C21       3.7013   -3.0433   -2.9648   C.ar      1 RES1   0.0000
    28 H1        2.6076   -3.0999    1.2363   H         1 RES1   0.0000
    29 H2        4.2038   -3.5373    0.5711   H         1 RES1   0.0000
    30 H3        2.9492   -4.7648    0.7326   H         1 RES1   0.0000
    31 H4        1.3156   -4.0959   -3.2723   H         1 RES1   0.0000
    32 H5       -0.2016   -3.5013   -5.1310   H         1 RES1   0.0000
    33 H6       -1.5915   -1.4753   -4.9898   H         1 RES1   0.0000
    34 H7       -2.6927    2.4434   -2.1605   H         1 RES1   0.0000
    35 H8       -4.3149    1.9615   -2.7141   H         1 RES1   0.0000
    36 H9       -3.1482    2.6741   -3.8505   H         1 RES1   0.0000
    37 H10      -3.5380   -1.8761   -2.9286   H         1 RES1   0.0000
    38 H11      -5.0291   -3.1317   -4.4226   H         1 RES1   0.0000
    39 H12      -5.9827   -2.0639   -6.4224   H         1 RES1   0.0000
    40 H13      -5.4242    0.2995   -6.9366   H         1 RES1   0.0000
    41 H14      -3.8506    1.5133   -5.5386   H         1 RES1   0.0000
    42 H15       3.5812   -5.8561   -1.0872   H         1 RES1   0.0000
    43 H16       5.0401   -6.6504   -2.8926   H         1 RES1   0.0000
    44 H17       5.5885   -5.1716   -4.7896   H         1 RES1   0.0000
    45 H18       4.7513   -2.8438   -4.8035   H         1 RES1   0.0000
    46 H19       3.3681   -2.0154   -2.9584   H         1 RES1   0.0000
    47 C22      -2.3088   -2.9549    2.9870   C.3       1 RES1   0.0000
    48 N4       -1.5015   -1.8660    3.5299   N.am      1 RES1   0.0000
    49 C23      -0.6595   -1.2606    2.6919   C.2       1 RES1   0.0000
    50 O3       -0.7291   -1.4943    1.4627   O.2       1 RES1   0.0000
    51 C24       0.4826   -0.3693    3.1385   C.ar      1 RES1   0.0000
    52 C25       1.0508   -0.2037    4.4023   C.ar      1 RES1   0.0000
    53 C26       2.1378    0.6554    4.5102   C.ar      1 RES1   0.0000
    54 C27       2.6973    1.2550    3.3871   C.ar      1 RES1   0.0000
    55 C28       2.1547    0.9456    2.1395   C.ar      1 RES1   0.0000
    56 C29       2.5752    1.3793    0.7490   C.2       1 RES1   0.0000
    57 O4        1.8250    1.0544   -0.1990   O.2       1 RES1   0.0000
    58 N5        3.6610    2.1134    0.5034   N.am      1 RES1   0.0000
    59 C30       3.7770    2.7194   -0.8197   C.3       1 RES1   0.0000
    60 C31       4.8319    2.1397    1.2994   C.ar      1 RES1   0.0000
    61 C32       5.2869    0.9721    1.9106   C.ar      1 RES1   0.0000
    62 C33       6.4913    0.9816    2.5874   C.ar      1 RES1   0.0000
    63 C34       7.2710    2.1260    2.6176   C.ar      1 RES1   0.0000
    64 C35       6.8297    3.2767    1.9871   C.ar      1 RES1   0.0000
    65 C36       5.6060    3.2919    1.3437   C.ar      1 RES1   0.0000
    66 N6        1.0534    0.1952    2.0736   N.ar      1 RES1   0.0000
    67 C37      -1.8536   -1.4184    4.8254   C.ar      1 RES1   0.0000
    68 C38      -2.2926   -2.3517    5.7593   C.ar      1 RES1   0.0000
    69 C39      -2.7857   -1.9350    6.9806   C.ar      1 RES1   0.0000
    70 C40      -2.8178   -0.5872    7.2939   C.ar      1 RES1   0.0000
    71 C41      -2.3707    0.3439    6.3696   C.ar      1 RES1   0.0000
    72 C42      -1.9088   -0.0601    5.1302   C.ar      1 RES1   0.0000
    73 H20      -2.0930   -3.0507    1.9253   H         1 RES1   0.0000
    74 H21      -3.3705   -2.7604    3.1295   H         1 RES1   0.0000
    75 H22      -2.0571   -3.8950    3.4791   H         1 RES1   0.0000
    76 H23       0.6579   -0.6949    5.2774   H         1 RES1   0.0000
    77 H24       2.5577    0.8630    5.4852   H         1 RES1   0.0000
    78 H25       3.5324    1.9244    3.5089   H         1 RES1   0.0000
    79 H26       2.8693    2.5127   -1.3837   H         1 RES1   0.0000
    80 H27       4.6431    2.3197   -1.3468   H         1 RES1   0.0000
    81 H28       3.8908    3.7991   -0.7337   H         1 RES1   0.0000
    82 H29       4.7014    0.0654    1.8412   H         1 RES1   0.0000
    83 H30       6.8370    0.0803    3.0682   H         1 RES1   0.0000
    84 H31       8.2211    2.1118    3.1255   H         1 RES1   0.0000
    85 H32       7.4388    4.1651    1.9761   H         1 RES1   0.0000
    86 H33       5.2605    4.2027    0.8841   H         1 RES1   0.0000
    87 H34      -2.2530   -3.4033    5.5306   H         1 RES1   0.0000
    88 H35      -3.1606   -2.6679    7.6774   H         1 RES1   0.0000
    89 H36      -3.2000   -0.2633    8.2484   H         1 RES1   0.0000
    90 H37      -2.4101    1.3972    6.5953   H         1 RES1   0.0000
    91 H38      -1.6242    0.6828    4.3990   H         1 RES1   0.0000
    92 N7       -1.5025    1.9698    1.1292   N.3       1 RES1   0.0000
    93 O5       -2.1934    2.8088    1.6048   O.2       1 RES1   0.0000
    94 O6       -1.9282    0.8099    0.9359   O.co2     1 RES1   0.0000
    95 O7       -0.3191    2.1878    0.8237   O.co2     1 RES1   0.0000
@<TRIPOS>BOND
     1     1     5    1
     2     1    12    1
     3     1    21    1
     4     1    50    1
     5     1    57    1
     6     1    66    1
     7     1    94    1
     8     1    95    1
     9     2     3    1
    10     2    28    1
    11     2    29    1
    12     2    30    1
    13     3     4    1
    14     3    22    1
    15     4     5    2
    16     4     6    1
    17     6     7    1
    18     6    21    2
    19     7     8    2
    20     7    31    1
    21     8     9    1
    22     8    32    1
    23     9    10    2
    24     9    33    1
    25    10    11    1
    26    10    21    1
    27    11    12    2
    28    11    13    1
    29    13    14    1
    30    13    15    1
    31    14    34    1
    32    14    35    1
    33    14    36    1
    34    15    16    1
    35    15    20    2
    36    16    17    2
    37    16    37    1
    38    17    18    1
    39    17    38    1
    40    18    19    2
    41    18    39    1
    42    19    20    1
    43    19    40    1
    44    20    41    1
    45    22    23    1
    46    22    27    2
    47    23    24    2
    48    23    42    1
    49    24    25    1
    50    24    43    1
    51    25    26    2
    52    25    44    1
    53    26    27    1
    54    26    45    1
    55    27    46    1
    56    47    48    1
    57    47    73    1
    58    47    74    1
    59    47    75    1
    60    48    49    1
    61    48    67    1
    62    49    50    2
    63    49    51    1
    64    51    52    1
    65    51    66    2
    66    52    53    2
    67    52    76    1
    68    53    54    1
    69    53    77    1
    70    54    55    2
    71    54    78    1
    72    55    56    1
    73    55    66    1
    74    56    57    2
    75    56    58    1
    76    58    59    1
    77    58    60    1
    78    59    79    1
    79    59    80    1
    80    59    81    1
    81    60    61    1
    82    60    65    2
    83    61    62    2
    84    61    82    1
    85    62    63    1
    86    62    83    1
    87    63    64    2
    88    63    84    1
    89    64    65    1
    90    64    85    1
    91    65    86    1
    92    67    68    1
    93    67    72    2
    94    68    69    2
    95    68    87    1
    96    69    70    1
    97    69    88    1
    98    70    71    2
    99    70    89    1
   100    71    72    1
   101    71    90    1
   102    72    91    1
   103    92    93    2
   104    92    94    1
   105    92    95    1
@<TRIPOS>SUBSTRUCTURE
     1 RES1       95 GROUP             0 ****  ****    0  
