@<TRIPOS>MOLECULE
ICIGOT_geomtry_0_nunpairedes_0_charge_2 Charge: 2 Unpaired_Electrons: 3 XTB_Unpaired_Electrons: 0 XTB_Charge: 2
   231   235     1     0     0
SMALL
NoCharges
****
Generated from Architector

@<TRIPOS>ATOM
     1 Er1      -0.2885   -0.0956   -0.0445   Er        1 RES1   0.0000
     2 C1       -4.3168    7.2918    2.6549   C.3       1 RES1   0.0000
     3 C2       -4.7908    7.3022    1.2079   C.3       1 RES1   0.0000
     4 C3       -3.6953    6.8125    0.2659   C.3       1 RES1   0.0000
     5 C4       -4.1711    6.7140   -1.1835   C.3       1 RES1   0.0000
     6 C5       -3.0148    6.5308   -2.1653   C.3       1 RES1   0.0000
     7 C6       -2.2327    5.2425   -1.9272   C.3       1 RES1   0.0000
     8 C7       -1.0487    5.1508   -2.8842   C.3       1 RES1   0.0000
     9 C8       -0.1439    3.9679   -2.5595   C.3       1 RES1   0.0000
    10 N1        0.4381    4.0505   -1.2133   N.am      1 RES1   0.0000
    11 C9        1.0340    5.3084   -0.7919   C.3       1 RES1   0.0000
    12 C10       2.1870    5.7684   -1.7057   C.3       1 RES1   0.0000
    13 C11       2.6143    7.1963   -1.3337   C.3       1 RES1   0.0000
    14 C12       3.3138    7.3443    0.0109   C.3       1 RES1   0.0000
    15 C13       3.3786    4.8012   -1.6836   C.3       1 RES1   0.0000
    16 C14       3.2016    3.6645   -2.6812   C.3       1 RES1   0.0000
    17 C15       4.3807    2.7065   -2.7798   C.3       1 RES1   0.0000
    18 C16       4.0832    1.7039   -3.8852   C.3       1 RES1   0.0000
    19 C17       0.4374    2.9477   -0.4852   C.2       1 RES1   0.0000
    20 O1        0.2001    1.8210   -0.9814   O.2       1 RES1   0.0000
    21 C18       0.6665    3.0069    1.0360   C.3       1 RES1   0.0000
    22 O2        0.3354    1.7104    1.5089   O.3       1 RES1   0.0000
    23 C19      -0.0035    1.5936    2.8820   C.3       1 RES1   0.0000
    24 C20      -0.6579    0.2101    3.0164   C.2       1 RES1   0.0000
    25 O3       -0.7228   -0.5103    2.0013   O.2       1 RES1   0.0000
    26 N2       -1.1406   -0.1926    4.1781   N.am      1 RES1   0.0000
    27 C21      -0.9254    0.4960    5.4386   C.3       1 RES1   0.0000
    28 C22      -1.9410    1.6001    5.7638   C.3       1 RES1   0.0000
    29 C23      -2.1124    1.7840    7.2778   C.3       1 RES1   0.0000
    30 C24      -3.2067    0.9102    7.8943   C.3       1 RES1   0.0000
    31 C25      -2.8569   -0.5725    8.0109   C.3       1 RES1   0.0000
    32 C26      -3.9479   -1.3529    8.7432   C.3       1 RES1   0.0000
    33 C27      -3.6467   -2.8501    8.8083   C.3       1 RES1   0.0000
    34 C28      -4.7943   -3.6215    9.4490   C.3       1 RES1   0.0000
    35 C29      -1.8975   -1.4437    4.1993   C.3       1 RES1   0.0000
    36 C30      -3.4208   -1.2265    4.1861   C.3       1 RES1   0.0000
    37 C31      -3.8611   -0.4880    2.9166   C.3       1 RES1   0.0000
    38 C32      -5.3458   -0.1345    2.9314   C.3       1 RES1   0.0000
    39 C33      -4.1448   -2.5565    4.4663   C.3       1 RES1   0.0000
    40 C34      -3.8907   -3.7557    3.5482   C.3       1 RES1   0.0000
    41 C35      -4.5030   -3.6678    2.1484   C.3       1 RES1   0.0000
    42 C36      -4.7278   -5.0469    1.5369   C.3       1 RES1   0.0000
    43 H1       -5.0958    7.6618    3.3134   H         1 RES1   0.0000
    44 H2       -3.4398    7.9242    2.7722   H         1 RES1   0.0000
    45 H3       -4.0555    6.2816    2.9657   H         1 RES1   0.0000
    46 H4       -5.0821    8.3145    0.9240   H         1 RES1   0.0000
    47 H5       -5.6683    6.6621    1.1017   H         1 RES1   0.0000
    48 H6       -3.3561    5.8306    0.6085   H         1 RES1   0.0000
    49 H7       -2.8463    7.5007    0.3184   H         1 RES1   0.0000
    50 H8       -4.7026    7.6314   -1.4448   H         1 RES1   0.0000
    51 H9       -4.8747    5.8843   -1.2805   H         1 RES1   0.0000
    52 H10      -2.3367    7.3847   -2.0733   H         1 RES1   0.0000
    53 H11      -3.4035    6.5258   -3.1855   H         1 RES1   0.0000
    54 H12      -2.8828    4.3796   -2.0727   H         1 RES1   0.0000
    55 H13      -1.8779    5.2165   -0.8950   H         1 RES1   0.0000
    56 H14      -0.4852    6.0848   -2.8831   H         1 RES1   0.0000
    57 H15      -1.4208    5.0004   -3.8990   H         1 RES1   0.0000
    58 H16       0.6441    3.8840   -3.3112   H         1 RES1   0.0000
    59 H17      -0.7490    3.0580   -2.5829   H         1 RES1   0.0000
    60 H18       1.4205    5.1952    0.2179   H         1 RES1   0.0000
    61 H19       0.2625    6.0805   -0.7800   H         1 RES1   0.0000
    62 H20       1.8129    5.8158   -2.7322   H         1 RES1   0.0000
    63 H21       1.7384    7.8457   -1.3544   H         1 RES1   0.0000
    64 H22       3.2919    7.5471   -2.1116   H         1 RES1   0.0000
    65 H23       2.6590    7.0930    0.8403   H         1 RES1   0.0000
    66 H24       3.6249    8.3770    0.1364   H         1 RES1   0.0000
    67 H25       4.2022    6.7222    0.0671   H         1 RES1   0.0000
    68 H26       3.5267    4.3982   -0.6796   H         1 RES1   0.0000
    69 H27       4.2795    5.3526   -1.9534   H         1 RES1   0.0000
    70 H28       3.0293    4.0952   -3.6701   H         1 RES1   0.0000
    71 H29       2.3318    3.0670   -2.4088   H         1 RES1   0.0000
    72 H30       4.5198    2.1968   -1.8213   H         1 RES1   0.0000
    73 H31       5.3011    3.2422   -3.0098   H         1 RES1   0.0000
    74 H32       3.0830    1.2893   -3.7535   H         1 RES1   0.0000
    75 H33       4.8117    0.9008   -3.8975   H         1 RES1   0.0000
    76 H34       4.1111    2.1935   -4.8540   H         1 RES1   0.0000
    77 H35       0.0038    3.7666    1.4720   H         1 RES1   0.0000
    78 H36       1.7124    3.2449    1.2744   H         1 RES1   0.0000
    79 H37      -0.7289    2.3638    3.1741   H         1 RES1   0.0000
    80 H38       0.8879    1.6788    3.5225   H         1 RES1   0.0000
    81 H39       0.0833    0.9157    5.4506   H         1 RES1   0.0000
    82 H40      -0.9779   -0.2628    6.2171   H         1 RES1   0.0000
    83 H41      -2.9039    1.3458    5.3243   H         1 RES1   0.0000
    84 H42      -1.6201    2.5430    5.3177   H         1 RES1   0.0000
    85 H43      -2.3746    2.8237    7.4680   H         1 RES1   0.0000
    86 H44      -1.1639    1.5889    7.7813   H         1 RES1   0.0000
    87 H45      -4.1259    1.0169    7.3142   H         1 RES1   0.0000
    88 H46      -3.4179    1.2850    8.8965   H         1 RES1   0.0000
    89 H47      -1.9121   -0.6828    8.5504   H         1 RES1   0.0000
    90 H48      -2.7402   -1.0151    7.0200   H         1 RES1   0.0000
    91 H49      -4.9019   -1.2018    8.2324   H         1 RES1   0.0000
    92 H50      -4.0523   -0.9684    9.7586   H         1 RES1   0.0000
    93 H51      -2.7324   -3.0105    9.3857   H         1 RES1   0.0000
    94 H52      -3.4704   -3.2337    7.7972   H         1 RES1   0.0000
    95 H53      -4.9709   -3.2660   10.4607   H         1 RES1   0.0000
    96 H54      -4.5635   -4.6825    9.4940   H         1 RES1   0.0000
    97 H55      -5.7095   -3.4888    8.8760   H         1 RES1   0.0000
    98 H56      -1.6020   -1.9966    5.0926   H         1 RES1   0.0000
    99 H57      -1.6077   -2.0171    3.3178   H         1 RES1   0.0000
   100 H58      -3.6802   -0.5818    5.0321   H         1 RES1   0.0000
   101 H59      -3.6203   -1.0761    2.0313   H         1 RES1   0.0000
   102 H60      -3.2912    0.4427    2.8331   H         1 RES1   0.0000
   103 H61      -5.9681   -1.0201    2.8342   H         1 RES1   0.0000
   104 H62      -5.5842    0.5352    2.1077   H         1 RES1   0.0000
   105 H63      -5.6104    0.3644    3.8629   H         1 RES1   0.0000
   106 H64      -5.2170   -2.3605    4.4885   H         1 RES1   0.0000
   107 H65      -3.8601   -2.8617    5.4780   H         1 RES1   0.0000
   108 H66      -4.3317   -4.6212    4.0477   H         1 RES1   0.0000
   109 H67      -2.8185   -3.9449    3.4742   H         1 RES1   0.0000
   110 H68      -3.8528   -3.0899    1.4891   H         1 RES1   0.0000
   111 H69      -5.4650   -3.1569    2.2036   H         1 RES1   0.0000
   112 H70      -3.8010   -5.6139    1.4973   H         1 RES1   0.0000
   113 H71      -5.1193   -4.9529    0.5268   H         1 RES1   0.0000
   114 H72      -5.4459   -5.6145    2.1228   H         1 RES1   0.0000
   115 C37      -4.7731   -1.3830   -0.9904   C.3       1 RES1   0.0000
   116 C38      -5.8156   -2.2893   -1.6397   C.3       1 RES1   0.0000
   117 C39      -5.8974   -2.1101   -3.1542   C.3       1 RES1   0.0000
   118 C40      -4.6528   -2.5802   -3.9087   C.3       1 RES1   0.0000
   119 C41      -4.4499   -4.1024   -3.8368   C.3       1 RES1   0.0000
   120 C42      -3.3391   -4.5534   -2.8840   C.3       1 RES1   0.0000
   121 C43      -1.9581   -4.2900   -3.4825   C.3       1 RES1   0.0000
   122 C44      -0.8029   -4.8066   -2.6186   C.3       1 RES1   0.0000
   123 N3       -0.6886   -4.1065   -1.3505   N.am      1 RES1   0.0000
   124 C45      -1.1256   -4.8161   -0.1509   C.3       1 RES1   0.0000
   125 C46      -0.0131   -5.7572    0.3564   C.3       1 RES1   0.0000
   126 C47      -0.5796   -6.8462    1.2799   C.3       1 RES1   0.0000
   127 C48      -1.0358   -6.3642    2.6508   C.3       1 RES1   0.0000
   128 C49       1.1076   -4.9374    1.0097   C.3       1 RES1   0.0000
   129 C50       2.2918   -5.7623    1.5145   C.3       1 RES1   0.0000
   130 C51       3.0247   -6.5162    0.4086   C.3       1 RES1   0.0000
   131 C52       4.2831   -7.1972    0.9310   C.3       1 RES1   0.0000
   132 C53      -0.2174   -2.8789   -1.2283   C.2       1 RES1   0.0000
   133 O4       -0.2317   -2.2675   -0.1380   O.2       1 RES1   0.0000
   134 C54       0.4268   -2.1681   -2.4298   C.3       1 RES1   0.0000
   135 O5        1.0369   -0.9557   -1.9983   O.3       1 RES1   0.0000
   136 C55       2.4473   -1.0168   -1.8181   C.3       1 RES1   0.0000
   137 C56       2.8289   -0.5879   -0.4022   C.2       1 RES1   0.0000
   138 O6        1.9288   -0.2239    0.3804   O.2       1 RES1   0.0000
   139 N4        4.1120   -0.6022   -0.0623   N.am      1 RES1   0.0000
   140 C57       5.1658   -0.7986   -1.0503   C.3       1 RES1   0.0000
   141 C58       5.5193   -2.2414   -1.4173   C.3       1 RES1   0.0000
   142 C59       6.5776   -2.2617   -2.5264   C.3       1 RES1   0.0000
   143 C60       6.1762   -1.6644   -3.8797   C.3       1 RES1   0.0000
   144 C61       4.9458   -2.3055   -4.5257   C.3       1 RES1   0.0000
   145 C62       4.8535   -2.1092   -6.0462   C.3       1 RES1   0.0000
   146 C63       4.3181   -0.7450   -6.5069   C.3       1 RES1   0.0000
   147 C64       5.4095    0.2720   -6.8254   C.3       1 RES1   0.0000
   148 C65       4.4717   -0.0819    1.2585   C.3       1 RES1   0.0000
   149 C66       4.2070   -1.0084    2.4571   C.3       1 RES1   0.0000
   150 C67       4.8592   -2.3856    2.2761   C.3       1 RES1   0.0000
   151 C68       4.5762   -3.3426    3.4326   C.3       1 RES1   0.0000
   152 C69       4.7401   -0.3223    3.7244   C.3       1 RES1   0.0000
   153 C70       4.0814    1.0208    4.0772   C.3       1 RES1   0.0000
   154 C71       4.9220    2.2477    3.7191   C.3       1 RES1   0.0000
   155 C72       4.3631    3.5309    4.3262   C.3       1 RES1   0.0000
   156 H73      -4.8804   -1.4081    0.0907   H         1 RES1   0.0000
   157 H74      -3.7562   -1.6862   -1.2449   H         1 RES1   0.0000
   158 H75      -4.9133   -0.3557   -1.3218   H         1 RES1   0.0000
   159 H76      -5.6041   -3.3335   -1.4012   H         1 RES1   0.0000
   160 H77      -6.7917   -2.0528   -1.2120   H         1 RES1   0.0000
   161 H78      -6.7606   -2.6614   -3.5302   H         1 RES1   0.0000
   162 H79      -6.0704   -1.0547   -3.3717   H         1 RES1   0.0000
   163 H80      -4.7650   -2.2802   -4.9518   H         1 RES1   0.0000
   164 H81      -3.7778   -2.0553   -3.5209   H         1 RES1   0.0000
   165 H82      -5.3905   -4.5606   -3.5280   H         1 RES1   0.0000
   166 H83      -4.2181   -4.4906   -4.8298   H         1 RES1   0.0000
   167 H84      -3.4377   -4.0315   -1.9326   H         1 RES1   0.0000
   168 H85      -3.4509   -5.6239   -2.7000   H         1 RES1   0.0000
   169 H86      -1.8968   -4.7960   -4.4463   H         1 RES1   0.0000
   170 H87      -1.8464   -3.2208   -3.6624   H         1 RES1   0.0000
   171 H88      -0.9739   -5.8601   -2.3946   H         1 RES1   0.0000
   172 H89       0.1372   -4.7268   -3.1698   H         1 RES1   0.0000
   173 H90      -1.3700   -4.0771    0.6137   H         1 RES1   0.0000
   174 H91      -2.0187   -5.3860   -0.4082   H         1 RES1   0.0000
   175 H92       0.3982   -6.2704   -0.5193   H         1 RES1   0.0000
   176 H93      -1.4182   -7.3279    0.7738   H         1 RES1   0.0000
   177 H94       0.1850   -7.6100    1.4202   H         1 RES1   0.0000
   178 H95      -1.8126   -5.6093    2.5691   H         1 RES1   0.0000
   179 H96      -1.4384   -7.2026    3.2137   H         1 RES1   0.0000
   180 H97      -0.2084   -5.9528    3.2225   H         1 RES1   0.0000
   181 H98       1.4822   -4.2077    0.2840   H         1 RES1   0.0000
   182 H99       0.6861   -4.3691    1.8407   H         1 RES1   0.0000
   183 H100      2.9941   -5.0795    1.9927   H         1 RES1   0.0000
   184 H101      1.9615   -6.4703    2.2733   H         1 RES1   0.0000
   185 H102      2.3703   -7.2747   -0.0220   H         1 RES1   0.0000
   186 H103      3.2927   -5.8169   -0.3886   H         1 RES1   0.0000
   187 H104      4.0345   -7.8962    1.7250   H         1 RES1   0.0000
   188 H105      4.7757   -7.7470    0.1337   H         1 RES1   0.0000
   189 H106      4.9856   -6.4679    1.3280   H         1 RES1   0.0000
   190 H107      1.1533   -2.8223   -2.9247   H         1 RES1   0.0000
   191 H108     -0.3391   -1.8733   -3.1533   H         1 RES1   0.0000
   192 H109      2.8304   -2.0230   -1.9986   H         1 RES1   0.0000
   193 H110      2.9044   -0.3224   -2.5394   H         1 RES1   0.0000
   194 H111      4.8791   -0.2647   -1.9560   H         1 RES1   0.0000
   195 H112      6.0689   -0.3303   -0.6586   H         1 RES1   0.0000
   196 H113      5.9325   -2.7463   -0.5428   H         1 RES1   0.0000
   197 H114      4.6430   -2.8053   -1.7386   H         1 RES1   0.0000
   198 H115      7.4605   -1.7281   -2.1723   H         1 RES1   0.0000
   199 H116      6.8680   -3.2983   -2.6895   H         1 RES1   0.0000
   200 H117      6.0377   -0.5870   -3.7940   H         1 RES1   0.0000
   201 H118      7.0232   -1.8145   -4.5490   H         1 RES1   0.0000
   202 H119      4.9802   -3.3796   -4.3308   H         1 RES1   0.0000
   203 H120      4.0310   -1.9141   -4.0715   H         1 RES1   0.0000
   204 H121      5.8375   -2.2737   -6.4865   H         1 RES1   0.0000
   205 H122      4.1925   -2.8841   -6.4394   H         1 RES1   0.0000
   206 H123      3.7220   -0.8858   -7.4112   H         1 RES1   0.0000
   207 H124      3.6448   -0.3357   -5.7485   H         1 RES1   0.0000
   208 H125      6.0149   -0.0745   -7.6586   H         1 RES1   0.0000
   209 H126      4.9661    1.2245   -7.1096   H         1 RES1   0.0000
   210 H127      6.0663    0.4360   -5.9759   H         1 RES1   0.0000
   211 H128      5.5317    0.1714    1.2469   H         1 RES1   0.0000
   212 H129      3.8881    0.8318    1.4056   H         1 RES1   0.0000
   213 H130      3.1238   -1.1500    2.5479   H         1 RES1   0.0000
   214 H131      4.4754   -2.8349    1.3581   H         1 RES1   0.0000
   215 H132      5.9390   -2.2692    2.1707   H         1 RES1   0.0000
   216 H133      3.5113   -3.3672    3.6588   H         1 RES1   0.0000
   217 H134      4.8973   -4.3498    3.1750   H         1 RES1   0.0000
   218 H135      5.1113   -3.0558    4.3334   H         1 RES1   0.0000
   219 H136      4.5875   -1.0062    4.5573   H         1 RES1   0.0000
   220 H137      5.8183   -0.1824    3.6215   H         1 RES1   0.0000
   221 H138      3.1062    1.0862    3.5856   H         1 RES1   0.0000
   222 H139      3.9026    1.0488    5.1533   H         1 RES1   0.0000
   223 H140      5.9355    2.1035    4.0946   H         1 RES1   0.0000
   224 H141      4.9859    2.3609    2.6351   H         1 RES1   0.0000
   225 H142      4.3984    3.4897    5.4118   H         1 RES1   0.0000
   226 H143      4.9531    4.3855    4.0047   H         1 RES1   0.0000
   227 H144      3.3285    3.6969    4.0268   H         1 RES1   0.0000
   228 N5       -2.0984    0.8372   -1.1530   N.3       1 RES1   0.0000
   229 O7       -2.4752    1.6943   -1.8858   O.2       1 RES1   0.0000
   230 O8       -2.0961    0.9796    0.0752   O.co2     1 RES1   0.0000
   231 O9       -1.6805   -0.2511   -1.5840   O.co2     1 RES1   0.0000
@<TRIPOS>BOND
     1     1    20    1
     2     1    22    1
     3     1    25    1
     4     1   133    1
     5     1   135    1
     6     1   138    1
     7     1   230    1
     8     1   231    1
     9     2     3    1
    10     2    43    1
    11     2    44    1
    12     2    45    1
    13     3     4    1
    14     3    46    1
    15     3    47    1
    16     4     5    1
    17     4    48    1
    18     4    49    1
    19     5     6    1
    20     5    50    1
    21     5    51    1
    22     6     7    1
    23     6    52    1
    24     6    53    1
    25     7     8    1
    26     7    54    1
    27     7    55    1
    28     8     9    1
    29     8    56    1
    30     8    57    1
    31     9    10    1
    32     9    58    1
    33     9    59    1
    34    10    11    1
    35    10    19    1
    36    11    12    1
    37    11    60    1
    38    11    61    1
    39    12    13    1
    40    12    15    1
    41    12    62    1
    42    13    14    1
    43    13    63    1
    44    13    64    1
    45    14    65    1
    46    14    66    1
    47    14    67    1
    48    15    16    1
    49    15    68    1
    50    15    69    1
    51    16    17    1
    52    16    70    1
    53    16    71    1
    54    17    18    1
    55    17    72    1
    56    17    73    1
    57    18    74    1
    58    18    75    1
    59    18    76    1
    60    19    20    2
    61    19    21    1
    62    21    22    1
    63    21    77    1
    64    21    78    1
    65    22    23    1
    66    23    24    1
    67    23    79    1
    68    23    80    1
    69    24    25    2
    70    24    26    1
    71    26    27    1
    72    26    35    1
    73    27    28    1
    74    27    81    1
    75    27    82    1
    76    28    29    1
    77    28    83    1
    78    28    84    1
    79    29    30    1
    80    29    85    1
    81    29    86    1
    82    30    31    1
    83    30    87    1
    84    30    88    1
    85    31    32    1
    86    31    89    1
    87    31    90    1
    88    32    33    1
    89    32    91    1
    90    32    92    1
    91    33    34    1
    92    33    93    1
    93    33    94    1
    94    34    95    1
    95    34    96    1
    96    34    97    1
    97    35    36    1
    98    35    98    1
    99    35    99    1
   100    36    37    1
   101    36    39    1
   102    36   100    1
   103    37    38    1
   104    37   101    1
   105    37   102    1
   106    38   103    1
   107    38   104    1
   108    38   105    1
   109    39    40    1
   110    39   106    1
   111    39   107    1
   112    40    41    1
   113    40   108    1
   114    40   109    1
   115    41    42    1
   116    41   110    1
   117    41   111    1
   118    42   112    1
   119    42   113    1
   120    42   114    1
   121   115   116    1
   122   115   156    1
   123   115   157    1
   124   115   158    1
   125   116   117    1
   126   116   159    1
   127   116   160    1
   128   117   118    1
   129   117   161    1
   130   117   162    1
   131   118   119    1
   132   118   163    1
   133   118   164    1
   134   119   120    1
   135   119   165    1
   136   119   166    1
   137   120   121    1
   138   120   167    1
   139   120   168    1
   140   121   122    1
   141   121   169    1
   142   121   170    1
   143   122   123    1
   144   122   171    1
   145   122   172    1
   146   123   124    1
   147   123   132    1
   148   124   125    1
   149   124   173    1
   150   124   174    1
   151   125   126    1
   152   125   128    1
   153   125   175    1
   154   126   127    1
   155   126   176    1
   156   126   177    1
   157   127   178    1
   158   127   179    1
   159   127   180    1
   160   128   129    1
   161   128   181    1
   162   128   182    1
   163   129   130    1
   164   129   183    1
   165   129   184    1
   166   130   131    1
   167   130   185    1
   168   130   186    1
   169   131   187    1
   170   131   188    1
   171   131   189    1
   172   132   133    2
   173   132   134    1
   174   134   135    1
   175   134   190    1
   176   134   191    1
   177   135   136    1
   178   136   137    1
   179   136   192    1
   180   136   193    1
   181   137   138    2
   182   137   139    1
   183   139   140    1
   184   139   148    1
   185   140   141    1
   186   140   194    1
   187   140   195    1
   188   141   142    1
   189   141   196    1
   190   141   197    1
   191   142   143    1
   192   142   198    1
   193   142   199    1
   194   143   144    1
   195   143   200    1
   196   143   201    1
   197   144   145    1
   198   144   202    1
   199   144   203    1
   200   145   146    1
   201   145   204    1
   202   145   205    1
   203   146   147    1
   204   146   206    1
   205   146   207    1
   206   147   208    1
   207   147   209    1
   208   147   210    1
   209   148   149    1
   210   148   211    1
   211   148   212    1
   212   149   150    1
   213   149   152    1
   214   149   213    1
   215   150   151    1
   216   150   214    1
   217   150   215    1
   218   151   216    1
   219   151   217    1
   220   151   218    1
   221   152   153    1
   222   152   219    1
   223   152   220    1
   224   153   154    1
   225   153   221    1
   226   153   222    1
   227   154   155    1
   228   154   223    1
   229   154   224    1
   230   155   225    1
   231   155   226    1
   232   155   227    1
   233   228   229    2
   234   228   230    1
   235   228   231    1
@<TRIPOS>SUBSTRUCTURE
     1 RES1      231 GROUP             0 ****  ****    0  
