@<TRIPOS>MOLECULE
ICIGOT_geomtry_0_nunpairedes_0_charge_2 Charge: 2 Unpaired_Electrons: 3 XTB_Unpaired_Electrons: 0 XTB_Charge: 2
   231   235     1     0     0
SMALL
NoCharges
****
Generated from Architector

@<TRIPOS>ATOM
     1 Er1      -0.0070   -0.2434   -0.0719   Er        1 RES1   0.0000
     2 C1        0.9009    3.4810   -5.3511   C.3       1 RES1   0.0000
     3 C2        2.0879    4.2803   -4.8155   C.3       1 RES1   0.0000
     4 C3        1.6857    5.2867   -3.7303   C.3       1 RES1   0.0000
     5 C4        2.8715    6.1126   -3.1909   C.3       1 RES1   0.0000
     6 C5        3.2112    5.8310   -1.7196   C.3       1 RES1   0.0000
     7 C6        2.1840    6.4431   -0.7413   C.3       1 RES1   0.0000
     8 C7        1.2425    5.4296   -0.0619   C.3       1 RES1   0.0000
     9 C8        1.6975    5.0355    1.3533   C.3       1 RES1   0.0000
    10 N1        1.6685    3.6079    1.6826   N.am      1 RES1   0.0000
    11 C9        2.6469    3.2011    2.6972   C.3       1 RES1   0.0000
    12 C10       3.9369    2.5649    2.1983   C.3       1 RES1   0.0000
    13 C11       4.6840    1.9514    3.3886   C.3       1 RES1   0.0000
    14 C12       6.1610    1.6762    3.0996   C.3       1 RES1   0.0000
    15 C13       6.4364    0.6696    1.9748   C.3       1 RES1   0.0000
    16 C14       6.6747   -0.7751    2.4214   C.3       1 RES1   0.0000
    17 C15       5.4369   -1.5133    2.9519   C.3       1 RES1   0.0000
    18 C16       5.4388   -1.6874    4.4666   C.3       1 RES1   0.0000
    19 C17       0.8566    2.6966    1.1574   C.2       1 RES1   0.0000
    20 O1        1.1149    1.4698    1.1839   O.2       1 RES1   0.0000
    21 C18      -0.5327    3.0939    0.6408   C.3       1 RES1   0.0000
    22 O2       -1.2635    1.8806    0.7373   O.3       1 RES1   0.0000
    23 C19      -2.6787    2.0066    0.7655   C.3       1 RES1   0.0000
    24 C20      -3.1574    0.6159    1.2179   C.2       1 RES1   0.0000
    25 O3       -2.3467   -0.3176    1.0614   O.2       1 RES1   0.0000
    26 N2       -4.3350    0.5008    1.8240   N.am      1 RES1   0.0000
    27 C21      -4.7653   -0.7863    2.3910   C.3       1 RES1   0.0000
    28 C22      -3.9242   -1.3698    3.5355   C.3       1 RES1   0.0000
    29 C23      -4.1369   -0.8230    4.9550   C.3       1 RES1   0.0000
    30 C24      -3.7056   -1.8431    6.0404   C.3       1 RES1   0.0000
    31 C25      -2.3264   -1.6549    6.7106   C.3       1 RES1   0.0000
    32 C26      -1.6642   -2.9939    7.0548   C.3       1 RES1   0.0000
    33 C27      -0.2859   -2.8537    7.7130   C.3       1 RES1   0.0000
    34 C28       0.8394   -2.5042    6.7443   C.3       1 RES1   0.0000
    35 C29      -5.3795    1.4929    1.5894   C.3       1 RES1   0.0000
    36 C30      -5.8743    1.5220    0.1291   C.3       1 RES1   0.0000
    37 C31      -6.0536    0.1224   -0.4646   C.3       1 RES1   0.0000
    38 C32      -6.6529    0.0913   -1.8791   C.3       1 RES1   0.0000
    39 C33      -5.6347    0.0732   -3.0226   C.3       1 RES1   0.0000
    40 C34      -4.7869    1.3368   -3.1708   C.3       1 RES1   0.0000
    41 C35      -4.1095    1.3982   -4.5415   C.3       1 RES1   0.0000
    42 C36      -3.1802    2.5986   -4.6769   C.3       1 RES1   0.0000
    43 H1        1.2419    2.6799   -6.0039   H         1 RES1   0.0000
    44 H2        0.2475    4.1343   -5.9264   H         1 RES1   0.0000
    45 H3        0.3172    3.0367   -4.5461   H         1 RES1   0.0000
    46 H4        2.5497    4.8022   -5.6546   H         1 RES1   0.0000
    47 H5        2.8436    3.6039   -4.4061   H         1 RES1   0.0000
    48 H6        1.2133    4.7409   -2.9108   H         1 RES1   0.0000
    49 H7        0.9270    5.9530   -4.1396   H         1 RES1   0.0000
    50 H8        2.6632    7.1786   -3.2837   H         1 RES1   0.0000
    51 H9        3.7486    5.9165   -3.8125   H         1 RES1   0.0000
    52 H10       4.1948    6.2572   -1.5142   H         1 RES1   0.0000
    53 H11       3.2886    4.7553   -1.5716   H         1 RES1   0.0000
    54 H12       1.5737    7.1564   -1.2933   H         1 RES1   0.0000
    55 H13       2.7019    7.0134    0.0307   H         1 RES1   0.0000
    56 H14       1.1959    4.5483   -0.6952   H         1 RES1   0.0000
    57 H15       0.2397    5.8508   -0.0140   H         1 RES1   0.0000
    58 H16       1.1193    5.5912    2.1019   H         1 RES1   0.0000
    59 H17       2.7455    5.3302    1.4599   H         1 RES1   0.0000
    60 H18       2.1612    2.4759    3.3511   H         1 RES1   0.0000
    61 H19       2.8742    4.0887    3.2893   H         1 RES1   0.0000
    62 H20       4.5700    3.3065    1.7121   H         1 RES1   0.0000
    63 H21       3.6795    1.7959    1.4737   H         1 RES1   0.0000
    64 H22       4.1775    1.0354    3.6941   H         1 RES1   0.0000
    65 H23       4.6299    2.6474    4.2310   H         1 RES1   0.0000
    66 H24       6.6369    1.3240    4.0156   H         1 RES1   0.0000
    67 H25       6.6249    2.6312    2.8436   H         1 RES1   0.0000
    68 H26       7.3403    0.9889    1.4546   H         1 RES1   0.0000
    69 H27       5.6230    0.6990    1.2486   H         1 RES1   0.0000
    70 H28       7.4571   -0.7906    3.1801   H         1 RES1   0.0000
    71 H29       7.0638   -1.3165    1.5566   H         1 RES1   0.0000
    72 H30       5.3983   -2.5087    2.5011   H         1 RES1   0.0000
    73 H31       4.5378   -0.9762    2.6425   H         1 RES1   0.0000
    74 H32       6.2655   -2.3254    4.7678   H         1 RES1   0.0000
    75 H33       4.5146   -2.1533    4.8067   H         1 RES1   0.0000
    76 H34       5.5440   -0.7329    4.9730   H         1 RES1   0.0000
    77 H35      -0.5330    3.4535   -0.3944   H         1 RES1   0.0000
    78 H36      -0.9577    3.8573    1.3063   H         1 RES1   0.0000
    79 H37      -3.0657    2.2568   -0.2308   H         1 RES1   0.0000
    80 H38      -2.9631    2.7930    1.4771   H         1 RES1   0.0000
    81 H39      -4.7716   -1.5244    1.5821   H         1 RES1   0.0000
    82 H40      -5.7877   -0.6548    2.7439   H         1 RES1   0.0000
    83 H41      -2.8810   -1.3029    3.2611   H         1 RES1   0.0000
    84 H42      -4.2005   -2.4255    3.5646   H         1 RES1   0.0000
    85 H43      -5.1981   -0.6102    5.0955   H         1 RES1   0.0000
    86 H44      -3.6000    0.1127    5.1074   H         1 RES1   0.0000
    87 H45      -3.7462   -2.8397    5.5965   H         1 RES1   0.0000
    88 H46      -4.4483   -1.8272    6.8385   H         1 RES1   0.0000
    89 H47      -2.4483   -1.0819    7.6314   H         1 RES1   0.0000
    90 H48      -1.6469   -1.0832    6.0812   H         1 RES1   0.0000
    91 H49      -1.5601   -3.5977    6.1490   H         1 RES1   0.0000
    92 H50      -2.3221   -3.5413    7.7313   H         1 RES1   0.0000
    93 H51      -0.0276   -3.7980    8.1929   H         1 RES1   0.0000
    94 H52      -0.3304   -2.0991    8.4976   H         1 RES1   0.0000
    95 H53       0.9488   -3.2852    5.9956   H         1 RES1   0.0000
    96 H54       1.7822   -2.4225    7.2799   H         1 RES1   0.0000
    97 H55       0.6549   -1.5624    6.2343   H         1 RES1   0.0000
    98 H56      -5.0301    2.4855    1.8832   H         1 RES1   0.0000
    99 H57      -6.2156    1.2338    2.2356   H         1 RES1   0.0000
   100 H58      -5.1882    2.0849   -0.4983   H         1 RES1   0.0000
   101 H59      -6.8310    2.0480    0.1201   H         1 RES1   0.0000
   102 H60      -6.7129   -0.4405    0.1973   H         1 RES1   0.0000
   103 H61      -5.0876   -0.3871   -0.4997   H         1 RES1   0.0000
   104 H62      -7.3384    0.9279   -2.0119   H         1 RES1   0.0000
   105 H63      -7.2431   -0.8224   -1.9770   H         1 RES1   0.0000
   106 H64      -6.1889   -0.0691   -3.9529   H         1 RES1   0.0000
   107 H65      -4.9725   -0.7887   -2.9067   H         1 RES1   0.0000
   108 H66      -4.0116    1.3593   -2.3969   H         1 RES1   0.0000
   109 H67      -5.4180    2.2208   -3.0482   H         1 RES1   0.0000
   110 H68      -4.8779    1.4513   -5.3147   H         1 RES1   0.0000
   111 H69      -3.5370    0.4827   -4.7028   H         1 RES1   0.0000
   112 H70      -3.7212    3.5253   -4.4956   H         1 RES1   0.0000
   113 H71      -2.7617    2.6359   -5.6792   H         1 RES1   0.0000
   114 H72      -2.3571    2.5268   -3.9679   H         1 RES1   0.0000
   115 C37      -3.4716   -5.3071   -1.9962   C.3       1 RES1   0.0000
   116 C38      -1.9561   -5.3340   -2.1542   C.3       1 RES1   0.0000
   117 C39      -1.3115   -6.4465   -1.3249   C.3       1 RES1   0.0000
   118 C40       0.2092   -6.4584   -1.4860   C.3       1 RES1   0.0000
   119 C41       0.9148   -7.5270   -0.6449   C.3       1 RES1   0.0000
   120 C42       1.0328   -7.1560    0.8378   C.3       1 RES1   0.0000
   121 C43       2.1380   -6.1249    1.1162   C.3       1 RES1   0.0000
   122 C44       1.7766   -5.1292    2.2251   C.3       1 RES1   0.0000
   123 N3        0.8628   -4.1157    1.7329   N.am      1 RES1   0.0000
   124 C45      -0.5679   -4.2702    1.9346   C.3       1 RES1   0.0000
   125 C46      -1.2280   -2.9807    2.4532   C.3       1 RES1   0.0000
   126 C47      -0.4167   -2.2427    3.5379   C.3       1 RES1   0.0000
   127 C48      -0.0209   -0.7764    3.2505   C.3       1 RES1   0.0000
   128 C49      -0.9841    0.3062    3.7782   C.3       1 RES1   0.0000
   129 C50      -0.2899    1.5757    4.2747   C.3       1 RES1   0.0000
   130 C51      -1.2880    2.7176    4.4759   C.3       1 RES1   0.0000
   131 C52      -0.6201    4.0157    4.9123   C.3       1 RES1   0.0000
   132 C53       1.2587   -3.0590    1.0427   C.2       1 RES1   0.0000
   133 O4        0.4649   -2.3661    0.3763   O.2       1 RES1   0.0000
   134 C54       2.6774   -2.5304    1.2090   C.3       1 RES1   0.0000
   135 O5        2.8468   -1.4254    0.3457   O.3       1 RES1   0.0000
   136 C55       3.4742   -1.7642   -0.8831   C.3       1 RES1   0.0000
   137 C56       2.6789   -1.1586   -2.0323   C.2       1 RES1   0.0000
   138 O6        1.5064   -0.7784   -1.7974   O.2       1 RES1   0.0000
   139 N4        3.2763   -1.0101   -3.2008   N.am      1 RES1   0.0000
   140 C57       2.5309   -0.3707   -4.2817   C.3       1 RES1   0.0000
   141 C58       1.9251   -1.3716   -5.2617   C.3       1 RES1   0.0000
   142 C59       0.7697   -2.1612   -4.6449   C.3       1 RES1   0.0000
   143 C60       0.4044   -3.3977   -5.4743   C.3       1 RES1   0.0000
   144 C61       0.9867   -4.6978   -4.9145   C.3       1 RES1   0.0000
   145 C62       2.5080   -4.7030   -4.7825   C.3       1 RES1   0.0000
   146 C63       3.0553   -6.0522   -4.3211   C.3       1 RES1   0.0000
   147 C64       4.5668   -6.0220   -4.1363   C.3       1 RES1   0.0000
   148 C65       4.5452   -1.6459   -3.5610   C.3       1 RES1   0.0000
   149 C66       5.6450   -0.7443   -4.1533   C.3       1 RES1   0.0000
   150 C67       6.8507   -0.5335   -3.2301   C.3       1 RES1   0.0000
   151 C68       6.6677    0.3479   -1.9930   C.3       1 RES1   0.0000
   152 C69       6.4052    1.8323   -2.2700   C.3       1 RES1   0.0000
   153 C70       4.9325    2.1819   -2.4973   C.3       1 RES1   0.0000
   154 C71       4.0855    2.0575   -1.2328   C.3       1 RES1   0.0000
   155 C72       2.5894    2.1749   -1.5335   C.3       1 RES1   0.0000
   156 H73      -3.9031   -4.5311   -2.6231   H         1 RES1   0.0000
   157 H74      -3.7510   -5.1094   -0.9631   H         1 RES1   0.0000
   158 H75      -3.9020   -6.2611   -2.2901   H         1 RES1   0.0000
   159 H76      -1.5431   -4.3632   -1.8595   H         1 RES1   0.0000
   160 H77      -1.7126   -5.4900   -3.2074   H         1 RES1   0.0000
   161 H78      -1.7158   -7.4079   -1.6476   H         1 RES1   0.0000
   162 H79      -1.5853   -6.3187   -0.2740   H         1 RES1   0.0000
   163 H80       0.5974   -5.4642   -1.2407   H         1 RES1   0.0000
   164 H81       0.4275   -6.6495   -2.5382   H         1 RES1   0.0000
   165 H82       1.9123   -7.7153   -1.0487   H         1 RES1   0.0000
   166 H83       0.3530   -8.4581   -0.7379   H         1 RES1   0.0000
   167 H84       1.2394   -8.0589    1.4128   H         1 RES1   0.0000
   168 H85       0.0672   -6.7762    1.1682   H         1 RES1   0.0000
   169 H86       2.3458   -5.5644    0.2032   H         1 RES1   0.0000
   170 H87       3.0537   -6.6406    1.4054   H         1 RES1   0.0000
   171 H88       2.6751   -4.6536    2.6188   H         1 RES1   0.0000
   172 H89       1.2959   -5.6544    3.0485   H         1 RES1   0.0000
   173 H90      -0.6956   -5.0765    2.6572   H         1 RES1   0.0000
   174 H91      -1.0449   -4.5523    0.9924   H         1 RES1   0.0000
   175 H92      -2.1881   -3.3003    2.8505   H         1 RES1   0.0000
   176 H93      -1.4374   -2.3194    1.6064   H         1 RES1   0.0000
   177 H94       0.5028   -2.8018    3.7211   H         1 RES1   0.0000
   178 H95      -0.9786   -2.2570    4.4676   H         1 RES1   0.0000
   179 H96       0.1139   -0.6317    2.1540   H         1 RES1   0.0000
   180 H97       0.9454   -0.5955    3.7275   H         1 RES1   0.0000
   181 H98      -1.5809   -0.0902    4.5918   H         1 RES1   0.0000
   182 H99      -1.6702    0.6112    2.9956   H         1 RES1   0.0000
   183 H100      0.4315    1.8808    3.5198   H         1 RES1   0.0000
   184 H101      0.2407    1.3881    5.2106   H         1 RES1   0.0000
   185 H102     -2.0350    2.4262    5.2164   H         1 RES1   0.0000
   186 H103     -1.8141    2.8861    3.5328   H         1 RES1   0.0000
   187 H104     -0.2149    3.9240    5.9148   H         1 RES1   0.0000
   188 H105     -1.3417    4.8271    4.9115   H         1 RES1   0.0000
   189 H106      0.1894    4.2816    4.2356   H         1 RES1   0.0000
   190 H107      3.4611   -3.2752    1.0540   H         1 RES1   0.0000
   191 H108      2.7502   -2.1467    2.2340   H         1 RES1   0.0000
   192 H109      3.5151   -2.8518   -1.0138   H         1 RES1   0.0000
   193 H110      4.4942   -1.3617   -0.8711   H         1 RES1   0.0000
   194 H111      3.2111    0.3012   -4.8054   H         1 RES1   0.0000
   195 H112      1.7243    0.2119   -3.8309   H         1 RES1   0.0000
   196 H113      2.6985   -2.0473   -5.6243   H         1 RES1   0.0000
   197 H114      1.5536   -0.8153   -6.1225   H         1 RES1   0.0000
   198 H115     -0.0950   -1.5005   -4.5627   H         1 RES1   0.0000
   199 H116      1.0268   -2.4801   -3.6317   H         1 RES1   0.0000
   200 H117      0.7418   -3.2561   -6.5019   H         1 RES1   0.0000
   201 H118     -0.6807   -3.5059   -5.5057   H         1 RES1   0.0000
   202 H119      0.6814   -5.5176   -5.5658   H         1 RES1   0.0000
   203 H120      0.5509   -4.8787   -3.9309   H         1 RES1   0.0000
   204 H121      2.8047   -3.9476   -4.0501   H         1 RES1   0.0000
   205 H122      2.9562   -4.4468   -5.7446   H         1 RES1   0.0000
   206 H123      2.7992   -6.8161   -5.0548   H         1 RES1   0.0000
   207 H124      2.5821   -6.3296   -3.3766   H         1 RES1   0.0000
   208 H125      5.0636   -5.7696   -5.0686   H         1 RES1   0.0000
   209 H126      4.9278   -6.9937   -3.8140   H         1 RES1   0.0000
   210 H127      4.8520   -5.2864   -3.3862   H         1 RES1   0.0000
   211 H128      4.2965   -2.4140   -4.2976   H         1 RES1   0.0000
   212 H129      4.9529   -2.1583   -2.6929   H         1 RES1   0.0000
   213 H130      5.2483    0.2146   -4.4709   H         1 RES1   0.0000
   214 H131      6.0179   -1.2343   -5.0539   H         1 RES1   0.0000
   215 H132      7.6469   -0.0945   -3.8312   H         1 RES1   0.0000
   216 H133      7.2092   -1.5121   -2.8985   H         1 RES1   0.0000
   217 H134      7.5868    0.2722   -1.4090   H         1 RES1   0.0000
   218 H135      5.8739   -0.0464   -1.3615   H         1 RES1   0.0000
   219 H136      6.9800    2.1406   -3.1461   H         1 RES1   0.0000
   220 H137      6.7740    2.4241   -1.4259   H         1 RES1   0.0000
   221 H138      4.5010    1.5397   -3.2626   H         1 RES1   0.0000
   222 H139      4.8703    3.2125   -2.8543   H         1 RES1   0.0000
   223 H140      4.3795    2.8431   -0.5338   H         1 RES1   0.0000
   224 H141      4.2731    1.0997   -0.7429   H         1 RES1   0.0000
   225 H142      2.4213    2.5758   -2.5277   H         1 RES1   0.0000
   226 H143      2.1071    2.8306   -0.8201   H         1 RES1   0.0000
   227 H144      2.0855    1.2132   -1.4687   H         1 RES1   0.0000
   228 N5       -1.0953   -0.1089   -2.1927   N.3       1 RES1   0.0000
   229 O7       -1.2856   -0.1834   -3.3601   O.2       1 RES1   0.0000
   230 O8       -0.6425    0.9338   -1.6734   O.co2     1 RES1   0.0000
   231 O9       -1.3589   -1.0414   -1.4235   O.co2     1 RES1   0.0000
@<TRIPOS>BOND
     1     1    20    1
     2     1    22    1
     3     1    25    1
     4     1   133    1
     5     1   135    1
     6     1   138    1
     7     1   230    1
     8     1   231    1
     9     2     3    1
    10     2    43    1
    11     2    44    1
    12     2    45    1
    13     3     4    1
    14     3    46    1
    15     3    47    1
    16     4     5    1
    17     4    48    1
    18     4    49    1
    19     5     6    1
    20     5    50    1
    21     5    51    1
    22     6     7    1
    23     6    52    1
    24     6    53    1
    25     7     8    1
    26     7    54    1
    27     7    55    1
    28     8     9    1
    29     8    56    1
    30     8    57    1
    31     9    10    1
    32     9    58    1
    33     9    59    1
    34    10    11    1
    35    10    19    1
    36    11    12    1
    37    11    60    1
    38    11    61    1
    39    12    13    1
    40    12    62    1
    41    12    63    1
    42    13    14    1
    43    13    64    1
    44    13    65    1
    45    14    15    1
    46    14    66    1
    47    14    67    1
    48    15    16    1
    49    15    68    1
    50    15    69    1
    51    16    17    1
    52    16    70    1
    53    16    71    1
    54    17    18    1
    55    17    72    1
    56    17    73    1
    57    18    74    1
    58    18    75    1
    59    18    76    1
    60    19    20    2
    61    19    21    1
    62    21    22    1
    63    21    77    1
    64    21    78    1
    65    22    23    1
    66    23    24    1
    67    23    79    1
    68    23    80    1
    69    24    25    2
    70    24    26    1
    71    26    27    1
    72    26    35    1
    73    27    28    1
    74    27    81    1
    75    27    82    1
    76    28    29    1
    77    28    83    1
    78    28    84    1
    79    29    30    1
    80    29    85    1
    81    29    86    1
    82    30    31    1
    83    30    87    1
    84    30    88    1
    85    31    32    1
    86    31    89    1
    87    31    90    1
    88    32    33    1
    89    32    91    1
    90    32    92    1
    91    33    34    1
    92    33    93    1
    93    33    94    1
    94    34    95    1
    95    34    96    1
    96    34    97    1
    97    35    36    1
    98    35    98    1
    99    35    99    1
   100    36    37    1
   101    36   100    1
   102    36   101    1
   103    37    38    1
   104    37   102    1
   105    37   103    1
   106    38    39    1
   107    38   104    1
   108    38   105    1
   109    39    40    1
   110    39   106    1
   111    39   107    1
   112    40    41    1
   113    40   108    1
   114    40   109    1
   115    41    42    1
   116    41   110    1
   117    41   111    1
   118    42   112    1
   119    42   113    1
   120    42   114    1
   121   115   116    1
   122   115   156    1
   123   115   157    1
   124   115   158    1
   125   116   117    1
   126   116   159    1
   127   116   160    1
   128   117   118    1
   129   117   161    1
   130   117   162    1
   131   118   119    1
   132   118   163    1
   133   118   164    1
   134   119   120    1
   135   119   165    1
   136   119   166    1
   137   120   121    1
   138   120   167    1
   139   120   168    1
   140   121   122    1
   141   121   169    1
   142   121   170    1
   143   122   123    1
   144   122   171    1
   145   122   172    1
   146   123   124    1
   147   123   132    1
   148   124   125    1
   149   124   173    1
   150   124   174    1
   151   125   126    1
   152   125   175    1
   153   125   176    1
   154   126   127    1
   155   126   177    1
   156   126   178    1
   157   127   128    1
   158   127   179    1
   159   127   180    1
   160   128   129    1
   161   128   181    1
   162   128   182    1
   163   129   130    1
   164   129   183    1
   165   129   184    1
   166   130   131    1
   167   130   185    1
   168   130   186    1
   169   131   187    1
   170   131   188    1
   171   131   189    1
   172   132   133    2
   173   132   134    1
   174   134   135    1
   175   134   190    1
   176   134   191    1
   177   135   136    1
   178   136   137    1
   179   136   192    1
   180   136   193    1
   181   137   138    2
   182   137   139    1
   183   139   140    1
   184   139   148    1
   185   140   141    1
   186   140   194    1
   187   140   195    1
   188   141   142    1
   189   141   196    1
   190   141   197    1
   191   142   143    1
   192   142   198    1
   193   142   199    1
   194   143   144    1
   195   143   200    1
   196   143   201    1
   197   144   145    1
   198   144   202    1
   199   144   203    1
   200   145   146    1
   201   145   204    1
   202   145   205    1
   203   146   147    1
   204   146   206    1
   205   146   207    1
   206   147   208    1
   207   147   209    1
   208   147   210    1
   209   148   149    1
   210   148   211    1
   211   148   212    1
   212   149   150    1
   213   149   213    1
   214   149   214    1
   215   150   151    1
   216   150   215    1
   217   150   216    1
   218   151   152    1
   219   151   217    1
   220   151   218    1
   221   152   153    1
   222   152   219    1
   223   152   220    1
   224   153   154    1
   225   153   221    1
   226   153   222    1
   227   154   155    1
   228   154   223    1
   229   154   224    1
   230   155   225    1
   231   155   226    1
   232   155   227    1
   233   228   229    2
   234   228   230    1
   235   228   231    1
@<TRIPOS>SUBSTRUCTURE
     1 RES1      231 GROUP             0 ****  ****    0  
