@<TRIPOS>MOLECULE
ICIGOT_geomtry_0_nunpairedes_0_charge_2 Charge: 2 Unpaired_Electrons: 3 XTB_Unpaired_Electrons: 0 XTB_Charge: 2
    55    63     1     0     0
SMALL
NoCharges
****
Generated from Architector

@<TRIPOS>ATOM
     1 Er1      -0.2889   -0.1385    0.0785   Er        1 RES1   0.0000
     2 C1       -1.7571    4.7910   -2.2000   C.ar      1 RES1   0.0000
     3 C2       -1.2203    4.2578   -3.3560   C.ar      1 RES1   0.0000
     4 C3       -0.6992    2.9742   -3.3669   C.ar      1 RES1   0.0000
     5 C4       -0.7299    2.2080   -2.2136   C.ar      1 RES1   0.0000
     6 C5       -1.2993    2.7390   -1.0446   C.ar      1 RES1   0.0000
     7 C6       -1.7936    4.0316   -1.0374   C.ar      1 RES1   0.0000
     8 O1       -1.3811    1.8411    0.0345   O.3       1 RES1   0.0000
     9 C7       -1.4494    2.3393    1.3752   C.3       1 RES1   0.0000
    10 C8       -0.0402    2.7725    1.7996   C.3       1 RES1   0.0000
    11 O2        0.8693    1.7147    1.4316   O.3       1 RES1   0.0000
    12 C9        1.6187    1.1509    2.5229   C.3       1 RES1   0.0000
    13 C10       0.8609   -0.0696    3.0547   C.3       1 RES1   0.0000
    14 O3        0.7447   -1.0152    1.9780   O.3       1 RES1   0.0000
    15 C11       1.8549   -1.8574    1.8480   C.ar      1 RES1   0.0000
    16 C12       2.1190   -2.8411    2.7868   C.ar      1 RES1   0.0000
    17 C13       3.2381   -3.6404    2.6276   C.ar      1 RES1   0.0000
    18 C14       4.0846   -3.4269    1.5553   C.ar      1 RES1   0.0000
    19 C15       3.8023   -2.4650    0.5918   C.ar      1 RES1   0.0000
    20 C16       2.6624   -1.6854    0.7243   C.ar      1 RES1   0.0000
    21 O4        2.2074   -0.7181   -0.1970   O.3       1 RES1   0.0000
    22 C17       2.3991   -1.0501   -1.5761   C.3       1 RES1   0.0000
    23 C18       1.4000   -2.1538   -1.9410   C.3       1 RES1   0.0000
    24 O5        0.0595   -1.7330   -1.6316   O.3       1 RES1   0.0000
    25 C19      -0.7080   -1.3342   -2.7866   C.3       1 RES1   0.0000
    26 C20      -0.2879    0.0629   -3.2704   C.3       1 RES1   0.0000
    27 O6       -0.1949    0.9104   -2.1099   O.3       1 RES1   0.0000
    28 H1       -2.1582    5.7904   -2.2043   H         1 RES1   0.0000
    29 H2       -1.2055    4.8522   -4.2560   H         1 RES1   0.0000
    30 H3       -0.2676    2.5855   -4.2774   H         1 RES1   0.0000
    31 H4       -2.2212    4.4495   -0.1438   H         1 RES1   0.0000
    32 H5       -1.7812    1.4791    1.9806   H         1 RES1   0.0000
    33 H6       -2.1790    3.1445    1.4753   H         1 RES1   0.0000
    34 H7        0.0097    2.9751    2.8724   H         1 RES1   0.0000
    35 H8        0.2590    3.6868    1.2693   H         1 RES1   0.0000
    36 H9        1.8053    1.8863    3.3096   H         1 RES1   0.0000
    37 H10       2.5910    0.8548    2.1066   H         1 RES1   0.0000
    38 H11      -0.1670    0.1978    3.3336   H         1 RES1   0.0000
    39 H12       1.3670   -0.5155    3.9141   H         1 RES1   0.0000
    40 H13       1.4318   -2.9680    3.6056   H         1 RES1   0.0000
    41 H14       3.4595   -4.4165    3.3429   H         1 RES1   0.0000
    42 H15       4.9762   -4.0258    1.4644   H         1 RES1   0.0000
    43 H16       4.4722   -2.3391   -0.2404   H         1 RES1   0.0000
    44 H17       3.4163   -1.3823   -1.7939   H         1 RES1   0.0000
    45 H18       2.2125   -0.1164   -2.1181   H         1 RES1   0.0000
    46 H19       1.6073   -3.0458   -1.3316   H         1 RES1   0.0000
    47 H20       1.4803   -2.4268   -2.9940   H         1 RES1   0.0000
    48 H21      -1.7528   -1.3155   -2.4564   H         1 RES1   0.0000
    49 H22      -0.6163   -2.0695   -3.5926   H         1 RES1   0.0000
    50 H23      -1.0317    0.4526   -3.9664   H         1 RES1   0.0000
    51 H24       0.6784    0.0173   -3.7896   H         1 RES1   0.0000
    52 N1       -2.5685   -0.9947    0.5590   N.3       1 RES1   0.0000
    53 O7       -3.5981   -1.5050    0.7970   O.2       1 RES1   0.0000
    54 O8       -2.2464   -0.6027   -0.5823   O.co2     1 RES1   0.0000
    55 O9       -1.6983   -0.7848    1.4407   O.co2     1 RES1   0.0000
@<TRIPOS>BOND
     1     1     8    1
     2     1    11    1
     3     1    14    1
     4     1    21    1
     5     1    24    1
     6     1    27    1
     7     1    54    1
     8     1    55    1
     9     2     3    1
    10     2     7    2
    11     2    28    1
    12     3     4    2
    13     3    29    1
    14     4     5    1
    15     4    30    1
    16     5     6    2
    17     5    27    1
    18     6     7    1
    19     6     8    1
    20     7    31    1
    21     8     9    1
    22     9    10    1
    23     9    32    1
    24     9    33    1
    25    10    11    1
    26    10    34    1
    27    10    35    1
    28    11    12    1
    29    12    13    1
    30    12    36    1
    31    12    37    1
    32    13    14    1
    33    13    38    1
    34    13    39    1
    35    14    15    1
    36    15    16    1
    37    15    20    2
    38    16    17    2
    39    16    40    1
    40    17    18    1
    41    17    41    1
    42    18    19    2
    43    18    42    1
    44    19    20    1
    45    19    43    1
    46    20    21    1
    47    21    22    1
    48    22    23    1
    49    22    44    1
    50    22    45    1
    51    23    24    1
    52    23    46    1
    53    23    47    1
    54    24    25    1
    55    25    26    1
    56    25    48    1
    57    25    49    1
    58    26    27    1
    59    26    50    1
    60    26    51    1
    61    52    53    2
    62    52    54    1
    63    52    55    1
@<TRIPOS>SUBSTRUCTURE
     1 RES1       55 GROUP             0 ****  ****    0  
