@<TRIPOS>MOLECULE
ICIGOT_geomtry_0_nunpairedes_0_charge_3 Charge: 3 Unpaired_Electrons: 3 XTB_Unpaired_Electrons: 0 XTB_Charge: 3
   145   158     1     0     0
SMALL
NoCharges
****
Generated from Architector

@<TRIPOS>ATOM
     1 Er1      -0.1364    0.0923    0.0124   Er        1 RES1   0.0000
     2 C1       -1.2334    5.3499   -2.5243   C.3       1 RES1   0.0000
     3 C2        0.1757    4.9055   -2.9009   C.3       1 RES1   0.0000
     4 N1        0.7465    3.9363   -1.9551   N.am      1 RES1   0.0000
     5 C3        0.2408    2.7279   -1.6836   C.2       1 RES1   0.0000
     6 O1        0.7504    1.9849   -0.8036   O.2       1 RES1   0.0000
     7 C4       -0.9611    2.1311   -2.4011   C.ar      1 RES1   0.0000
     8 C5       -1.4321    2.4294   -3.6806   C.ar      1 RES1   0.0000
     9 C6       -2.4576    1.6621   -4.2083   C.ar      1 RES1   0.0000
    10 C7       -2.9583    0.5845   -3.5016   C.ar      1 RES1   0.0000
    11 C8       -2.4610    0.3472   -2.2203   C.ar      1 RES1   0.0000
    12 C9       -2.9419   -0.8037   -1.4117   C.ar      1 RES1   0.0000
    13 C10      -4.0795   -1.5373   -1.7547   C.ar      1 RES1   0.0000
    14 C11      -4.5139   -2.5200   -0.8830   C.ar      1 RES1   0.0000
    15 C12      -3.7739   -2.8453    0.2459   C.ar      1 RES1   0.0000
    16 C13      -2.5787   -2.1621    0.4581   C.ar      1 RES1   0.0000
    17 C14      -1.6028   -2.3285    1.5990   C.2       1 RES1   0.0000
    18 O2       -0.7805   -1.3885    1.7398   O.2       1 RES1   0.0000
    19 N2       -1.5928   -3.3623    2.4489   N.am      1 RES1   0.0000
    20 C15      -2.0777   -4.7169    2.1864   C.3       1 RES1   0.0000
    21 C16      -1.3530   -5.3519    1.0087   C.3       1 RES1   0.0000
    22 C17      -0.9133   -3.1733    3.6965   C.ar      1 RES1   0.0000
    23 C18       0.0219   -4.1128    4.1247   C.ar      1 RES1   0.0000
    24 C19       0.6222   -4.0002    5.3619   C.ar      1 RES1   0.0000
    25 C20       0.3234   -2.9319    6.1999   C.ar      1 RES1   0.0000
    26 C21       0.9795   -2.7777    7.5316   C.3       1 RES1   0.0000
    27 C22      -0.6246   -2.0137    5.7673   C.ar      1 RES1   0.0000
    28 C23      -1.2725   -2.1167    4.5415   C.ar      1 RES1   0.0000
    29 C24      -2.3560   -1.1274    4.2309   C.3       1 RES1   0.0000
    30 N3       -2.2265   -1.1304   -0.3313   N.ar      1 RES1   0.0000
    31 N4       -1.5083    1.1278   -1.6913   N.ar      1 RES1   0.0000
    32 C25       1.8331    4.4598   -1.1697   C.ar      1 RES1   0.0000
    33 C26       1.7105    5.7764   -0.7116   C.ar      1 RES1   0.0000
    34 C27       2.6986    6.3772    0.0350   C.ar      1 RES1   0.0000
    35 C28       3.8498    5.6773    0.3780   C.ar      1 RES1   0.0000
    36 C29       4.9301    6.3032    1.1954   C.3       1 RES1   0.0000
    37 C30       3.9716    4.3798   -0.0976   C.ar      1 RES1   0.0000
    38 C31       3.0081    3.7573   -0.8885   C.ar      1 RES1   0.0000
    39 C32       3.3586    2.3996   -1.4237   C.3       1 RES1   0.0000
    40 H1       -1.6211    5.9993   -3.3003   H         1 RES1   0.0000
    41 H2       -1.2450    5.9141   -1.5972   H         1 RES1   0.0000
    42 H3       -1.9045    4.5048   -2.4065   H         1 RES1   0.0000
    43 H4        0.8504    5.7637   -2.9257   H         1 RES1   0.0000
    44 H5        0.2155    4.4921   -3.9092   H         1 RES1   0.0000
    45 H6       -1.0081    3.1976   -4.3029   H         1 RES1   0.0000
    46 H7       -2.8291    1.8987   -5.1911   H         1 RES1   0.0000
    47 H8       -3.6683   -0.0692   -3.9784   H         1 RES1   0.0000
    48 H9       -4.6347   -1.3408   -2.6553   H         1 RES1   0.0000
    49 H10      -5.4303   -3.0506   -1.0797   H         1 RES1   0.0000
    50 H11      -4.1446   -3.6073    0.9147   H         1 RES1   0.0000
    51 H12      -3.1540   -4.7149    2.0232   H         1 RES1   0.0000
    52 H13      -1.9107   -5.3003    3.0936   H         1 RES1   0.0000
    53 H14      -1.5427   -4.8020    0.0925   H         1 RES1   0.0000
    54 H15      -1.7073   -6.3676    0.8866   H         1 RES1   0.0000
    55 H16      -0.2798   -5.3933    1.1718   H         1 RES1   0.0000
    56 H17       0.2792   -4.9551    3.5005   H         1 RES1   0.0000
    57 H18       1.3168   -4.7568    5.6916   H         1 RES1   0.0000
    58 H19       1.6720   -3.5935    7.7205   H         1 RES1   0.0000
    59 H20       0.2284   -2.7608    8.3197   H         1 RES1   0.0000
    60 H21       1.5199   -1.8325    7.5781   H         1 RES1   0.0000
    61 H22      -0.8967   -1.2090    6.4355   H         1 RES1   0.0000
    62 H23      -3.0280   -1.0627    5.0853   H         1 RES1   0.0000
    63 H24      -2.9444   -1.3958    3.3564   H         1 RES1   0.0000
    64 H25      -1.9142   -0.1471    4.0481   H         1 RES1   0.0000
    65 H26       0.8316    6.3614   -0.9281   H         1 RES1   0.0000
    66 H27       2.5737    7.4019    0.3498   H         1 RES1   0.0000
    67 H28       4.6735    7.3259    1.4602   H         1 RES1   0.0000
    68 H29       5.8622    6.3059    0.6321   H         1 RES1   0.0000
    69 H30       5.1003    5.7301    2.1066   H         1 RES1   0.0000
    70 H31       4.8800    3.8396    0.1282   H         1 RES1   0.0000
    71 H32       4.3758    2.4330   -1.8115   H         1 RES1   0.0000
    72 H33       2.6958    2.0668   -2.2178   H         1 RES1   0.0000
    73 H34       3.3242    1.6706   -0.6087   H         1 RES1   0.0000
    74 C33       0.4528    3.9745    5.2521   C.3       1 RES1   0.0000
    75 C34      -0.3255    2.7043    4.9204   C.3       1 RES1   0.0000
    76 N5       -0.6713    2.6200    3.5037   N.am      1 RES1   0.0000
    77 C35      -0.1571    1.7942    2.5887   C.2       1 RES1   0.0000
    78 O3       -0.7624    1.5953    1.5042   O.2       1 RES1   0.0000
    79 C36       1.1439    1.0362    2.8057   C.ar      1 RES1   0.0000
    80 C37       2.0878    1.2100    3.8211   C.ar      1 RES1   0.0000
    81 C38       3.1255    0.2947    3.9361   C.ar      1 RES1   0.0000
    82 C39       3.2376   -0.7512    3.0384   C.ar      1 RES1   0.0000
    83 C40       2.3551   -0.7714    1.9584   C.ar      1 RES1   0.0000
    84 C41       2.4503   -1.8069    0.9002   C.ar      1 RES1   0.0000
    85 C42       3.2023   -2.9722    1.0784   C.ar      1 RES1   0.0000
    86 C43       3.1629   -3.9388    0.0908   C.ar      1 RES1   0.0000
    87 C44       2.3950   -3.7357   -1.0489   C.ar      1 RES1   0.0000
    88 C45       1.7062   -2.5331   -1.1803   C.ar      1 RES1   0.0000
    89 C46       0.7438   -2.1393   -2.2757   C.2       1 RES1   0.0000
    90 O4       -0.0001   -1.1643   -2.0049   O.2       1 RES1   0.0000
    91 N6        0.5933   -2.7895   -3.4273   N.am      1 RES1   0.0000
    92 C47       1.5738   -3.6169   -4.1321   C.3       1 RES1   0.0000
    93 C48       2.8996   -2.8873   -4.2791   C.3       1 RES1   0.0000
    94 C49      -0.5831   -2.4603   -4.1954   C.ar      1 RES1   0.0000
    95 C50      -0.4790   -1.6407   -5.3085   C.ar      1 RES1   0.0000
    96 C51      -1.5911   -1.3814   -6.0892   C.ar      1 RES1   0.0000
    97 C52      -2.8262   -1.9324   -5.7694   C.ar      1 RES1   0.0000
    98 C53      -4.0433   -1.6589   -6.5928   C.3       1 RES1   0.0000
    99 C54      -2.9018   -2.7731   -4.6629   C.ar      1 RES1   0.0000
   100 C55      -1.8029   -3.0561   -3.8666   C.ar      1 RES1   0.0000
   101 C56      -1.9161   -4.0329   -2.7351   C.3       1 RES1   0.0000
   102 N7        1.7321   -1.6037   -0.2084   N.ar      1 RES1   0.0000
   103 N8        1.3605    0.1158    1.8535   N.ar      1 RES1   0.0000
   104 C57      -1.7109    3.5393    3.1198   C.ar      1 RES1   0.0000
   105 C58      -2.8877    3.5934    3.8640   C.ar      1 RES1   0.0000
   106 C59      -3.8440    4.5579    3.6247   C.ar      1 RES1   0.0000
   107 C60      -3.6839    5.4824    2.5977   C.ar      1 RES1   0.0000
   108 C61      -4.7060    6.5290    2.3022   C.3       1 RES1   0.0000
   109 C62      -2.5188    5.4050    1.8486   C.ar      1 RES1   0.0000
   110 C63      -1.5170    4.4726    2.0986   C.ar      1 RES1   0.0000
   111 C64      -0.2743    4.5826    1.2739   C.3       1 RES1   0.0000
   112 H35       0.7103    3.9670    6.3058   H         1 RES1   0.0000
   113 H36      -0.1662    4.8477    5.0683   H         1 RES1   0.0000
   114 H37       1.3608    4.0799    4.6637   H         1 RES1   0.0000
   115 H38      -1.2690    2.7383    5.4714   H         1 RES1   0.0000
   116 H39       0.1898    1.7928    5.2218   H         1 RES1   0.0000
   117 H40       2.0635    2.0414    4.5022   H         1 RES1   0.0000
   118 H41       3.8423    0.3987    4.7344   H         1 RES1   0.0000
   119 H42       4.0153   -1.4883    3.1635   H         1 RES1   0.0000
   120 H43       3.7617   -3.1529    1.9826   H         1 RES1   0.0000
   121 H44       3.7066   -4.8604    0.2176   H         1 RES1   0.0000
   122 H45       2.3281   -4.5248   -1.7780   H         1 RES1   0.0000
   123 H46       1.1483   -3.8324   -5.1165   H         1 RES1   0.0000
   124 H47       1.6969   -4.5770   -3.6271   H         1 RES1   0.0000
   125 H48       2.7658   -1.9594   -4.8261   H         1 RES1   0.0000
   126 H49       3.5936   -3.5062   -4.8339   H         1 RES1   0.0000
   127 H50       3.3325   -2.6580   -3.3103   H         1 RES1   0.0000
   128 H51       0.4801   -1.2247   -5.5790   H         1 RES1   0.0000
   129 H52      -1.4866   -0.7684   -6.9703   H         1 RES1   0.0000
   130 H53      -3.8018   -1.0152   -7.4341   H         1 RES1   0.0000
   131 H54      -4.8273   -1.1882   -5.9978   H         1 RES1   0.0000
   132 H55      -4.4521   -2.5945   -6.9707   H         1 RES1   0.0000
   133 H56      -3.8431   -3.2536   -4.4407   H         1 RES1   0.0000
   134 H57      -2.9452   -4.3666   -2.6316   H         1 RES1   0.0000
   135 H58      -1.5885   -3.5804   -1.7978   H         1 RES1   0.0000
   136 H59      -1.2953   -4.9060   -2.9340   H         1 RES1   0.0000
   137 H60      -3.0735    2.8747    4.6474   H         1 RES1   0.0000
   138 H61      -4.7149    4.5998    4.2586   H         1 RES1   0.0000
   139 H62      -5.5326    6.4789    3.0055   H         1 RES1   0.0000
   140 H63      -5.0903    6.3984    1.2906   H         1 RES1   0.0000
   141 H64      -4.2547    7.5193    2.3522   H         1 RES1   0.0000
   142 H65      -2.3705    6.1316    1.0614   H         1 RES1   0.0000
   143 H66       0.0923    5.6059    1.3341   H         1 RES1   0.0000
   144 H67      -0.5332    4.3586    0.2414   H         1 RES1   0.0000
   145 H68       0.5274    3.9134    1.5753   H         1 RES1   0.0000
@<TRIPOS>BOND
     1     1     6    1
     2     1    18    1
     3     1    30    1
     4     1    31    1
     5     1    78    1
     6     1    90    1
     7     1   102    1
     8     1   103    1
     9     2     3    1
    10     2    40    1
    11     2    41    1
    12     2    42    1
    13     3     4    1
    14     3    43    1
    15     3    44    1
    16     4     5    1
    17     4    32    1
    18     5     6    2
    19     5     7    1
    20     7     8    1
    21     7    31    2
    22     8     9    2
    23     8    45    1
    24     9    10    1
    25     9    46    1
    26    10    11    2
    27    10    47    1
    28    11    12    1
    29    11    31    1
    30    12    13    1
    31    12    30    2
    32    13    14    2
    33    13    48    1
    34    14    15    1
    35    14    49    1
    36    15    16    2
    37    15    50    1
    38    16    17    1
    39    16    30    1
    40    17    18    2
    41    17    19    1
    42    19    20    1
    43    19    22    1
    44    20    21    1
    45    20    51    1
    46    20    52    1
    47    21    53    1
    48    21    54    1
    49    21    55    1
    50    22    23    1
    51    22    28    2
    52    23    24    2
    53    23    56    1
    54    24    25    1
    55    24    57    1
    56    25    26    1
    57    25    27    2
    58    26    58    1
    59    26    59    1
    60    26    60    1
    61    27    28    1
    62    27    61    1
    63    28    29    1
    64    29    62    1
    65    29    63    1
    66    29    64    1
    67    32    33    1
    68    32    38    2
    69    33    34    2
    70    33    65    1
    71    34    35    1
    72    34    66    1
    73    35    36    1
    74    35    37    2
    75    36    67    1
    76    36    68    1
    77    36    69    1
    78    37    38    1
    79    37    70    1
    80    38    39    1
    81    39    71    1
    82    39    72    1
    83    39    73    1
    84    74    75    1
    85    74   112    1
    86    74   113    1
    87    74   114    1
    88    75    76    1
    89    75   115    1
    90    75   116    1
    91    76    77    1
    92    76   104    1
    93    77    78    2
    94    77    79    1
    95    79    80    1
    96    79   103    2
    97    80    81    2
    98    80   117    1
    99    81    82    1
   100    81   118    1
   101    82    83    2
   102    82   119    1
   103    83    84    1
   104    83   103    1
   105    84    85    1
   106    84   102    2
   107    85    86    2
   108    85   120    1
   109    86    87    1
   110    86   121    1
   111    87    88    2
   112    87   122    1
   113    88    89    1
   114    88   102    1
   115    89    90    2
   116    89    91    1
   117    91    92    1
   118    91    94    1
   119    92    93    1
   120    92   123    1
   121    92   124    1
   122    93   125    1
   123    93   126    1
   124    93   127    1
   125    94    95    1
   126    94   100    2
   127    95    96    2
   128    95   128    1
   129    96    97    1
   130    96   129    1
   131    97    98    1
   132    97    99    2
   133    98   130    1
   134    98   131    1
   135    98   132    1
   136    99   100    1
   137    99   133    1
   138   100   101    1
   139   101   134    1
   140   101   135    1
   141   101   136    1
   142   104   105    1
   143   104   110    2
   144   105   106    2
   145   105   137    1
   146   106   107    1
   147   106   138    1
   148   107   108    1
   149   107   109    2
   150   108   139    1
   151   108   140    1
   152   108   141    1
   153   109   110    1
   154   109   142    1
   155   110   111    1
   156   111   143    1
   157   111   144    1
   158   111   145    1
@<TRIPOS>SUBSTRUCTURE
     1 RES1      145 GROUP             0 ****  ****    0  
