@<TRIPOS>MOLECULE
YEMSEP_geometry_0_nunpairedes_0_charge_3 Charge: 3 Unpaired_Electrons: 3 XTB_Unpaired_Electrons: 0 XTB_Charge: 3
   269   272     1     0     0
SMALL
NoCharges
****
Generated from Architector

@<TRIPOS>ATOM
     1 Er1       0.1355   -0.1300    0.1658   Er        1 RES1   0.0000
     2 C1        2.2643   -2.8783    4.1277   C.3       1 RES1   0.0000
     3 C2        2.6167   -3.8504    5.2515   C.3       1 RES1   0.0000
     4 C3        1.5497   -4.9099    5.5354   C.3       1 RES1   0.0000
     5 C4        0.1837   -4.3598    5.9614   C.3       1 RES1   0.0000
     6 C5       -0.7831   -3.9872    4.8306   C.3       1 RES1   0.0000
     7 C6       -1.1831   -5.1856    3.9713   C.3       1 RES1   0.0000
     8 C7       -2.5109   -4.9878    3.2408   C.3       1 RES1   0.0000
     9 C8       -2.4918   -3.9732    2.0928   C.3       1 RES1   0.0000
    10 N1       -1.7262   -4.3708    0.9096   N.am      1 RES1   0.0000
    11 C9       -2.0693   -5.6467    0.3092   C.3       1 RES1   0.0000
    12 C10      -0.9363   -3.4631    0.3273   C.2       1 RES1   0.0000
    13 O1       -0.7688   -2.3285    0.8048   O.2       1 RES1   0.0000
    14 C11      -0.2016   -3.8717   -0.9485   C.3       1 RES1   0.0000
    15 C12      -0.4062   -2.7978   -2.0111   C.2       1 RES1   0.0000
    16 O2       -0.2715   -1.5961   -1.7178   O.2       1 RES1   0.0000
    17 N2       -0.7601   -3.2006   -3.2357   N.am      1 RES1   0.0000
    18 C13      -1.3574   -2.2467   -4.1534   C.3       1 RES1   0.0000
    19 C14      -0.5743   -4.5548   -3.7417   C.3       1 RES1   0.0000
    20 C15       0.8975   -5.0053   -3.7388   C.3       1 RES1   0.0000
    21 C16       1.7022   -4.7165   -5.0170   C.3       1 RES1   0.0000
    22 C17       2.5435   -3.4323   -5.0149   C.3       1 RES1   0.0000
    23 C18       1.7601   -2.1414   -5.2540   C.3       1 RES1   0.0000
    24 C19       2.6651   -0.9208   -5.4178   C.3       1 RES1   0.0000
    25 C20       1.9479    0.3204   -5.9519   C.3       1 RES1   0.0000
    26 C21       0.7616    0.7700   -5.1027   C.3       1 RES1   0.0000
    27 H1        3.1615   -2.3983    3.7389   H         1 RES1   0.0000
    28 H2        1.5958   -2.0958    4.4803   H         1 RES1   0.0000
    29 H3        1.7737   -3.4043    3.3126   H         1 RES1   0.0000
    30 H4        2.8186   -3.2891    6.1660   H         1 RES1   0.0000
    31 H5        3.5364   -4.3776    4.9883   H         1 RES1   0.0000
    32 H6        1.9311   -5.5271    6.3516   H         1 RES1   0.0000
    33 H7        1.4408   -5.5618    4.6665   H         1 RES1   0.0000
    34 H8        0.3436   -3.4896    6.6046   H         1 RES1   0.0000
    35 H9       -0.3103   -5.1207    6.5694   H         1 RES1   0.0000
    36 H10      -0.3590   -3.2097    4.1956   H         1 RES1   0.0000
    37 H11      -1.6844   -3.5840    5.2991   H         1 RES1   0.0000
    38 H12      -1.2950   -6.0496    4.6258   H         1 RES1   0.0000
    39 H13      -0.3967   -5.4123    3.2510   H         1 RES1   0.0000
    40 H14      -3.2597   -4.6305    3.9514   H         1 RES1   0.0000
    41 H15      -2.8609   -5.9574    2.8864   H         1 RES1   0.0000
    42 H16      -2.0610   -3.0306    2.4372   H         1 RES1   0.0000
    43 H17      -3.5252   -3.7878    1.7712   H         1 RES1   0.0000
    44 H18      -2.8393   -6.1219    0.9079   H         1 RES1   0.0000
    45 H19      -1.2149   -6.3217    0.2717   H         1 RES1   0.0000
    46 H20      -2.4838   -5.5114   -0.6886   H         1 RES1   0.0000
    47 H21      -0.5042   -4.8502   -1.2938   H         1 RES1   0.0000
    48 H22       0.8567   -3.8969   -0.6990   H         1 RES1   0.0000
    49 H23      -1.2044   -1.2438   -3.7563   H         1 RES1   0.0000
    50 H24      -2.4271   -2.4600   -4.2368   H         1 RES1   0.0000
    51 H25      -0.9181   -2.3216   -5.1466   H         1 RES1   0.0000
    52 H26      -0.9566   -4.5797   -4.7626   H         1 RES1   0.0000
    53 H27      -1.1814   -5.2588   -3.1651   H         1 RES1   0.0000
    54 H28       0.9015   -6.0842   -3.5832   H         1 RES1   0.0000
    55 H29       1.4127   -4.5520   -2.8918   H         1 RES1   0.0000
    56 H30       1.0428   -4.7200   -5.8852   H         1 RES1   0.0000
    57 H31       2.3975   -5.5467   -5.1522   H         1 RES1   0.0000
    58 H32       3.2854   -3.5285   -5.8101   H         1 RES1   0.0000
    59 H33       3.0915   -3.3682   -4.0677   H         1 RES1   0.0000
    60 H34       1.1026   -1.9583   -4.4075   H         1 RES1   0.0000
    61 H35       1.1672   -2.2610   -6.1628   H         1 RES1   0.0000
    62 H36       3.4829   -1.1631   -6.0988   H         1 RES1   0.0000
    63 H37       3.0947   -0.6779   -4.4456   H         1 RES1   0.0000
    64 H38       1.6036    0.1315   -6.9691   H         1 RES1   0.0000
    65 H39       2.6758    1.1322   -6.0044   H         1 RES1   0.0000
    66 H40      -0.0803    0.0974   -5.2356   H         1 RES1   0.0000
    67 H41       0.4390    1.7610   -5.4151   H         1 RES1   0.0000
    68 H42       1.0136    0.8013   -4.0410   H         1 RES1   0.0000
    69 C22       6.4379    3.7944    2.3370   C.3       1 RES1   0.0000
    70 C23       5.7175    2.7343    1.5147   C.3       1 RES1   0.0000
    71 C24       6.6297    1.6121    1.0206   C.3       1 RES1   0.0000
    72 C25       7.6640    2.0398   -0.0251   C.3       1 RES1   0.0000
    73 C26       7.0880    2.6158   -1.3310   C.3       1 RES1   0.0000
    74 C27       7.2862    1.6823   -2.5270   C.3       1 RES1   0.0000
    75 C28       6.5196    0.3573   -2.4306   C.3       1 RES1   0.0000
    76 C29       5.1480    0.3258   -3.1209   C.3       1 RES1   0.0000
    77 N3        4.0224    0.8386   -2.3486   N.am      1 RES1   0.0000
    78 C30       3.6757    2.2288   -2.5637   C.3       1 RES1   0.0000
    79 C31       3.2540    0.1138   -1.5314   C.2       1 RES1   0.0000
    80 O3        2.2594    0.5881   -0.9550   O.2       1 RES1   0.0000
    81 C32       3.7004   -1.3337   -1.3552   C.3       1 RES1   0.0000
    82 C33       2.9686   -2.1253   -0.2818   C.2       1 RES1   0.0000
    83 O4        1.9192   -1.7179    0.2438   O.2       1 RES1   0.0000
    84 N4        3.4811   -3.3313   -0.0033   N.am      1 RES1   0.0000
    85 C34       2.7855   -4.2183    0.9092   C.3       1 RES1   0.0000
    86 C35       4.7852   -3.8384   -0.4163   C.3       1 RES1   0.0000
    87 C36       5.8536   -3.6622    0.6695   C.3       1 RES1   0.0000
    88 C37       6.2182   -2.2072    0.9540   C.3       1 RES1   0.0000
    89 C38       7.1221   -2.0600    2.1820   C.3       1 RES1   0.0000
    90 C39       6.3505   -2.1236    3.4991   C.3       1 RES1   0.0000
    91 C40       7.2322   -1.7097    4.6755   C.3       1 RES1   0.0000
    92 C41       6.4895   -1.6713    6.0121   C.3       1 RES1   0.0000
    93 C42       6.2035   -3.0530    6.5836   C.3       1 RES1   0.0000
    94 H43       5.7290    4.5488    2.6716   H         1 RES1   0.0000
    95 H44       7.1965    4.2891    1.7380   H         1 RES1   0.0000
    96 H45       6.9153    3.3566    3.2109   H         1 RES1   0.0000
    97 H46       5.2425    3.2188    0.6604   H         1 RES1   0.0000
    98 H47       4.9260    2.2824    2.1211   H         1 RES1   0.0000
    99 H48       5.9974    0.8117    0.6224   H         1 RES1   0.0000
   100 H49       7.1694    1.2045    1.8784   H         1 RES1   0.0000
   101 H50       8.2851    1.1738   -0.2648   H         1 RES1   0.0000
   102 H51       8.3228    2.7742    0.4344   H         1 RES1   0.0000
   103 H52       7.5950    3.5540   -1.5617   H         1 RES1   0.0000
   104 H53       6.0300    2.8458   -1.2115   H         1 RES1   0.0000
   105 H54       8.3513    1.4535   -2.5930   H         1 RES1   0.0000
   106 H55       7.0230    2.2015   -3.4516   H         1 RES1   0.0000
   107 H56       6.4267    0.0863   -1.3806   H         1 RES1   0.0000
   108 H57       7.1199   -0.4099   -2.9199   H         1 RES1   0.0000
   109 H58       4.9447   -0.7010   -3.4233   H         1 RES1   0.0000
   110 H59       5.2028    0.9186   -4.0344   H         1 RES1   0.0000
   111 H60       4.4941    2.7357   -3.0610   H         1 RES1   0.0000
   112 H61       3.5010    2.7051   -1.6022   H         1 RES1   0.0000
   113 H62       2.7756    2.3178   -3.1747   H         1 RES1   0.0000
   114 H63       4.7679   -1.3261   -1.1442   H         1 RES1   0.0000
   115 H64       3.5326   -1.8591   -2.3039   H         1 RES1   0.0000
   116 H65       1.8592   -3.7509    1.2354   H         1 RES1   0.0000
   117 H66       3.4026   -4.4201    1.7818   H         1 RES1   0.0000
   118 H67       2.5805   -5.1684    0.4107   H         1 RES1   0.0000
   119 H68       5.1134   -3.3726   -1.3437   H         1 RES1   0.0000
   120 H69       4.6661   -4.9064   -0.6132   H         1 RES1   0.0000
   121 H70       6.7453   -4.1914    0.3347   H         1 RES1   0.0000
   122 H71       5.5241   -4.1393    1.5913   H         1 RES1   0.0000
   123 H72       5.3123   -1.6161    1.1248   H         1 RES1   0.0000
   124 H73       6.7392   -1.8028    0.0825   H         1 RES1   0.0000
   125 H74       7.6310   -1.0961    2.1239   H         1 RES1   0.0000
   126 H75       7.8900   -2.8340    2.1688   H         1 RES1   0.0000
   127 H76       5.9718   -3.1333    3.6632   H         1 RES1   0.0000
   128 H77       5.4916   -1.4471    3.4418   H         1 RES1   0.0000
   129 H78       7.6376   -0.7154    4.4700   H         1 RES1   0.0000
   130 H79       8.0732   -2.4002    4.7507   H         1 RES1   0.0000
   131 H80       5.5507   -1.1226    5.8871   H         1 RES1   0.0000
   132 H81       7.0990   -1.1201    6.7296   H         1 RES1   0.0000
   133 H82       5.5990   -3.6452    5.9034   H         1 RES1   0.0000
   134 H83       5.6676   -2.9663    7.5244   H         1 RES1   0.0000
   135 H84       7.1320   -3.5844    6.7685   H         1 RES1   0.0000
   136 C43      -2.3509    3.9657    2.8712   C.3       1 RES1   0.0000
   137 C44      -1.1684    3.0109    2.9623   C.3       1 RES1   0.0000
   138 C45       0.1819    3.7134    3.0192   C.3       1 RES1   0.0000
   139 C46       1.0093    3.5013    1.7647   C.3       1 RES1   0.0000
   140 C47       2.3126    4.2874    1.8425   C.3       1 RES1   0.0000
   141 C48       2.7982    4.6992    0.4571   C.3       1 RES1   0.0000
   142 C49       1.7199    5.4183   -0.3679   C.3       1 RES1   0.0000
   143 C50       1.0769    4.5362   -1.4646   C.3       1 RES1   0.0000
   144 N5       -0.3563    4.2900   -1.2914   N.am      1 RES1   0.0000
   145 C51      -1.1780    5.4446   -1.6033   C.3       1 RES1   0.0000
   146 C52      -0.7761    3.0743   -0.9361   C.2       1 RES1   0.0000
   147 O5        0.0128    2.1237   -0.7763   O.2       1 RES1   0.0000
   148 C53      -2.2569    2.8134   -0.6310   C.3       1 RES1   0.0000
   149 C54      -2.5991    1.5154   -1.3521   C.2       1 RES1   0.0000
   150 O6       -1.9594    0.4871   -1.0601   O.2       1 RES1   0.0000
   151 N6       -3.5202    1.5380   -2.3161   N.am      1 RES1   0.0000
   152 C55      -3.5973    0.4362   -3.2475   C.3       1 RES1   0.0000
   153 C56      -4.5951    2.5115   -2.4202   C.3       1 RES1   0.0000
   154 C57      -5.6101    2.3620   -1.2689   C.3       1 RES1   0.0000
   155 C58      -6.8180    1.4381   -1.5338   C.3       1 RES1   0.0000
   156 C59      -6.8583    0.1444   -0.7066   C.3       1 RES1   0.0000
   157 C60      -5.8681   -0.9266   -1.1646   C.3       1 RES1   0.0000
   158 C61      -5.9616   -2.2331   -0.3710   C.3       1 RES1   0.0000
   159 C62      -5.3303   -3.4185   -1.1082   C.3       1 RES1   0.0000
   160 C63      -3.9177   -3.1504   -1.6173   C.3       1 RES1   0.0000
   161 H85      -3.2626    3.4126    2.6565   H         1 RES1   0.0000
   162 H86      -2.2278    4.7148    2.0886   H         1 RES1   0.0000
   163 H87      -2.4818    4.4905    3.8151   H         1 RES1   0.0000
   164 H88      -1.1661    2.3399    2.0999   H         1 RES1   0.0000
   165 H89      -1.3270    2.3973    3.8463   H         1 RES1   0.0000
   166 H90       0.7755    3.3724    3.8578   H         1 RES1   0.0000
   167 H91       0.0105    4.7820    3.1347   H         1 RES1   0.0000
   168 H92       0.4401    3.8863    0.9313   H         1 RES1   0.0000
   169 H93       1.2118    2.4335    1.5720   H         1 RES1   0.0000
   170 H94       3.0835    3.7058    2.3456   H         1 RES1   0.0000
   171 H95       2.1448    5.1824    2.4416   H         1 RES1   0.0000
   172 H96       3.1117    3.8053   -0.0742   H         1 RES1   0.0000
   173 H97       3.6700    5.3442    0.5627   H         1 RES1   0.0000
   174 H98       2.1697    6.2881   -0.8461   H         1 RES1   0.0000
   175 H99       0.9565    5.8012    0.3130   H         1 RES1   0.0000
   176 H100      1.5510    3.5595   -1.4924   H         1 RES1   0.0000
   177 H101      1.2093    5.0099   -2.4386   H         1 RES1   0.0000
   178 H102     -0.6122    6.3402   -1.3530   H         1 RES1   0.0000
   179 H103     -2.1050    5.4710   -1.0399   H         1 RES1   0.0000
   180 H104     -1.4090    5.4872   -2.6709   H         1 RES1   0.0000
   181 H105     -2.9129    3.6445   -0.8509   H         1 RES1   0.0000
   182 H106     -2.2726    2.6044    0.4420   H         1 RES1   0.0000
   183 H107     -2.9493   -0.3616   -2.9031   H         1 RES1   0.0000
   184 H108     -3.2689    0.7843   -4.2271   H         1 RES1   0.0000
   185 H109     -4.6169    0.0751   -3.3261   H         1 RES1   0.0000
   186 H110     -5.0858    2.3521   -3.3806   H         1 RES1   0.0000
   187 H111     -4.1901    3.5245   -2.4444   H         1 RES1   0.0000
   188 H112     -5.9868    3.3581   -1.0386   H         1 RES1   0.0000
   189 H113     -5.0707    2.0092   -0.3874   H         1 RES1   0.0000
   190 H114     -6.8906    1.1875   -2.5936   H         1 RES1   0.0000
   191 H115     -7.7216    1.9972   -1.2887   H         1 RES1   0.0000
   192 H116     -7.8648   -0.2691   -0.7922   H         1 RES1   0.0000
   193 H117     -6.6977    0.3836    0.3472   H         1 RES1   0.0000
   194 H118     -4.8501   -0.5428   -1.0852   H         1 RES1   0.0000
   195 H119     -6.0844   -1.1555   -2.2105   H         1 RES1   0.0000
   196 H120     -7.0099   -2.4715   -0.1850   H         1 RES1   0.0000
   197 H121     -5.4771   -2.1069    0.5997   H         1 RES1   0.0000
   198 H122     -5.9571   -3.6829   -1.9604   H         1 RES1   0.0000
   199 H123     -5.3209   -4.2801   -0.4377   H         1 RES1   0.0000
   200 H124     -3.9370   -2.4090   -2.4087   H         1 RES1   0.0000
   201 H125     -3.4975   -4.0636   -2.0335   H         1 RES1   0.0000
   202 H126     -3.2658   -2.7828   -0.8263   H         1 RES1   0.0000
   203 C64      -0.7853    7.8944    3.2297   C.3       1 RES1   0.0000
   204 C65      -0.7341    7.3722    4.6620   C.3       1 RES1   0.0000
   205 C66       0.6274    6.7752    5.0576   C.3       1 RES1   0.0000
   206 C67       0.4644    5.5525    5.9736   C.3       1 RES1   0.0000
   207 C68       1.7610    4.7495    6.0802   C.3       1 RES1   0.0000
   208 C69       1.6994    3.4322    6.8693   C.3       1 RES1   0.0000
   209 C70       0.5963    2.4265    6.4669   C.3       1 RES1   0.0000
   210 C71       1.0553    0.9981    6.0903   C.3       1 RES1   0.0000
   211 N7        1.3571    0.7856    4.6729   N.am      1 RES1   0.0000
   212 C72       2.7385    1.0389    4.2965   C.3       1 RES1   0.0000
   213 C73       0.5318    0.3244    3.7274   C.2       1 RES1   0.0000
   214 O7        0.9113    0.1708    2.5479   O.2       1 RES1   0.0000
   215 C74      -0.8856   -0.0859    4.1276   C.3       1 RES1   0.0000
   216 C75      -1.8990    0.0594    2.9927   C.2       1 RES1   0.0000
   217 O8       -1.5440    0.1044    1.7990   O.2       1 RES1   0.0000
   218 N8       -3.2040    0.0688    3.2891   N.am      1 RES1   0.0000
   219 C76      -4.1144   -0.1521    2.1719   C.3       1 RES1   0.0000
   220 C77      -3.8202    0.3502    4.5874   C.3       1 RES1   0.0000
   221 C78      -5.0271    1.3041    4.4683   C.3       1 RES1   0.0000
   222 C79      -5.0592    2.4228    5.5149   C.3       1 RES1   0.0000
   223 C80      -6.1858    3.4276    5.2337   C.3       1 RES1   0.0000
   224 C81      -5.9824    4.1549    3.8970   C.3       1 RES1   0.0000
   225 C82      -6.1688    5.6711    3.9546   C.3       1 RES1   0.0000
   226 C83      -5.5172    6.3523    2.7483   C.3       1 RES1   0.0000
   227 C84      -6.1295    5.9556    1.4084   C.3       1 RES1   0.0000
   228 H127     -0.6843    7.0941    2.4906   H         1 RES1   0.0000
   229 H128      0.0198    8.6061    3.0616   H         1 RES1   0.0000
   230 H129     -1.7295    8.3998    3.0504   H         1 RES1   0.0000
   231 H130     -1.4989    6.6046    4.7830   H         1 RES1   0.0000
   232 H131     -0.9868    8.1879    5.3351   H         1 RES1   0.0000
   233 H132      1.2405    7.5312    5.5474   H         1 RES1   0.0000
   234 H133      1.1781    6.4691    4.1642   H         1 RES1   0.0000
   235 H134     -0.3347    4.9256    5.5615   H         1 RES1   0.0000
   236 H135      0.1404    5.8804    6.9656   H         1 RES1   0.0000
   237 H136      2.4936    5.3890    6.5737   H         1 RES1   0.0000
   238 H137      2.1257    4.5571    5.0682   H         1 RES1   0.0000
   239 H138      1.5742    3.6856    7.9221   H         1 RES1   0.0000
   240 H139      2.6790    2.9622    6.7830   H         1 RES1   0.0000
   241 H140      0.0032    2.8285    5.6467   H         1 RES1   0.0000
   242 H141     -0.0677    2.3292    7.3269   H         1 RES1   0.0000
   243 H142      0.2815    0.3013    6.4121   H         1 RES1   0.0000
   244 H143      1.9525    0.7546    6.6630   H         1 RES1   0.0000
   245 H144      2.9768    2.0995    4.3818   H         1 RES1   0.0000
   246 H145      2.8907    0.7118    3.2686   H         1 RES1   0.0000
   247 H146      3.4049    0.4753    4.9532   H         1 RES1   0.0000
   248 H147     -1.2202    0.4334    5.0184   H         1 RES1   0.0000
   249 H148     -0.8641   -1.1581    4.3627   H         1 RES1   0.0000
   250 H149     -3.6332   -0.8144    1.4499   H         1 RES1   0.0000
   251 H150     -4.3576    0.7788    1.6548   H         1 RES1   0.0000
   252 H151     -5.0276   -0.6115    2.5457   H         1 RES1   0.0000
   253 H152     -3.0790    0.8071    5.2420   H         1 RES1   0.0000
   254 H153     -4.1333   -0.5920    5.0457   H         1 RES1   0.0000
   255 H154     -5.9566    0.7430    4.5459   H         1 RES1   0.0000
   256 H155     -5.0145    1.7829    3.4937   H         1 RES1   0.0000
   257 H156     -4.1111    2.9661    5.5037   H         1 RES1   0.0000
   258 H157     -5.1854    1.9959    6.5105   H         1 RES1   0.0000
   259 H158     -6.1972    4.1504    6.0492   H         1 RES1   0.0000
   260 H159     -7.1456    2.9116    5.2498   H         1 RES1   0.0000
   261 H160     -6.6496    3.7331    3.1444   H         1 RES1   0.0000
   262 H161     -4.9556    3.9885    3.5723   H         1 RES1   0.0000
   263 H162     -5.6924    6.0629    4.8562   H         1 RES1   0.0000
   264 H163     -7.2271    5.9255    4.0048   H         1 RES1   0.0000
   265 H164     -4.4505    6.1046    2.7427   H         1 RES1   0.0000
   266 H165     -5.6016    7.4338    2.8603   H         1 RES1   0.0000
   267 H166     -6.0407    4.8845    1.2319   H         1 RES1   0.0000
   268 H167     -5.6225    6.4790    0.5994   H         1 RES1   0.0000
   269 H168     -7.1821    6.2239    1.3771   H         1 RES1   0.0000
@<TRIPOS>BOND
     1     1    13    1
     2     1    16    1
     3     1    80    1
     4     1    83    1
     5     1   147    1
     6     1   150    1
     7     1   214    1
     8     1   217    1
     9     2     3    1
    10     2    27    1
    11     2    28    1
    12     2    29    1
    13     3     4    1
    14     3    30    1
    15     3    31    1
    16     4     5    1
    17     4    32    1
    18     4    33    1
    19     5     6    1
    20     5    34    1
    21     5    35    1
    22     6     7    1
    23     6    36    1
    24     6    37    1
    25     7     8    1
    26     7    38    1
    27     7    39    1
    28     8     9    1
    29     8    40    1
    30     8    41    1
    31     9    10    1
    32     9    42    1
    33     9    43    1
    34    10    11    1
    35    10    12    1
    36    11    44    1
    37    11    45    1
    38    11    46    1
    39    12    13    2
    40    12    14    1
    41    14    15    1
    42    14    47    1
    43    14    48    1
    44    15    16    2
    45    15    17    1
    46    17    18    1
    47    17    19    1
    48    18    49    1
    49    18    50    1
    50    18    51    1
    51    19    20    1
    52    19    52    1
    53    19    53    1
    54    20    21    1
    55    20    54    1
    56    20    55    1
    57    21    22    1
    58    21    56    1
    59    21    57    1
    60    22    23    1
    61    22    58    1
    62    22    59    1
    63    23    24    1
    64    23    60    1
    65    23    61    1
    66    24    25    1
    67    24    62    1
    68    24    63    1
    69    25    26    1
    70    25    64    1
    71    25    65    1
    72    26    66    1
    73    26    67    1
    74    26    68    1
    75    69    70    1
    76    69    94    1
    77    69    95    1
    78    69    96    1
    79    70    71    1
    80    70    97    1
    81    70    98    1
    82    71    72    1
    83    71    99    1
    84    71   100    1
    85    72    73    1
    86    72   101    1
    87    72   102    1
    88    73    74    1
    89    73   103    1
    90    73   104    1
    91    74    75    1
    92    74   105    1
    93    74   106    1
    94    75    76    1
    95    75   107    1
    96    75   108    1
    97    76    77    1
    98    76   109    1
    99    76   110    1
   100    77    78    1
   101    77    79    1
   102    78   111    1
   103    78   112    1
   104    78   113    1
   105    79    80    2
   106    79    81    1
   107    81    82    1
   108    81   114    1
   109    81   115    1
   110    82    83    2
   111    82    84    1
   112    84    85    1
   113    84    86    1
   114    85   116    1
   115    85   117    1
   116    85   118    1
   117    86    87    1
   118    86   119    1
   119    86   120    1
   120    87    88    1
   121    87   121    1
   122    87   122    1
   123    88    89    1
   124    88   123    1
   125    88   124    1
   126    89    90    1
   127    89   125    1
   128    89   126    1
   129    90    91    1
   130    90   127    1
   131    90   128    1
   132    91    92    1
   133    91   129    1
   134    91   130    1
   135    92    93    1
   136    92   131    1
   137    92   132    1
   138    93   133    1
   139    93   134    1
   140    93   135    1
   141   136   137    1
   142   136   161    1
   143   136   162    1
   144   136   163    1
   145   137   138    1
   146   137   164    1
   147   137   165    1
   148   138   139    1
   149   138   166    1
   150   138   167    1
   151   139   140    1
   152   139   168    1
   153   139   169    1
   154   140   141    1
   155   140   170    1
   156   140   171    1
   157   141   142    1
   158   141   172    1
   159   141   173    1
   160   142   143    1
   161   142   174    1
   162   142   175    1
   163   143   144    1
   164   143   176    1
   165   143   177    1
   166   144   145    1
   167   144   146    1
   168   145   178    1
   169   145   179    1
   170   145   180    1
   171   146   147    2
   172   146   148    1
   173   148   149    1
   174   148   181    1
   175   148   182    1
   176   149   150    2
   177   149   151    1
   178   151   152    1
   179   151   153    1
   180   152   183    1
   181   152   184    1
   182   152   185    1
   183   153   154    1
   184   153   186    1
   185   153   187    1
   186   154   155    1
   187   154   188    1
   188   154   189    1
   189   155   156    1
   190   155   190    1
   191   155   191    1
   192   156   157    1
   193   156   192    1
   194   156   193    1
   195   157   158    1
   196   157   194    1
   197   157   195    1
   198   158   159    1
   199   158   196    1
   200   158   197    1
   201   159   160    1
   202   159   198    1
   203   159   199    1
   204   160   200    1
   205   160   201    1
   206   160   202    1
   207   203   204    1
   208   203   228    1
   209   203   229    1
   210   203   230    1
   211   204   205    1
   212   204   231    1
   213   204   232    1
   214   205   206    1
   215   205   233    1
   216   205   234    1
   217   206   207    1
   218   206   235    1
   219   206   236    1
   220   207   208    1
   221   207   237    1
   222   207   238    1
   223   208   209    1
   224   208   239    1
   225   208   240    1
   226   209   210    1
   227   209   241    1
   228   209   242    1
   229   210   211    1
   230   210   243    1
   231   210   244    1
   232   211   212    1
   233   211   213    1
   234   212   245    1
   235   212   246    1
   236   212   247    1
   237   213   214    2
   238   213   215    1
   239   215   216    1
   240   215   248    1
   241   215   249    1
   242   216   217    2
   243   216   218    1
   244   218   219    1
   245   218   220    1
   246   219   250    1
   247   219   251    1
   248   219   252    1
   249   220   221    1
   250   220   253    1
   251   220   254    1
   252   221   222    1
   253   221   255    1
   254   221   256    1
   255   222   223    1
   256   222   257    1
   257   222   258    1
   258   223   224    1
   259   223   259    1
   260   223   260    1
   261   224   225    1
   262   224   261    1
   263   224   262    1
   264   225   226    1
   265   225   263    1
   266   225   264    1
   267   226   227    1
   268   226   265    1
   269   226   266    1
   270   227   267    1
   271   227   268    1
   272   227   269    1
@<TRIPOS>SUBSTRUCTURE
     1 RES1      269 GROUP             0 ****  ****    0  
