@<TRIPOS>MOLECULE
ICIGOT_geomtry_0_nunpairedes_0_charge_3 Charge: 3 Unpaired_Electrons: 3 XTB_Unpaired_Electrons: 0 XTB_Charge: 3
   437   440     1     0     0
SMALL
NoCharges
****
Generated from Architector

@<TRIPOS>ATOM
     1 Er1      -0.4713    0.0711    0.3110   Er        1 RES1   0.0000
     2 C1       -6.5903    7.1741    0.0844   C.3       1 RES1   0.0000
     3 C2       -6.5782    6.8265   -1.4019   C.3       1 RES1   0.0000
     4 C3       -5.2189    7.0915   -2.0550   C.3       1 RES1   0.0000
     5 C4       -5.1874    6.7952   -3.5589   C.3       1 RES1   0.0000
     6 C5       -5.1932    5.3086   -3.9185   C.3       1 RES1   0.0000
     7 C6       -3.8611    4.6071   -3.6441   C.3       1 RES1   0.0000
     8 C7       -3.9703    3.1127   -3.9355   C.3       1 RES1   0.0000
     9 C8       -2.6122    2.4060   -3.8668   C.3       1 RES1   0.0000
    10 N1       -2.7564    0.9558   -3.8248   N.am      1 RES1   0.0000
    11 C9       -3.3382    0.2843   -4.9856   C.3       1 RES1   0.0000
    12 C10      -3.3119    1.0310   -6.3222   C.3       1 RES1   0.0000
    13 C11      -3.5629    0.0412   -7.4647   C.3       1 RES1   0.0000
    14 C12      -3.8993    0.7401   -8.7909   C.3       1 RES1   0.0000
    15 C13      -5.0880    0.0912   -9.5055   C.3       1 RES1   0.0000
    16 C14      -4.8137   -1.3335   -9.9864   C.3       1 RES1   0.0000
    17 C15      -3.8591   -1.3747  -11.1786   C.3       1 RES1   0.0000
    18 C16      -3.5239   -2.8111  -11.5565   C.3       1 RES1   0.0000
    19 C17      -2.4435    0.2697   -2.7160   C.2       1 RES1   0.0000
    20 O1       -1.8962    0.7889   -1.7308   O.2       1 RES1   0.0000
    21 C18      -2.8337   -1.2192   -2.7452   C.3       1 RES1   0.0000
    22 C19      -2.7365   -1.9574   -1.4193   C.2       1 RES1   0.0000
    23 O2       -2.0371   -1.5329   -0.4774   O.2       1 RES1   0.0000
    24 N2       -3.4218   -3.1052   -1.3141   N.am      1 RES1   0.0000
    25 C20      -3.9590   -3.8475   -2.4496   C.3       1 RES1   0.0000
    26 C21      -3.7260   -5.3664   -2.3687   C.3       1 RES1   0.0000
    27 C22      -2.2470   -5.7840   -2.2771   C.3       1 RES1   0.0000
    28 C23      -1.8443   -6.4460   -0.9533   C.3       1 RES1   0.0000
    29 C24      -0.5296   -7.2155   -1.0999   C.3       1 RES1   0.0000
    30 C25       0.0019   -7.8385    0.1940   C.3       1 RES1   0.0000
    31 C26       0.3731   -6.8247    1.2898   C.3       1 RES1   0.0000
    32 C27      -0.6050   -6.8461    2.4582   C.3       1 RES1   0.0000
    33 C28      -3.8031   -3.5533    0.0203   C.3       1 RES1   0.0000
    34 C29      -5.2124   -3.0774    0.3959   C.3       1 RES1   0.0000
    35 C30      -6.3737   -3.9871   -0.0428   C.3       1 RES1   0.0000
    36 C31      -7.4311   -3.2753   -0.8917   C.3       1 RES1   0.0000
    37 C32      -8.5908   -4.2028   -1.2634   C.3       1 RES1   0.0000
    38 C33      -8.1428   -5.4098   -2.0891   C.3       1 RES1   0.0000
    39 C34      -9.3038   -6.1449   -2.7589   C.3       1 RES1   0.0000
    40 C35     -10.2776   -6.7389   -1.7501   C.3       1 RES1   0.0000
    41 H1       -7.5825    7.0136    0.4971   H         1 RES1   0.0000
    42 H2       -6.3313    8.2172    0.2451   H         1 RES1   0.0000
    43 H3       -5.8854    6.5602    0.6432   H         1 RES1   0.0000
    44 H4       -7.3387    7.4242   -1.9093   H         1 RES1   0.0000
    45 H5       -6.8528    5.7769   -1.5223   H         1 RES1   0.0000
    46 H6       -4.4439    6.5085   -1.5451   H         1 RES1   0.0000
    47 H7       -4.9805    8.1485   -1.9214   H         1 RES1   0.0000
    48 H8       -4.2947    7.2490   -3.9949   H         1 RES1   0.0000
    49 H9       -6.0513    7.2670   -4.0284   H         1 RES1   0.0000
    50 H10      -5.4072    5.2092   -4.9843   H         1 RES1   0.0000
    51 H11      -5.9948    4.7984   -3.3827   H         1 RES1   0.0000
    52 H12      -3.0940    5.0554   -4.2783   H         1 RES1   0.0000
    53 H13      -3.5574    4.7526   -2.6088   H         1 RES1   0.0000
    54 H14      -4.4077    3.0030   -4.9259   H         1 RES1   0.0000
    55 H15      -4.6624    2.6543   -3.2272   H         1 RES1   0.0000
    56 H16      -2.0744    2.7092   -2.9665   H         1 RES1   0.0000
    57 H17      -2.0107    2.6950   -4.7298   H         1 RES1   0.0000
    58 H18      -4.3791    0.0107   -4.7719   H         1 RES1   0.0000
    59 H19      -2.7714   -0.6327   -5.1512   H         1 RES1   0.0000
    60 H20      -2.3480    1.5157   -6.4729   H         1 RES1   0.0000
    61 H21      -4.0916    1.7901   -6.3566   H         1 RES1   0.0000
    62 H22      -4.3950   -0.6065   -7.1778   H         1 RES1   0.0000
    63 H23      -2.6801   -0.5899   -7.5806   H         1 RES1   0.0000
    64 H24      -3.0332    0.7297   -9.4520   H         1 RES1   0.0000
    65 H25      -4.1449    1.7867   -8.6040   H         1 RES1   0.0000
    66 H26      -5.3380    0.6952  -10.3783   H         1 RES1   0.0000
    67 H27      -5.9571    0.0867   -8.8407   H         1 RES1   0.0000
    68 H28      -5.7576   -1.7935  -10.2878   H         1 RES1   0.0000
    69 H29      -4.3977   -1.9391   -9.1761   H         1 RES1   0.0000
    70 H30      -2.9363   -0.8391  -10.9408   H         1 RES1   0.0000
    71 H31      -4.3229   -0.8719  -12.0303   H         1 RES1   0.0000
    72 H32      -3.0382   -3.3181  -10.7240   H         1 RES1   0.0000
    73 H33      -2.8601   -2.8422  -12.4157   H         1 RES1   0.0000
    74 H34      -4.4334   -3.3519  -11.8024   H         1 RES1   0.0000
    75 H35      -2.1869   -1.7240   -3.4658   H         1 RES1   0.0000
    76 H36      -3.8660   -1.3083   -3.0897   H         1 RES1   0.0000
    77 H37      -3.4684   -3.5029   -3.3612   H         1 RES1   0.0000
    78 H38      -5.0348   -3.6615   -2.5491   H         1 RES1   0.0000
    79 H39      -4.1646   -5.7830   -3.2779   H         1 RES1   0.0000
    80 H40      -4.2819   -5.8050   -1.5425   H         1 RES1   0.0000
    81 H41      -1.6136   -4.9092   -2.4460   H         1 RES1   0.0000
    82 H42      -2.0345   -6.4943   -3.0766   H         1 RES1   0.0000
    83 H43      -2.6229   -7.1436   -0.6417   H         1 RES1   0.0000
    84 H44      -1.7368   -5.6901   -0.1737   H         1 RES1   0.0000
    85 H45       0.2398   -6.5495   -1.5055   H         1 RES1   0.0000
    86 H46      -0.6787   -8.0212   -1.8225   H         1 RES1   0.0000
    87 H47       0.8848   -8.4240   -0.0696   H         1 RES1   0.0000
    88 H48      -0.7378   -8.5380    0.5839   H         1 RES1   0.0000
    89 H49       0.4158   -5.8180    0.8649   H         1 RES1   0.0000
    90 H50       1.3674   -7.0577    1.6738   H         1 RES1   0.0000
    91 H51      -1.6211   -6.6487    2.1246   H         1 RES1   0.0000
    92 H52      -0.3285   -6.1053    3.2057   H         1 RES1   0.0000
    93 H53      -0.5887   -7.8197    2.9379   H         1 RES1   0.0000
    94 H54      -3.0833   -3.1110    0.7070   H         1 RES1   0.0000
    95 H55      -3.7435   -4.6363    0.0736   H         1 RES1   0.0000
    96 H56      -5.3584   -2.0711    0.0015   H         1 RES1   0.0000
    97 H57      -5.2292   -2.9850    1.4777   H         1 RES1   0.0000
    98 H58      -6.8793   -4.3708    0.8428   H         1 RES1   0.0000
    99 H59      -6.0001   -4.8509   -0.5881   H         1 RES1   0.0000
   100 H60      -6.9855   -2.8795   -1.8104   H         1 RES1   0.0000
   101 H61      -7.8279   -2.4292   -0.3255   H         1 RES1   0.0000
   102 H62      -9.3267   -3.6316   -1.8331   H         1 RES1   0.0000
   103 H63      -9.0797   -4.5418   -0.3501   H         1 RES1   0.0000
   104 H64      -7.6162   -6.1207   -1.4487   H         1 RES1   0.0000
   105 H65      -7.4437   -5.0751   -2.8621   H         1 RES1   0.0000
   106 H66      -8.8918   -6.9497   -3.3734   H         1 RES1   0.0000
   107 H67      -9.8365   -5.4606   -3.4224   H         1 RES1   0.0000
   108 H68      -9.7361   -7.3131   -1.0028   H         1 RES1   0.0000
   109 H69     -10.9821   -7.3963   -2.2497   H         1 RES1   0.0000
   110 H70     -10.8436   -5.9620   -1.2453   H         1 RES1   0.0000
   111 C36       4.5250   -2.7022    9.5049   C.3       1 RES1   0.0000
   112 C37       4.3722   -2.5704    7.9974   C.3       1 RES1   0.0000
   113 C38       5.1926   -1.4011    7.4371   C.3       1 RES1   0.0000
   114 C39       5.0357   -1.3488    5.9133   C.3       1 RES1   0.0000
   115 C40       5.5981   -0.1443    5.1297   C.3       1 RES1   0.0000
   116 C41       4.6432    1.0614    4.9749   C.3       1 RES1   0.0000
   117 C42       4.2375    1.4550    3.5352   C.3       1 RES1   0.0000
   118 C43       3.0461    2.4200    3.6537   C.3       1 RES1   0.0000
   119 N3        2.6455    3.2485    2.5127   N.am      1 RES1   0.0000
   120 C44       2.9459    4.6630    2.7307   C.3       1 RES1   0.0000
   121 C45       2.0281    5.3820    3.7489   C.3       1 RES1   0.0000
   122 C46       0.7289    5.9404    3.1644   C.3       1 RES1   0.0000
   123 C47       0.1413    7.0894    3.9943   C.3       1 RES1   0.0000
   124 C48      -0.4144    6.7173    5.3786   C.3       1 RES1   0.0000
   125 C49      -1.9333    6.5198    5.4097   C.3       1 RES1   0.0000
   126 C50      -2.7267    7.8286    5.2537   C.3       1 RES1   0.0000
   127 C51      -3.7908    7.7383    4.1631   C.3       1 RES1   0.0000
   128 C52       1.8936    2.7035    1.5427   C.2       1 RES1   0.0000
   129 O3        1.6428    1.4873    1.4882   O.2       1 RES1   0.0000
   130 C53       1.3476    3.5982    0.4226   C.3       1 RES1   0.0000
   131 C54      -0.1531    3.3898    0.2535   C.2       1 RES1   0.0000
   132 O4       -0.6435    2.2472    0.4086   O.2       1 RES1   0.0000
   133 N4       -0.9117    4.4390   -0.0447   N.am      1 RES1   0.0000
   134 C55      -0.3400    5.7435   -0.3573   C.3       1 RES1   0.0000
   135 C56       0.4020    5.7753   -1.7018   C.3       1 RES1   0.0000
   136 C57      -0.4701    6.2020   -2.8873   C.3       1 RES1   0.0000
   137 C58       0.3278    6.9491   -3.9606   C.3       1 RES1   0.0000
   138 C59       1.5671    6.2183   -4.4994   C.3       1 RES1   0.0000
   139 C60       1.3642    5.5037   -5.8341   C.3       1 RES1   0.0000
   140 C61       0.3825    4.3364   -5.7674   C.3       1 RES1   0.0000
   141 C62       0.5356    3.4224   -6.9755   C.3       1 RES1   0.0000
   142 C63      -2.3636    4.4250    0.1679   C.3       1 RES1   0.0000
   143 C64      -3.1717    3.1713   -0.1668   C.3       1 RES1   0.0000
   144 C65      -4.6715    3.5282   -0.1443   C.3       1 RES1   0.0000
   145 C66      -5.5143    2.6193    0.7467   C.3       1 RES1   0.0000
   146 C67      -5.5606    1.1741    0.2328   C.3       1 RES1   0.0000
   147 C68      -6.5740    0.9823   -0.9102   C.3       1 RES1   0.0000
   148 C69      -6.0226    0.1879   -2.0886   C.3       1 RES1   0.0000
   149 C70      -7.0267    0.1331   -3.2319   C.3       1 RES1   0.0000
   150 H71       3.8741   -3.4803    9.9001   H         1 RES1   0.0000
   151 H72       4.2719   -1.7659    9.9960   H         1 RES1   0.0000
   152 H73       5.5539   -2.9503    9.7516   H         1 RES1   0.0000
   153 H74       3.3127   -2.4238    7.7529   H         1 RES1   0.0000
   154 H75       4.6915   -3.5037    7.5236   H         1 RES1   0.0000
   155 H76       6.2405   -1.5427    7.7075   H         1 RES1   0.0000
   156 H77       4.8455   -0.4822    7.9095   H         1 RES1   0.0000
   157 H78       3.9706   -1.4439    5.7093   H         1 RES1   0.0000
   158 H79       5.5179   -2.2475    5.5235   H         1 RES1   0.0000
   159 H80       5.8714   -0.5019    4.1341   H         1 RES1   0.0000
   160 H81       6.5182    0.1777    5.6141   H         1 RES1   0.0000
   161 H82       5.0971    1.9401    5.4302   H         1 RES1   0.0000
   162 H83       3.7365    0.8574    5.5377   H         1 RES1   0.0000
   163 H84       3.9227    0.5899    2.9504   H         1 RES1   0.0000
   164 H85       5.0837    1.9238    3.0300   H         1 RES1   0.0000
   165 H86       3.2759    3.0944    4.4788   H         1 RES1   0.0000
   166 H87       2.1723    1.8268    3.9125   H         1 RES1   0.0000
   167 H88       2.9495    5.2229    1.7957   H         1 RES1   0.0000
   168 H89       3.9721    4.6941    3.1120   H         1 RES1   0.0000
   169 H90       2.5960    6.2282    4.1408   H         1 RES1   0.0000
   170 H91       1.7988    4.7268    4.5890   H         1 RES1   0.0000
   171 H92      -0.0084    5.1480    3.0217   H         1 RES1   0.0000
   172 H93       0.9679    6.3614    2.1849   H         1 RES1   0.0000
   173 H94      -0.6471    7.5649    3.4083   H         1 RES1   0.0000
   174 H95       0.9363    7.8260    4.1175   H         1 RES1   0.0000
   175 H96      -0.1689    7.5165    6.0791   H         1 RES1   0.0000
   176 H97       0.0764    5.8136    5.7466   H         1 RES1   0.0000
   177 H98      -2.1989    6.0466    6.3564   H         1 RES1   0.0000
   178 H99      -2.2227    5.8317    4.6159   H         1 RES1   0.0000
   179 H100     -2.0444    8.6480    5.0193   H         1 RES1   0.0000
   180 H101     -3.2250    8.0793    6.1919   H         1 RES1   0.0000
   181 H102     -3.3389    7.5137    3.1963   H         1 RES1   0.0000
   182 H103     -4.3292    8.6799    4.0742   H         1 RES1   0.0000
   183 H104     -4.5154    6.9582    4.3953   H         1 RES1   0.0000
   184 H105      1.8220    3.2664   -0.5015   H         1 RES1   0.0000
   185 H106      1.5752    4.6429    0.5763   H         1 RES1   0.0000
   186 H107      0.3273    6.0561    0.4482   H         1 RES1   0.0000
   187 H108     -1.1463    6.4753   -0.3710   H         1 RES1   0.0000
   188 H109      0.8224    4.7902   -1.9030   H         1 RES1   0.0000
   189 H110      1.2287    6.4823   -1.6152   H         1 RES1   0.0000
   190 H111     -1.2445    6.8810   -2.5274   H         1 RES1   0.0000
   191 H112     -0.9536    5.3263   -3.3160   H         1 RES1   0.0000
   192 H113      0.6439    7.9046   -3.5384   H         1 RES1   0.0000
   193 H114     -0.3373    7.1820   -4.7927   H         1 RES1   0.0000
   194 H115      1.9165    5.4900   -3.7687   H         1 RES1   0.0000
   195 H116      2.3698    6.9455   -4.6368   H         1 RES1   0.0000
   196 H117      2.3345    5.1272   -6.1657   H         1 RES1   0.0000
   197 H118      1.0215    6.2213   -6.5794   H         1 RES1   0.0000
   198 H119     -0.6368    4.7222   -5.7261   H         1 RES1   0.0000
   199 H120      0.5639    3.7623   -4.8555   H         1 RES1   0.0000
   200 H121      0.4198    3.9857   -7.8964   H         1 RES1   0.0000
   201 H122     -0.2063    2.6261   -6.9671   H         1 RES1   0.0000
   202 H123      1.5241    2.9701   -6.9828   H         1 RES1   0.0000
   203 H124     -2.7658    5.2379   -0.4340   H         1 RES1   0.0000
   204 H125     -2.5219    4.6711    1.2219   H         1 RES1   0.0000
   205 H126     -2.9630    2.3760    0.5560   H         1 RES1   0.0000
   206 H127     -2.8805    2.8098   -1.1509   H         1 RES1   0.0000
   207 H128     -5.0678    3.4985   -1.1580   H         1 RES1   0.0000
   208 H129     -4.7951    4.5509    0.2109   H         1 RES1   0.0000
   209 H130     -6.5286    3.0177    0.7928   H         1 RES1   0.0000
   210 H131     -5.1270    2.6438    1.7648   H         1 RES1   0.0000
   211 H132     -5.8142    0.5105    1.0641   H         1 RES1   0.0000
   212 H133     -4.5569    0.8898   -0.1041   H         1 RES1   0.0000
   213 H134     -7.4607    0.4713   -0.5378   H         1 RES1   0.0000
   214 H135     -6.9023    1.9548   -1.2772   H         1 RES1   0.0000
   215 H136     -5.0936    0.6571   -2.4226   H         1 RES1   0.0000
   216 H137     -5.7826   -0.8238   -1.7547   H         1 RES1   0.0000
   217 H138     -7.9389   -0.3603   -2.9089   H         1 RES1   0.0000
   218 H139     -6.6344   -0.4123   -4.0877   H         1 RES1   0.0000
   219 H140     -7.2849    1.1386   -3.5529   H         1 RES1   0.0000
   220 C71      -0.8863    2.1594    3.5936   C.3       1 RES1   0.0000
   221 C72      -1.8736    2.8848    4.4998   C.3       1 RES1   0.0000
   222 C73      -3.1894    3.2274    3.7948   C.3       1 RES1   0.0000
   223 C74      -4.4257    2.7387    4.5529   C.3       1 RES1   0.0000
   224 C75      -4.7390    1.2522    4.3339   C.3       1 RES1   0.0000
   225 C76      -3.9167    0.2569    5.1594   C.3       1 RES1   0.0000
   226 C77      -4.5264   -1.1451    5.1165   C.3       1 RES1   0.0000
   227 C78      -4.3412   -1.8500    3.7620   C.3       1 RES1   0.0000
   228 N5       -3.0886   -2.5937    3.5988   N.am      1 RES1   0.0000
   229 C79      -3.1027   -3.9546    4.1319   C.3       1 RES1   0.0000
   230 C80      -2.8782   -4.1029    5.6434   C.3       1 RES1   0.0000
   231 C81      -1.6508   -3.3948    6.2121   C.3       1 RES1   0.0000
   232 C82      -1.6626   -3.4194    7.7501   C.3       1 RES1   0.0000
   233 C83      -0.7748   -4.4940    8.3855   C.3       1 RES1   0.0000
   234 C84      -1.0734   -5.9377    7.9851   C.3       1 RES1   0.0000
   235 C85      -2.4451   -6.4260    8.4444   C.3       1 RES1   0.0000
   236 C86      -2.7652   -7.8086    7.8864   C.3       1 RES1   0.0000
   237 C87      -2.1440   -2.0866    2.8021   C.2       1 RES1   0.0000
   238 O5       -2.2892   -1.0348    2.1579   O.2       1 RES1   0.0000
   239 C88      -0.7890   -2.8199    2.6759   C.3       1 RES1   0.0000
   240 C89       0.2081   -1.7243    3.0141   C.2       1 RES1   0.0000
   241 O6        0.1928   -0.6860    2.3304   O.2       1 RES1   0.0000
   242 N6        0.9165   -1.8210    4.1550   N.am      1 RES1   0.0000
   243 C90       1.7625   -2.9742    4.4361   C.3       1 RES1   0.0000
   244 C91       2.9466   -2.9162    3.4517   C.3       1 RES1   0.0000
   245 C92       3.7325   -4.2201    3.2967   C.3       1 RES1   0.0000
   246 C93       5.1945   -3.9469    2.8973   C.3       1 RES1   0.0000
   247 C94       5.7692   -4.9596    1.9011   C.3       1 RES1   0.0000
   248 C95       7.1052   -4.4665    1.3348   C.3       1 RES1   0.0000
   249 C96       7.5841   -5.1987    0.0799   C.3       1 RES1   0.0000
   250 C97       8.7938   -4.4988   -0.5335   C.3       1 RES1   0.0000
   251 C98       1.4140   -0.5664    4.7075   C.3       1 RES1   0.0000
   252 C99       0.8302   -0.2831    6.0995   C.3       1 RES1   0.0000
   253 C100      1.1202    1.1589    6.5574   C.3       1 RES1   0.0000
   254 C101      1.9241    1.2901    7.8513   C.3       1 RES1   0.0000
   255 C102      2.3677    2.7514    8.0560   C.3       1 RES1   0.0000
   256 C103      3.7618    2.9119    8.6739   C.3       1 RES1   0.0000
   257 C104      3.9153    2.1399    9.9844   C.3       1 RES1   0.0000
   258 C105      5.1529    2.5633   10.7683   C.3       1 RES1   0.0000
   259 H141     -0.1171    1.7077    4.2073   H         1 RES1   0.0000
   260 H142     -0.4094    2.8538    2.9052   H         1 RES1   0.0000
   261 H143     -1.3685    1.3692    3.0029   H         1 RES1   0.0000
   262 H144     -1.3950    3.7884    4.8769   H         1 RES1   0.0000
   263 H145     -2.0879    2.2552    5.3607   H         1 RES1   0.0000
   264 H146     -3.1850    2.7754    2.8012   H         1 RES1   0.0000
   265 H147     -3.2843    4.3054    3.6475   H         1 RES1   0.0000
   266 H148     -4.3147    2.9549    5.6167   H         1 RES1   0.0000
   267 H149     -5.2936    3.3081    4.2093   H         1 RES1   0.0000
   268 H150     -4.6106    1.0339    3.2702   H         1 RES1   0.0000
   269 H151     -5.7939    1.1019    4.5785   H         1 RES1   0.0000
   270 H152     -3.8951    0.5943    6.1976   H         1 RES1   0.0000
   271 H153     -2.8886    0.2042    4.7949   H         1 RES1   0.0000
   272 H154     -5.5999   -1.0668    5.3013   H         1 RES1   0.0000
   273 H155     -4.1089   -1.7415    5.9240   H         1 RES1   0.0000
   274 H156     -4.3828   -1.0975    2.9723   H         1 RES1   0.0000
   275 H157     -5.1663   -2.5526    3.6203   H         1 RES1   0.0000
   276 H158     -2.3829   -4.5724    3.5989   H         1 RES1   0.0000
   277 H159     -4.0914   -4.3737    3.9124   H         1 RES1   0.0000
   278 H160     -2.8250   -5.1728    5.8430   H         1 RES1   0.0000
   279 H161     -3.7539   -3.7314    6.1720   H         1 RES1   0.0000
   280 H162     -1.6480   -2.3590    5.8616   H         1 RES1   0.0000
   281 H163     -0.7315   -3.8596    5.8555   H         1 RES1   0.0000
   282 H164     -2.6870   -3.5539    8.0980   H         1 RES1   0.0000
   283 H165     -1.3272   -2.4518    8.1274   H         1 RES1   0.0000
   284 H166     -0.8868   -4.4224    9.4679   H         1 RES1   0.0000
   285 H167      0.2689   -4.2785    8.1469   H         1 RES1   0.0000
   286 H168     -0.3186   -6.5808    8.4417   H         1 RES1   0.0000
   287 H169     -0.9834   -6.0602    6.9034   H         1 RES1   0.0000
   288 H170     -3.2211   -5.7305    8.1238   H         1 RES1   0.0000
   289 H171     -2.4679   -6.4608    9.5344   H         1 RES1   0.0000
   290 H172     -2.7768   -7.7944    6.7955   H         1 RES1   0.0000
   291 H173     -3.7402   -8.1457    8.2325   H         1 RES1   0.0000
   292 H174     -2.0185   -8.5312    8.2078   H         1 RES1   0.0000
   293 H175     -0.6737   -3.1359    1.6352   H         1 RES1   0.0000
   294 H176     -0.6940   -3.6707    3.3344   H         1 RES1   0.0000
   295 H177      1.2196   -3.9118    4.3443   H         1 RES1   0.0000
   296 H178      2.1226   -2.8946    5.4624   H         1 RES1   0.0000
   297 H179      3.6325   -2.1274    3.7619   H         1 RES1   0.0000
   298 H180      2.5435   -2.6067    2.4847   H         1 RES1   0.0000
   299 H181      3.2405   -4.8323    2.5361   H         1 RES1   0.0000
   300 H182      3.7033   -4.7751    4.2328   H         1 RES1   0.0000
   301 H183      5.8261   -3.9326    3.7855   H         1 RES1   0.0000
   302 H184      5.2574   -2.9492    2.4562   H         1 RES1   0.0000
   303 H185      5.0643   -5.1151    1.0779   H         1 RES1   0.0000
   304 H186      5.8983   -5.9272    2.3877   H         1 RES1   0.0000
   305 H187      7.8692   -4.5627    2.1043   H         1 RES1   0.0000
   306 H188      7.0160   -3.4008    1.0979   H         1 RES1   0.0000
   307 H189      6.7735   -5.2400   -0.6544   H         1 RES1   0.0000
   308 H190      7.8508   -6.2263    0.3275   H         1 RES1   0.0000
   309 H191      8.5435   -3.4735   -0.8013   H         1 RES1   0.0000
   310 H192      9.1212   -5.0134   -1.4334   H         1 RES1   0.0000
   311 H193      9.6217   -4.4788    0.1722   H         1 RES1   0.0000
   312 H194      1.1371    0.2061    3.9895   H         1 RES1   0.0000
   313 H195      2.4995   -0.6013    4.7683   H         1 RES1   0.0000
   314 H196      1.2617   -0.9853    6.8114   H         1 RES1   0.0000
   315 H197     -0.2456   -0.4504    6.0749   H         1 RES1   0.0000
   316 H198      0.1831    1.7039    6.6686   H         1 RES1   0.0000
   317 H199      1.6952    1.6710    5.7871   H         1 RES1   0.0000
   318 H200      2.7983    0.6434    7.8036   H         1 RES1   0.0000
   319 H201      1.3239    0.9585    8.6996   H         1 RES1   0.0000
   320 H202      1.6424    3.2599    8.6915   H         1 RES1   0.0000
   321 H203      2.3553    3.2763    7.0934   H         1 RES1   0.0000
   322 H204      3.9503    3.9743    8.8564   H         1 RES1   0.0000
   323 H205      4.5258    2.5824    7.9609   H         1 RES1   0.0000
   324 H206      3.9754    1.0704    9.7670   H         1 RES1   0.0000
   325 H207      3.0254    2.3023   10.5932   H         1 RES1   0.0000
   326 H208      6.0514    2.4713   10.1601   H         1 RES1   0.0000
   327 H209      5.2688    1.9403   11.6511   H         1 RES1   0.0000
   328 H210      5.0667    3.5967   11.0999   H         1 RES1   0.0000
   329 C106      3.4970    2.8690   -4.2354   C.3       1 RES1   0.0000
   330 C107      4.3585    2.1832   -3.1842   C.3       1 RES1   0.0000
   331 C108      3.8144    2.4257   -1.7769   C.3       1 RES1   0.0000
   332 C109      4.6687    1.8310   -0.6504   C.3       1 RES1   0.0000
   333 C110      4.2950    0.4001   -0.2586   C.3       1 RES1   0.0000
   334 C111      4.4635   -0.6141   -1.3927   C.3       1 RES1   0.0000
   335 C112      4.7763   -2.0203   -0.8937   C.3       1 RES1   0.0000
   336 C113      3.6891   -2.6188    0.0008   C.3       1 RES1   0.0000
   337 N7        2.5887   -3.2020   -0.7576   N.am      1 RES1   0.0000
   338 C114      2.6674   -4.6428   -0.9979   C.3       1 RES1   0.0000
   339 C115      3.6958   -5.1789   -1.9963   C.3       1 RES1   0.0000
   340 C116      3.4463   -4.8311   -3.4604   C.3       1 RES1   0.0000
   341 C117      4.3270   -5.6860   -4.3870   C.3       1 RES1   0.0000
   342 C118      3.5802   -6.8290   -5.0824   C.3       1 RES1   0.0000
   343 C119      2.9398   -7.8808   -4.1717   C.3       1 RES1   0.0000
   344 C120      3.9499   -8.7917   -3.4758   C.3       1 RES1   0.0000
   345 C121      3.2711   -9.7294   -2.4837   C.3       1 RES1   0.0000
   346 C122      1.4519   -2.5095   -0.8394   C.2       1 RES1   0.0000
   347 O7        1.2144   -1.5247   -0.1085   O.2       1 RES1   0.0000
   348 C123      0.4543   -2.8955   -1.9201   C.3       1 RES1   0.0000
   349 C124      0.3623   -1.6534   -2.8217   C.2       1 RES1   0.0000
   350 O8        0.3324   -0.5316   -2.2986   O.2       1 RES1   0.0000
   351 N8        0.3683   -1.8339   -4.1490   N.am      1 RES1   0.0000
   352 C125      0.0481   -3.0774   -4.8357   C.3       1 RES1   0.0000
   353 C126     -1.1124   -2.9064   -5.8288   C.3       1 RES1   0.0000
   354 C127     -1.9845   -4.1540   -5.9426   C.3       1 RES1   0.0000
   355 C128     -3.3140   -3.8285   -6.6234   C.3       1 RES1   0.0000
   356 C129     -4.2577   -5.0306   -6.5817   C.3       1 RES1   0.0000
   357 C130     -5.7066   -4.7412   -6.9792   C.3       1 RES1   0.0000
   358 C131     -6.4512   -3.8507   -5.9669   C.3       1 RES1   0.0000
   359 C132     -7.0464   -2.6087   -6.6226   C.3       1 RES1   0.0000
   360 C133      0.7062   -0.6949   -4.9977   C.3       1 RES1   0.0000
   361 C134      2.1652   -0.7248   -5.4860   C.3       1 RES1   0.0000
   362 C135      2.3853   -1.4358   -6.8316   C.3       1 RES1   0.0000
   363 C136      3.2002   -2.7271   -6.7181   C.3       1 RES1   0.0000
   364 C137      3.1436   -3.5832   -7.9861   C.3       1 RES1   0.0000
   365 C138      1.7683   -4.1950   -8.2574   C.3       1 RES1   0.0000
   366 C139      1.7555   -5.1097   -9.4843   C.3       1 RES1   0.0000
   367 C140      1.9735   -4.3727  -10.8006   C.3       1 RES1   0.0000
   368 H211      3.8855    2.6701   -5.2298   H         1 RES1   0.0000
   369 H212      3.4948    3.9453   -4.0864   H         1 RES1   0.0000
   370 H213      2.4712    2.5062   -4.1807   H         1 RES1   0.0000
   371 H214      5.3766    2.5715   -3.2436   H         1 RES1   0.0000
   372 H215      4.3871    1.1152   -3.3937   H         1 RES1   0.0000
   373 H216      2.8013    2.0081   -1.7142   H         1 RES1   0.0000
   374 H217      3.7557    3.5096   -1.6358   H         1 RES1   0.0000
   375 H218      4.5569    2.4502    0.2448   H         1 RES1   0.0000
   376 H219      5.7218    1.8656   -0.9377   H         1 RES1   0.0000
   377 H220      3.2591    0.3940    0.0986   H         1 RES1   0.0000
   378 H221      4.9391    0.1130    0.5771   H         1 RES1   0.0000
   379 H222      5.3012   -0.3091   -2.0202   H         1 RES1   0.0000
   380 H223      3.5582   -0.6348   -2.0037   H         1 RES1   0.0000
   381 H224      5.6975   -1.9862   -0.3112   H         1 RES1   0.0000
   382 H225      4.9609   -2.6704   -1.7473   H         1 RES1   0.0000
   383 H226      3.2845   -1.8360    0.6443   H         1 RES1   0.0000
   384 H227      4.1213   -3.4049    0.6099   H         1 RES1   0.0000
   385 H228      1.6823   -5.0129   -1.2880   H         1 RES1   0.0000
   386 H229      2.8931   -5.0976   -0.0225   H         1 RES1   0.0000
   387 H230      3.6633   -6.2640   -1.8873   H         1 RES1   0.0000
   388 H231      4.7002   -4.8571   -1.7240   H         1 RES1   0.0000
   389 H232      3.6598   -3.7706   -3.6098   H         1 RES1   0.0000
   390 H233      2.3961   -4.9957   -3.7156   H         1 RES1   0.0000
   391 H234      5.1679   -6.0868   -3.8217   H         1 RES1   0.0000
   392 H235      4.7451   -5.0555   -5.1706   H         1 RES1   0.0000
   393 H236      4.2831   -7.3375   -5.7453   H         1 RES1   0.0000
   394 H237      2.7977   -6.3998   -5.7149   H         1 RES1   0.0000
   395 H238      2.2962   -8.5100   -4.7916   H         1 RES1   0.0000
   396 H239      2.2964   -7.4073   -3.4239   H         1 RES1   0.0000
   397 H240      4.7019   -8.1979   -2.9535   H         1 RES1   0.0000
   398 H241      4.4713   -9.3819   -4.2296   H         1 RES1   0.0000
   399 H242      2.8194   -9.1688   -1.6660   H         1 RES1   0.0000
   400 H243      3.9915  -10.4250   -2.0622   H         1 RES1   0.0000
   401 H244      2.4886  -10.3044   -2.9731   H         1 RES1   0.0000
   402 H245     -0.5118   -3.0903   -1.4533   H         1 RES1   0.0000
   403 H246      0.8022   -3.7550   -2.4786   H         1 RES1   0.0000
   404 H247     -0.2510   -3.8334   -4.1101   H         1 RES1   0.0000
   405 H248      0.9314   -3.4322   -5.3646   H         1 RES1   0.0000
   406 H249     -0.7420   -2.6294   -6.8142   H         1 RES1   0.0000
   407 H250     -1.7528   -2.0910   -5.4855   H         1 RES1   0.0000
   408 H251     -2.1942   -4.5480   -4.9452   H         1 RES1   0.0000
   409 H252     -1.4657   -4.9362   -6.4942   H         1 RES1   0.0000
   410 H253     -3.7721   -2.9790   -6.1103   H         1 RES1   0.0000
   411 H254     -3.1314   -3.5319   -7.6567   H         1 RES1   0.0000
   412 H255     -4.2673   -5.4327   -5.5654   H         1 RES1   0.0000
   413 H256     -3.8602   -5.8057   -7.2358   H         1 RES1   0.0000
   414 H257     -6.2259   -5.6976   -7.0681   H         1 RES1   0.0000
   415 H258     -5.7396   -4.2697   -7.9617   H         1 RES1   0.0000
   416 H259     -5.7624   -3.5436   -5.1743   H         1 RES1   0.0000
   417 H260     -7.2545   -4.4234   -5.4989   H         1 RES1   0.0000
   418 H261     -7.7730   -2.9002   -7.3751   H         1 RES1   0.0000
   419 H262     -6.2694   -2.0234   -7.1132   H         1 RES1   0.0000
   420 H263     -7.5530   -1.9803   -5.8914   H         1 RES1   0.0000
   421 H264      0.5394    0.2005   -4.3956   H         1 RES1   0.0000
   422 H265      0.0341   -0.6706   -5.8560   H         1 RES1   0.0000
   423 H266      2.7865   -1.1840   -4.7150   H         1 RES1   0.0000
   424 H267      2.4854    0.3118   -5.5802   H         1 RES1   0.0000
   425 H268      2.9180   -0.7656   -7.5060   H         1 RES1   0.0000
   426 H269      1.4226   -1.6424   -7.2969   H         1 RES1   0.0000
   427 H270      2.8638   -3.3259   -5.8665   H         1 RES1   0.0000
   428 H271      4.2409   -2.4560   -6.5282   H         1 RES1   0.0000
   429 H272      3.8645   -4.3970   -7.8860   H         1 RES1   0.0000
   430 H273      3.4509   -2.9737   -8.8354   H         1 RES1   0.0000
   431 H274      1.0241   -3.4083   -8.4081   H         1 RES1   0.0000
   432 H275      1.4637   -4.7854   -7.3854   H         1 RES1   0.0000
   433 H276      0.7879   -5.6156   -9.5263   H         1 RES1   0.0000
   434 H277      2.5233   -5.8756   -9.3657   H         1 RES1   0.0000
   435 H278      1.2695   -3.5487  -10.8982   H         1 RES1   0.0000
   436 H279      1.8196   -5.0540  -11.6334   H         1 RES1   0.0000
   437 H280      2.9830   -3.9774  -10.8726   H         1 RES1   0.0000
@<TRIPOS>BOND
     1     1    20    1
     2     1    23    1
     3     1   129    1
     4     1   132    1
     5     1   238    1
     6     1   241    1
     7     1   347    1
     8     1   350    1
     9     2     3    1
    10     2    41    1
    11     2    42    1
    12     2    43    1
    13     3     4    1
    14     3    44    1
    15     3    45    1
    16     4     5    1
    17     4    46    1
    18     4    47    1
    19     5     6    1
    20     5    48    1
    21     5    49    1
    22     6     7    1
    23     6    50    1
    24     6    51    1
    25     7     8    1
    26     7    52    1
    27     7    53    1
    28     8     9    1
    29     8    54    1
    30     8    55    1
    31     9    10    1
    32     9    56    1
    33     9    57    1
    34    10    11    1
    35    10    19    1
    36    11    12    1
    37    11    58    1
    38    11    59    1
    39    12    13    1
    40    12    60    1
    41    12    61    1
    42    13    14    1
    43    13    62    1
    44    13    63    1
    45    14    15    1
    46    14    64    1
    47    14    65    1
    48    15    16    1
    49    15    66    1
    50    15    67    1
    51    16    17    1
    52    16    68    1
    53    16    69    1
    54    17    18    1
    55    17    70    1
    56    17    71    1
    57    18    72    1
    58    18    73    1
    59    18    74    1
    60    19    20    2
    61    19    21    1
    62    21    22    1
    63    21    75    1
    64    21    76    1
    65    22    23    2
    66    22    24    1
    67    24    25    1
    68    24    33    1
    69    25    26    1
    70    25    77    1
    71    25    78    1
    72    26    27    1
    73    26    79    1
    74    26    80    1
    75    27    28    1
    76    27    81    1
    77    27    82    1
    78    28    29    1
    79    28    83    1
    80    28    84    1
    81    29    30    1
    82    29    85    1
    83    29    86    1
    84    30    31    1
    85    30    87    1
    86    30    88    1
    87    31    32    1
    88    31    89    1
    89    31    90    1
    90    32    91    1
    91    32    92    1
    92    32    93    1
    93    33    34    1
    94    33    94    1
    95    33    95    1
    96    34    35    1
    97    34    96    1
    98    34    97    1
    99    35    36    1
   100    35    98    1
   101    35    99    1
   102    36    37    1
   103    36   100    1
   104    36   101    1
   105    37    38    1
   106    37   102    1
   107    37   103    1
   108    38    39    1
   109    38   104    1
   110    38   105    1
   111    39    40    1
   112    39   106    1
   113    39   107    1
   114    40   108    1
   115    40   109    1
   116    40   110    1
   117   111   112    1
   118   111   150    1
   119   111   151    1
   120   111   152    1
   121   112   113    1
   122   112   153    1
   123   112   154    1
   124   113   114    1
   125   113   155    1
   126   113   156    1
   127   114   115    1
   128   114   157    1
   129   114   158    1
   130   115   116    1
   131   115   159    1
   132   115   160    1
   133   116   117    1
   134   116   161    1
   135   116   162    1
   136   117   118    1
   137   117   163    1
   138   117   164    1
   139   118   119    1
   140   118   165    1
   141   118   166    1
   142   119   120    1
   143   119   128    1
   144   120   121    1
   145   120   167    1
   146   120   168    1
   147   121   122    1
   148   121   169    1
   149   121   170    1
   150   122   123    1
   151   122   171    1
   152   122   172    1
   153   123   124    1
   154   123   173    1
   155   123   174    1
   156   124   125    1
   157   124   175    1
   158   124   176    1
   159   125   126    1
   160   125   177    1
   161   125   178    1
   162   126   127    1
   163   126   179    1
   164   126   180    1
   165   127   181    1
   166   127   182    1
   167   127   183    1
   168   128   129    2
   169   128   130    1
   170   130   131    1
   171   130   184    1
   172   130   185    1
   173   131   132    2
   174   131   133    1
   175   133   134    1
   176   133   142    1
   177   134   135    1
   178   134   186    1
   179   134   187    1
   180   135   136    1
   181   135   188    1
   182   135   189    1
   183   136   137    1
   184   136   190    1
   185   136   191    1
   186   137   138    1
   187   137   192    1
   188   137   193    1
   189   138   139    1
   190   138   194    1
   191   138   195    1
   192   139   140    1
   193   139   196    1
   194   139   197    1
   195   140   141    1
   196   140   198    1
   197   140   199    1
   198   141   200    1
   199   141   201    1
   200   141   202    1
   201   142   143    1
   202   142   203    1
   203   142   204    1
   204   143   144    1
   205   143   205    1
   206   143   206    1
   207   144   145    1
   208   144   207    1
   209   144   208    1
   210   145   146    1
   211   145   209    1
   212   145   210    1
   213   146   147    1
   214   146   211    1
   215   146   212    1
   216   147   148    1
   217   147   213    1
   218   147   214    1
   219   148   149    1
   220   148   215    1
   221   148   216    1
   222   149   217    1
   223   149   218    1
   224   149   219    1
   225   220   221    1
   226   220   259    1
   227   220   260    1
   228   220   261    1
   229   221   222    1
   230   221   262    1
   231   221   263    1
   232   222   223    1
   233   222   264    1
   234   222   265    1
   235   223   224    1
   236   223   266    1
   237   223   267    1
   238   224   225    1
   239   224   268    1
   240   224   269    1
   241   225   226    1
   242   225   270    1
   243   225   271    1
   244   226   227    1
   245   226   272    1
   246   226   273    1
   247   227   228    1
   248   227   274    1
   249   227   275    1
   250   228   229    1
   251   228   237    1
   252   229   230    1
   253   229   276    1
   254   229   277    1
   255   230   231    1
   256   230   278    1
   257   230   279    1
   258   231   232    1
   259   231   280    1
   260   231   281    1
   261   232   233    1
   262   232   282    1
   263   232   283    1
   264   233   234    1
   265   233   284    1
   266   233   285    1
   267   234   235    1
   268   234   286    1
   269   234   287    1
   270   235   236    1
   271   235   288    1
   272   235   289    1
   273   236   290    1
   274   236   291    1
   275   236   292    1
   276   237   238    2
   277   237   239    1
   278   239   240    1
   279   239   293    1
   280   239   294    1
   281   240   241    2
   282   240   242    1
   283   242   243    1
   284   242   251    1
   285   243   244    1
   286   243   295    1
   287   243   296    1
   288   244   245    1
   289   244   297    1
   290   244   298    1
   291   245   246    1
   292   245   299    1
   293   245   300    1
   294   246   247    1
   295   246   301    1
   296   246   302    1
   297   247   248    1
   298   247   303    1
   299   247   304    1
   300   248   249    1
   301   248   305    1
   302   248   306    1
   303   249   250    1
   304   249   307    1
   305   249   308    1
   306   250   309    1
   307   250   310    1
   308   250   311    1
   309   251   252    1
   310   251   312    1
   311   251   313    1
   312   252   253    1
   313   252   314    1
   314   252   315    1
   315   253   254    1
   316   253   316    1
   317   253   317    1
   318   254   255    1
   319   254   318    1
   320   254   319    1
   321   255   256    1
   322   255   320    1
   323   255   321    1
   324   256   257    1
   325   256   322    1
   326   256   323    1
   327   257   258    1
   328   257   324    1
   329   257   325    1
   330   258   326    1
   331   258   327    1
   332   258   328    1
   333   329   330    1
   334   329   368    1
   335   329   369    1
   336   329   370    1
   337   330   331    1
   338   330   371    1
   339   330   372    1
   340   331   332    1
   341   331   373    1
   342   331   374    1
   343   332   333    1
   344   332   375    1
   345   332   376    1
   346   333   334    1
   347   333   377    1
   348   333   378    1
   349   334   335    1
   350   334   379    1
   351   334   380    1
   352   335   336    1
   353   335   381    1
   354   335   382    1
   355   336   337    1
   356   336   383    1
   357   336   384    1
   358   337   338    1
   359   337   346    1
   360   338   339    1
   361   338   385    1
   362   338   386    1
   363   339   340    1
   364   339   387    1
   365   339   388    1
   366   340   341    1
   367   340   389    1
   368   340   390    1
   369   341   342    1
   370   341   391    1
   371   341   392    1
   372   342   343    1
   373   342   393    1
   374   342   394    1
   375   343   344    1
   376   343   395    1
   377   343   396    1
   378   344   345    1
   379   344   397    1
   380   344   398    1
   381   345   399    1
   382   345   400    1
   383   345   401    1
   384   346   347    2
   385   346   348    1
   386   348   349    1
   387   348   402    1
   388   348   403    1
   389   349   350    2
   390   349   351    1
   391   351   352    1
   392   351   360    1
   393   352   353    1
   394   352   404    1
   395   352   405    1
   396   353   354    1
   397   353   406    1
   398   353   407    1
   399   354   355    1
   400   354   408    1
   401   354   409    1
   402   355   356    1
   403   355   410    1
   404   355   411    1
   405   356   357    1
   406   356   412    1
   407   356   413    1
   408   357   358    1
   409   357   414    1
   410   357   415    1
   411   358   359    1
   412   358   416    1
   413   358   417    1
   414   359   418    1
   415   359   419    1
   416   359   420    1
   417   360   361    1
   418   360   421    1
   419   360   422    1
   420   361   362    1
   421   361   423    1
   422   361   424    1
   423   362   363    1
   424   362   425    1
   425   362   426    1
   426   363   364    1
   427   363   427    1
   428   363   428    1
   429   364   365    1
   430   364   429    1
   431   364   430    1
   432   365   366    1
   433   365   431    1
   434   365   432    1
   435   366   367    1
   436   366   433    1
   437   366   434    1
   438   367   435    1
   439   367   436    1
   440   367   437    1
@<TRIPOS>SUBSTRUCTURE
     1 RES1      437 GROUP             0 ****  ****    0  
