@<TRIPOS>MOLECULE
ICIGOT_geomtry_0_nunpairedes_0_charge_2 Charge: 2 Unpaired_Electrons: 3 XTB_Unpaired_Electrons: 0 XTB_Charge: 2
    91    97     1     0     0
SMALL
NoCharges
****
Generated from Architector

@<TRIPOS>ATOM
     1 Er1      -0.3515   -0.2166   -0.2290   Er        1 RES1   0.0000
     2 C1       -5.3797   -0.1384   -1.1861   C.3       1 RES1   0.0000
     3 C2       -5.0306   -0.8520    0.1131   C.3       1 RES1   0.0000
     4 C3       -5.1541    0.0875    1.3095   C.3       1 RES1   0.0000
     5 C4       -4.8459   -0.6211    2.6327   C.3       1 RES1   0.0000
     6 N1       -3.4354   -0.9962    2.6917   N.am      1 RES1   0.0000
     7 C5       -3.0526   -2.3968    2.8395   C.3       1 RES1   0.0000
     8 C6       -2.6569   -3.1788    1.5901   C.3       1 RES1   0.0000
     9 C7       -2.0663   -4.5210    2.0245   C.3       1 RES1   0.0000
    10 C8       -1.5359   -5.3038    0.8325   C.3       1 RES1   0.0000
    11 C9       -2.4922   -0.0806    2.4855   C.2       1 RES1   0.0000
    12 O1       -1.4315   -0.3285    1.8327   O.2       1 RES1   0.0000
    13 C10      -2.5675    1.2529    3.1222   C.ar      1 RES1   0.0000
    14 C11      -3.2702    1.5281    4.2919   C.ar      1 RES1   0.0000
    15 C12      -3.2032    2.7888    4.8545   C.ar      1 RES1   0.0000
    16 C13      -2.4364    3.7800    4.2614   C.ar      1 RES1   0.0000
    17 C14      -1.6299    3.4859    3.1699   C.ar      1 RES1   0.0000
    18 C15      -1.6645    2.2084    2.6262   C.ar      1 RES1   0.0000
    19 C16      -0.7126    1.7660    1.5683   C.2       1 RES1   0.0000
    20 O2       -0.8937    1.8180    0.3597   O.2       1 RES1   0.0000
    21 O3        0.5287    1.4044    1.9525   O.2       1 RES1   0.0000
    22 H1       -5.3236   -0.8242   -2.0273   H         1 RES1   0.0000
    23 H2       -4.6926    0.6866   -1.3686   H         1 RES1   0.0000
    24 H3       -6.3894    0.2607   -1.1339   H         1 RES1   0.0000
    25 H4       -4.0054   -1.2390    0.0587   H         1 RES1   0.0000
    26 H5       -5.7045   -1.6991    0.2564   H         1 RES1   0.0000
    27 H6       -6.1698    0.4817    1.3550   H         1 RES1   0.0000
    28 H7       -4.4756    0.9349    1.1752   H         1 RES1   0.0000
    29 H8       -5.4396   -1.5337    2.7001   H         1 RES1   0.0000
    30 H9       -5.1126    0.0258    3.4662   H         1 RES1   0.0000
    31 H10      -3.8807   -2.9085    3.3353   H         1 RES1   0.0000
    32 H11      -2.1932   -2.4074    3.5186   H         1 RES1   0.0000
    33 H12      -1.8960   -2.6269    1.0247   H         1 RES1   0.0000
    34 H13      -3.5213   -3.3506    0.9490   H         1 RES1   0.0000
    35 H14      -2.8293   -5.1070    2.5395   H         1 RES1   0.0000
    36 H15      -1.2532   -4.3403    2.7319   H         1 RES1   0.0000
    37 H16      -2.3439   -5.5375    0.1431   H         1 RES1   0.0000
    38 H17      -1.0880   -6.2385    1.1607   H         1 RES1   0.0000
    39 H18      -0.7838   -4.7127    0.3090   H         1 RES1   0.0000
    40 H19      -3.8149    0.7499    4.7987   H         1 RES1   0.0000
    41 H20      -3.7456    2.9833    5.7645   H         1 RES1   0.0000
    42 H21      -2.4272    4.7719    4.6826   H         1 RES1   0.0000
    43 H22      -0.9785    4.2360    2.7447   H         1 RES1   0.0000
    44 H23       0.6624    1.4248    2.9168   H         1 RES1   0.0000
    45 C17      -1.9522   -4.4019   -3.1175   C.3       1 RES1   0.0000
    46 C18      -0.8438   -3.6201   -3.8045   C.3       1 RES1   0.0000
    47 C19       0.5231   -4.2601   -3.5870   C.3       1 RES1   0.0000
    48 C20       1.6298   -3.4056   -4.2087   C.3       1 RES1   0.0000
    49 N2        1.6871   -2.0810   -3.5781   N.am      1 RES1   0.0000
    50 C21       1.4773   -0.9274   -4.4634   C.3       1 RES1   0.0000
    51 C22       0.4338    0.1317   -4.0803   C.3       1 RES1   0.0000
    52 C23       1.0206    1.3895   -3.4294   C.3       1 RES1   0.0000
    53 C24      -0.0371    2.4853   -3.3193   C.3       1 RES1   0.0000
    54 C25       1.8506   -1.9548   -2.2669   C.2       1 RES1   0.0000
    55 O4        1.3597   -0.9840   -1.5981   O.2       1 RES1   0.0000
    56 C26       2.6652   -2.9270   -1.4815   C.ar      1 RES1   0.0000
    57 C27       3.6629   -3.7779   -1.9547   C.ar      1 RES1   0.0000
    58 C28       4.2929   -4.6625   -1.0978   C.ar      1 RES1   0.0000
    59 C29       3.9545   -4.7150    0.2451   C.ar      1 RES1   0.0000
    60 C30       3.0707   -3.7824    0.7650   C.ar      1 RES1   0.0000
    61 C31       2.4746   -2.8671   -0.0917   C.ar      1 RES1   0.0000
    62 C32       1.6329   -1.7823    0.4617   C.2       1 RES1   0.0000
    63 O5        0.4668   -1.9123    0.7917   O.2       1 RES1   0.0000
    64 O6        2.2351   -0.6193    0.8022   O.2       1 RES1   0.0000
    65 H24      -2.9106   -3.9263   -3.3046   H         1 RES1   0.0000
    66 H25      -1.7793   -4.4280   -2.0436   H         1 RES1   0.0000
    67 H26      -1.9884   -5.4210   -3.4927   H         1 RES1   0.0000
    68 H27      -0.8271   -2.6049   -3.4029   H         1 RES1   0.0000
    69 H28      -1.0450   -3.5527   -4.8741   H         1 RES1   0.0000
    70 H29       0.5492   -5.2434   -4.0573   H         1 RES1   0.0000
    71 H30       0.6973   -4.3997   -2.5173   H         1 RES1   0.0000
    72 H31       1.4019   -3.2609   -5.2652   H         1 RES1   0.0000
    73 H32       2.5841   -3.9186   -4.1477   H         1 RES1   0.0000
    74 H33       1.2228   -1.3282   -5.4445   H         1 RES1   0.0000
    75 H34       2.4502   -0.4315   -4.5585   H         1 RES1   0.0000
    76 H35      -0.3397   -0.3081   -3.4437   H         1 RES1   0.0000
    77 H36      -0.0550    0.4535   -5.0026   H         1 RES1   0.0000
    78 H37       1.8410    1.7478   -4.0571   H         1 RES1   0.0000
    79 H38       1.4275    1.1794   -2.4258   H         1 RES1   0.0000
    80 H39      -0.4893    2.6666   -4.2930   H         1 RES1   0.0000
    81 H40       0.4124    3.4160   -2.9814   H         1 RES1   0.0000
    82 H41      -0.8217    2.1992   -2.6139   H         1 RES1   0.0000
    83 H42       3.9942   -3.7306   -2.9766   H         1 RES1   0.0000
    84 H43       5.0465   -5.3207   -1.4958   H         1 RES1   0.0000
    85 H44       4.4084   -5.4469    0.8925   H         1 RES1   0.0000
    86 H45       2.8327   -3.7505    1.8185   H         1 RES1   0.0000
    87 H46       3.1899   -0.6106    0.6048   H         1 RES1   0.0000
    88 N3       -2.1229   -0.9010   -1.7932   N.3       1 RES1   0.0000
    89 O7       -2.8905   -1.2384   -2.6214   O.2       1 RES1   0.0000
    90 O8       -1.9356    0.2956   -1.4992   O.co2     1 RES1   0.0000
    91 O9       -1.4186   -1.7250   -1.1631   O.co2     1 RES1   0.0000
@<TRIPOS>BOND
     1     1    12    1
     2     1    20    1
     3     1    21    1
     4     1    55    1
     5     1    63    1
     6     1    64    1
     7     1    90    1
     8     1    91    1
     9     2     3    1
    10     2    22    1
    11     2    23    1
    12     2    24    1
    13     3     4    1
    14     3    25    1
    15     3    26    1
    16     4     5    1
    17     4    27    1
    18     4    28    1
    19     5     6    1
    20     5    29    1
    21     5    30    1
    22     6     7    1
    23     6    11    1
    24     7     8    1
    25     7    31    1
    26     7    32    1
    27     8     9    1
    28     8    33    1
    29     8    34    1
    30     9    10    1
    31     9    35    1
    32     9    36    1
    33    10    37    1
    34    10    38    1
    35    10    39    1
    36    11    12    2
    37    11    13    1
    38    13    14    1
    39    13    18    2
    40    14    15    2
    41    14    40    1
    42    15    16    1
    43    15    41    1
    44    16    17    2
    45    16    42    1
    46    17    18    1
    47    17    43    1
    48    18    19    1
    49    19    20    2
    50    19    21    1
    51    21    44    1
    52    45    46    1
    53    45    65    1
    54    45    66    1
    55    45    67    1
    56    46    47    1
    57    46    68    1
    58    46    69    1
    59    47    48    1
    60    47    70    1
    61    47    71    1
    62    48    49    1
    63    48    72    1
    64    48    73    1
    65    49    50    1
    66    49    54    1
    67    50    51    1
    68    50    74    1
    69    50    75    1
    70    51    52    1
    71    51    76    1
    72    51    77    1
    73    52    53    1
    74    52    78    1
    75    52    79    1
    76    53    80    1
    77    53    81    1
    78    53    82    1
    79    54    55    2
    80    54    56    1
    81    56    57    1
    82    56    61    2
    83    57    58    2
    84    57    83    1
    85    58    59    1
    86    58    84    1
    87    59    60    2
    88    59    85    1
    89    60    61    1
    90    60    86    1
    91    61    62    1
    92    62    63    2
    93    62    64    1
    94    64    87    1
    95    88    89    2
    96    88    90    1
    97    88    91    1
@<TRIPOS>SUBSTRUCTURE
     1 RES1       91 GROUP             0 ****  ****    0  
