@<TRIPOS>MOLECULE
ICIGOT_geomtry_0_nunpairedes_0_charge_2 Charge: 2 Unpaired_Electrons: 3 XTB_Unpaired_Electrons: 0 XTB_Charge: 2
   111   115     1     0     0
SMALL
NoCharges
****
Generated from Architector

@<TRIPOS>ATOM
     1 Er1       0.0183    0.0533    0.0090   Er        1 RES1   0.0000
     2 C1       -7.1224    2.4855    1.1563   C.3       1 RES1   0.0000
     3 C2       -5.6800    2.8629    0.8517   C.3       1 RES1   0.0000
     4 C3       -5.0750    1.9661   -0.2371   C.3       1 RES1   0.0000
     5 N1       -3.6600    2.2408   -0.4404   N.am      1 RES1   0.0000
     6 C4       -3.3138    3.2927   -1.4098   C.3       1 RES1   0.0000
     7 C5       -2.4418    4.4272   -0.8689   C.3       1 RES1   0.0000
     8 C6       -3.1328    5.2581    0.2021   C.3       1 RES1   0.0000
     9 C7       -2.7045    1.5592    0.1603   C.2       1 RES1   0.0000
    10 O1       -1.4849    1.8023    0.0238   O.2       1 RES1   0.0000
    11 C8       -3.0365    0.3533    1.0658   C.3       1 RES1   0.0000
    12 O2       -1.8378   -0.1415    1.6669   O.3       1 RES1   0.0000
    13 C9       -1.5263    0.3923    2.9592   C.3       1 RES1   0.0000
    14 C10      -0.2002    1.1757    2.9247   C.2       1 RES1   0.0000
    15 O3        0.4650    1.1574    1.8690   O.2       1 RES1   0.0000
    16 N2        0.2103    1.8380    3.9950   N.am      1 RES1   0.0000
    17 C11      -0.4463    1.8433    5.2937   C.3       1 RES1   0.0000
    18 C12       0.3488    1.0967    6.3706   C.3       1 RES1   0.0000
    19 C13       0.5219   -0.3891    6.0765   C.3       1 RES1   0.0000
    20 C14       1.4562    2.5967    3.8852   C.3       1 RES1   0.0000
    21 C15       2.6971    1.6998    3.8488   C.3       1 RES1   0.0000
    22 C16       3.9642    2.5437    3.7954   C.3       1 RES1   0.0000
    23 H1       -7.5271    3.1675    1.8977   H         1 RES1   0.0000
    24 H2       -7.7368    2.5521    0.2633   H         1 RES1   0.0000
    25 H3       -7.1859    1.4746    1.5492   H         1 RES1   0.0000
    26 H4       -5.6490    3.9000    0.5230   H         1 RES1   0.0000
    27 H5       -5.0825    2.7844    1.7640   H         1 RES1   0.0000
    28 H6       -5.2142    0.9160    0.0206   H         1 RES1   0.0000
    29 H7       -5.5926    2.1398   -1.1830   H         1 RES1   0.0000
    30 H8       -2.7934    2.8240   -2.2491   H         1 RES1   0.0000
    31 H9       -4.2471    3.7166   -1.7785   H         1 RES1   0.0000
    32 H10      -1.5040    4.0310   -0.4836   H         1 RES1   0.0000
    33 H11      -2.2022    5.0680   -1.7187   H         1 RES1   0.0000
    34 H12      -3.3339    4.6659    1.0911   H         1 RES1   0.0000
    35 H13      -2.5004    6.0928    0.4905   H         1 RES1   0.0000
    36 H14      -4.0707    5.6542   -0.1781   H         1 RES1   0.0000
    37 H15      -3.7826    0.5964    1.8284   H         1 RES1   0.0000
    38 H16      -3.4002   -0.4671    0.4327   H         1 RES1   0.0000
    39 H17      -2.3381    1.0317    3.3216   H         1 RES1   0.0000
    40 H18      -1.4075   -0.4733    3.6234   H         1 RES1   0.0000
    41 H19      -0.5601    2.8860    5.6017   H         1 RES1   0.0000
    42 H20      -1.4327    1.3957    5.2107   H         1 RES1   0.0000
    43 H21       1.3256    1.5600    6.4963   H         1 RES1   0.0000
    44 H22      -0.1948    1.2132    7.3083   H         1 RES1   0.0000
    45 H23       1.0363   -0.5559    5.1307   H         1 RES1   0.0000
    46 H24       1.1069   -0.8550    6.8660   H         1 RES1   0.0000
    47 H25      -0.4433   -0.8900    6.0443   H         1 RES1   0.0000
    48 H26       1.4199    3.1776    2.9594   H         1 RES1   0.0000
    49 H27       1.5110    3.2886    4.7249   H         1 RES1   0.0000
    50 H28       2.7285    1.0665    4.7350   H         1 RES1   0.0000
    51 H29       2.6313    1.0517    2.9715   H         1 RES1   0.0000
    52 H30       4.0343    3.1737    4.6782   H         1 RES1   0.0000
    53 H31       4.8435    1.9070    3.7697   H         1 RES1   0.0000
    54 H32       3.9643    3.1813    2.9156   H         1 RES1   0.0000
    55 C17       6.8142    0.6673   -2.7860   C.3       1 RES1   0.0000
    56 C18       5.8145    0.7360   -1.6415   C.3       1 RES1   0.0000
    57 C19       5.3913   -0.6753   -1.2127   C.3       1 RES1   0.0000
    58 N3        4.3180   -0.6113   -0.2390   N.am      1 RES1   0.0000
    59 C20       4.6807   -0.1662    1.1046   C.3       1 RES1   0.0000
    60 C21       4.3333   -1.1988    2.1826   C.3       1 RES1   0.0000
    61 C22       4.9967   -2.5496    1.9408   C.3       1 RES1   0.0000
    62 C23       3.0369   -0.6953   -0.5348   C.2       1 RES1   0.0000
    63 O4        2.1452   -0.4140    0.2986   O.2       1 RES1   0.0000
    64 C24       2.5945   -1.1952   -1.9166   C.3       1 RES1   0.0000
    65 O5        1.1769   -1.2775   -1.9334   O.3       1 RES1   0.0000
    66 C25       0.5979   -2.5601   -2.0731   C.3       1 RES1   0.0000
    67 C26      -0.1801   -2.9396   -0.8073   C.2       1 RES1   0.0000
    68 O6       -0.1506   -2.1714    0.1823   O.2       1 RES1   0.0000
    69 N4       -0.8510   -4.0816   -0.8004   N.am      1 RES1   0.0000
    70 C27      -1.5532   -4.4625    0.4238   C.3       1 RES1   0.0000
    71 C28      -0.6208   -4.7451    1.6063   C.3       1 RES1   0.0000
    72 C29       0.3816   -5.8568    1.3227   C.3       1 RES1   0.0000
    73 C30      -1.0387   -4.8986   -1.9902   C.3       1 RES1   0.0000
    74 C31       0.1093   -5.8617   -2.3140   C.3       1 RES1   0.0000
    75 C32      -0.1089   -6.4766   -3.6909   C.3       1 RES1   0.0000
    76 H33       7.1578    1.6647   -3.0431   H         1 RES1   0.0000
    77 H34       7.6745    0.0688   -2.4988   H         1 RES1   0.0000
    78 H35       6.3561    0.2194   -3.6645   H         1 RES1   0.0000
    79 H36       6.2624    1.2594   -0.7982   H         1 RES1   0.0000
    80 H37       4.9355    1.3074   -1.9488   H         1 RES1   0.0000
    81 H38       5.0789   -1.2381   -2.0886   H         1 RES1   0.0000
    82 H39       6.2342   -1.1991   -0.7546   H         1 RES1   0.0000
    83 H40       5.7527    0.0191    1.1084   H         1 RES1   0.0000
    84 H41       4.1507    0.7677    1.3130   H         1 RES1   0.0000
    85 H42       4.6744   -0.7958    3.1370   H         1 RES1   0.0000
    86 H43       3.2499   -1.3263    2.2444   H         1 RES1   0.0000
    87 H44       6.0767   -2.4430    1.8925   H         1 RES1   0.0000
    88 H45       4.7648   -3.2354    2.7513   H         1 RES1   0.0000
    89 H46       4.6465   -2.9931    1.0120   H         1 RES1   0.0000
    90 H47       2.8831   -0.4712   -2.6880   H         1 RES1   0.0000
    91 H48       3.0560   -2.1644   -2.1460   H         1 RES1   0.0000
    92 H49      -0.0921   -2.5097   -2.9243   H         1 RES1   0.0000
    93 H50       1.3584   -3.3202   -2.2852   H         1 RES1   0.0000
    94 H51      -2.2339   -3.6504    0.7014   H         1 RES1   0.0000
    95 H52      -2.1300   -5.3591    0.2031   H         1 RES1   0.0000
    96 H53      -0.0915   -3.8335    1.8883   H         1 RES1   0.0000
    97 H54      -1.2542   -5.0376    2.4452   H         1 RES1   0.0000
    98 H55       1.0601   -5.5729    0.5228   H         1 RES1   0.0000
    99 H56       0.9750   -6.0649    2.2090   H         1 RES1   0.0000
   100 H57      -0.1332   -6.7712    1.0410   H         1 RES1   0.0000
   101 H58      -1.9515   -5.4769   -1.8444   H         1 RES1   0.0000
   102 H59      -1.2050   -4.2422   -2.8501   H         1 RES1   0.0000
   103 H60       1.0677   -5.3437   -2.2980   H         1 RES1   0.0000
   104 H61       0.1593   -6.6515   -1.5669   H         1 RES1   0.0000
   105 H62      -0.2150   -5.7025   -4.4478   H         1 RES1   0.0000
   106 H63       0.7319   -7.1077   -3.9608   H         1 RES1   0.0000
   107 H64      -1.0078   -7.0859   -3.6941   H         1 RES1   0.0000
   108 N5       -0.8284    0.6650   -2.1160   N.3       1 RES1   0.0000
   109 O7       -1.4171    1.1423   -3.0256   O.2       1 RES1   0.0000
   110 O8        0.2609    1.1037   -1.7370   O.co2     1 RES1   0.0000
   111 O9       -1.3063   -0.3121   -1.5084   O.co2     1 RES1   0.0000
@<TRIPOS>BOND
     1     1    10    1
     2     1    12    1
     3     1    15    1
     4     1    63    1
     5     1    65    1
     6     1    68    1
     7     1   110    1
     8     1   111    1
     9     2     3    1
    10     2    23    1
    11     2    24    1
    12     2    25    1
    13     3     4    1
    14     3    26    1
    15     3    27    1
    16     4     5    1
    17     4    28    1
    18     4    29    1
    19     5     6    1
    20     5     9    1
    21     6     7    1
    22     6    30    1
    23     6    31    1
    24     7     8    1
    25     7    32    1
    26     7    33    1
    27     8    34    1
    28     8    35    1
    29     8    36    1
    30     9    10    2
    31     9    11    1
    32    11    12    1
    33    11    37    1
    34    11    38    1
    35    12    13    1
    36    13    14    1
    37    13    39    1
    38    13    40    1
    39    14    15    2
    40    14    16    1
    41    16    17    1
    42    16    20    1
    43    17    18    1
    44    17    41    1
    45    17    42    1
    46    18    19    1
    47    18    43    1
    48    18    44    1
    49    19    45    1
    50    19    46    1
    51    19    47    1
    52    20    21    1
    53    20    48    1
    54    20    49    1
    55    21    22    1
    56    21    50    1
    57    21    51    1
    58    22    52    1
    59    22    53    1
    60    22    54    1
    61    55    56    1
    62    55    76    1
    63    55    77    1
    64    55    78    1
    65    56    57    1
    66    56    79    1
    67    56    80    1
    68    57    58    1
    69    57    81    1
    70    57    82    1
    71    58    59    1
    72    58    62    1
    73    59    60    1
    74    59    83    1
    75    59    84    1
    76    60    61    1
    77    60    85    1
    78    60    86    1
    79    61    87    1
    80    61    88    1
    81    61    89    1
    82    62    63    2
    83    62    64    1
    84    64    65    1
    85    64    90    1
    86    64    91    1
    87    65    66    1
    88    66    67    1
    89    66    92    1
    90    66    93    1
    91    67    68    2
    92    67    69    1
    93    69    70    1
    94    69    73    1
    95    70    71    1
    96    70    94    1
    97    70    95    1
    98    71    72    1
    99    71    96    1
   100    71    97    1
   101    72    98    1
   102    72    99    1
   103    72   100    1
   104    73    74    1
   105    73   101    1
   106    73   102    1
   107    74    75    1
   108    74   103    1
   109    74   104    1
   110    75   105    1
   111    75   106    1
   112    75   107    1
   113   108   109    2
   114   108   110    1
   115   108   111    1
@<TRIPOS>SUBSTRUCTURE
     1 RES1      111 GROUP             0 ****  ****    0  
