@<TRIPOS>MOLECULE
YEMSEP_geometry_0_nunpairedes_0_charge_3 Charge: 3 Unpaired_Electrons: 3 XTB_Unpaired_Electrons: 0 XTB_Charge: 3
   145   158     1     0     0
SMALL
NoCharges
****
Generated from Architector

@<TRIPOS>ATOM
     1 Er1      -0.0132    0.0076    0.0343   Er        1 RES1   0.0000
     2 C1        6.0458   -0.2344   -0.9619   C.3       1 RES1   0.0000
     3 C2        5.1009   -0.3512   -2.1578   C.3       1 RES1   0.0000
     4 N1        3.8616    0.3871   -1.9530   N.am      1 RES1   0.0000
     5 C3        2.8417   -0.0888   -1.2257   C.2       1 RES1   0.0000
     6 O1        1.8020    0.5960   -1.0675   O.2       1 RES1   0.0000
     7 C4        2.7742   -1.4447   -0.4988   C.ar      1 RES1   0.0000
     8 C5        3.7209   -2.4549   -0.3172   C.ar      1 RES1   0.0000
     9 C6        3.3735   -3.5645    0.4523   C.ar      1 RES1   0.0000
    10 C7        2.1139   -3.6817    1.0183   C.ar      1 RES1   0.0000
    11 C8        1.2066   -2.6369    0.8169   C.ar      1 RES1   0.0000
    12 C9       -0.1883   -2.6654    1.3930   C.ar      1 RES1   0.0000
    13 C10      -0.7656   -3.8582    1.8368   C.ar      1 RES1   0.0000
    14 C11      -2.0959   -3.8406    2.2219   C.ar      1 RES1   0.0000
    15 C12      -2.8404   -2.6675    2.1497   C.ar      1 RES1   0.0000
    16 C13      -2.1916   -1.4840    1.7949   C.ar      1 RES1   0.0000
    17 C14      -2.7499   -0.0625    1.6098   C.2       1 RES1   0.0000
    18 O2       -2.0851    0.6080    0.7819   O.2       1 RES1   0.0000
    19 N2       -3.8079    0.4433    2.2617   N.am      1 RES1   0.0000
    20 C15      -4.6201   -0.4064    3.1282   C.3       1 RES1   0.0000
    21 C16      -5.7960   -1.0184    2.3598   C.3       1 RES1   0.0000
    22 C17      -4.2733    1.8107    2.1680   C.ar      1 RES1   0.0000
    23 C18      -3.5249    2.8304    1.5732   C.ar      1 RES1   0.0000
    24 C19      -3.9780    4.1423    1.5577   C.ar      1 RES1   0.0000
    25 C20      -3.2141    5.2639    0.9273   C.3       1 RES1   0.0000
    26 C21      -5.1886    4.4578    2.1519   C.ar      1 RES1   0.0000
    27 C22      -5.9594    3.4801    2.7481   C.ar      1 RES1   0.0000
    28 C23      -7.2596    3.8316    3.3929   C.3       1 RES1   0.0000
    29 C24      -5.4990    2.1680    2.7413   C.ar      1 RES1   0.0000
    30 N3       -0.8942   -1.5280    1.4363   N.ar      1 RES1   0.0000
    31 N4        1.5672   -1.5832    0.0813   N.ar      1 RES1   0.0000
    32 C25       3.8350    1.6962   -2.5627   C.ar      1 RES1   0.0000
    33 C26       2.6457    2.2957   -2.9735   C.ar      1 RES1   0.0000
    34 C27       2.6381    3.5683   -3.5246   C.ar      1 RES1   0.0000
    35 C28       1.3783    4.2705   -3.9246   C.3       1 RES1   0.0000
    36 C29       3.8349    4.2404   -3.7072   C.ar      1 RES1   0.0000
    37 C30       5.0405    3.6501   -3.3764   C.ar      1 RES1   0.0000
    38 C31       6.3124    4.3946   -3.6296   C.3       1 RES1   0.0000
    39 C32       5.0281    2.3820   -2.8012   C.ar      1 RES1   0.0000
    40 H1        6.9186   -0.8586   -1.1319   H         1 RES1   0.0000
    41 H2        5.5592   -0.5372   -0.0378   H         1 RES1   0.0000
    42 H3        6.3913    0.7850   -0.8125   H         1 RES1   0.0000
    43 H4        4.8665   -1.3911   -2.3847   H         1 RES1   0.0000
    44 H5        5.5748    0.0492   -3.0543   H         1 RES1   0.0000
    45 H6        4.7181   -2.4370   -0.7195   H         1 RES1   0.0000
    46 H7        4.1015   -4.3456    0.6257   H         1 RES1   0.0000
    47 H8        1.8640   -4.5592    1.5950   H         1 RES1   0.0000
    48 H9       -0.2118   -4.7827    1.8467   H         1 RES1   0.0000
    49 H10      -2.5738   -4.7538    2.5450   H         1 RES1   0.0000
    50 H11      -3.8971   -2.7371    2.3396   H         1 RES1   0.0000
    51 H12      -4.9874    0.1787    3.9718   H         1 RES1   0.0000
    52 H13      -3.9927   -1.1729    3.5784   H         1 RES1   0.0000
    53 H14      -6.4903   -0.2729    1.9794   H         1 RES1   0.0000
    54 H15      -6.3543   -1.6704    3.0244   H         1 RES1   0.0000
    55 H16      -5.4645   -1.5889    1.4949   H         1 RES1   0.0000
    56 H17      -2.5776    2.6188    1.1140   H         1 RES1   0.0000
    57 H18      -2.2808    4.9331    0.4853   H         1 RES1   0.0000
    58 H19      -3.0013    6.0229    1.6775   H         1 RES1   0.0000
    59 H20      -3.8236    5.7339    0.1577   H         1 RES1   0.0000
    60 H21      -5.5339    5.4768    2.1426   H         1 RES1   0.0000
    61 H22      -7.4603    4.8946    3.2988   H         1 RES1   0.0000
    62 H23      -7.2432    3.5796    4.4509   H         1 RES1   0.0000
    63 H24      -8.0829    3.2874    2.9362   H         1 RES1   0.0000
    64 H25      -6.1628    1.4636    3.2064   H         1 RES1   0.0000
    65 H26       1.7104    1.7741   -2.8875   H         1 RES1   0.0000
    66 H27       0.4987    3.6554   -3.7647   H         1 RES1   0.0000
    67 H28       1.4235    4.5483   -4.9756   H         1 RES1   0.0000
    68 H29       1.2853    5.1930   -3.3526   H         1 RES1   0.0000
    69 H30       3.8232    5.2315   -4.1301   H         1 RES1   0.0000
    70 H31       6.1029    5.3798   -4.0410   H         1 RES1   0.0000
    71 H32       6.9427    3.8621   -4.3388   H         1 RES1   0.0000
    72 H33       6.8822    4.5247   -2.7122   H         1 RES1   0.0000
    73 H34       5.9906    1.9729   -2.5545   H         1 RES1   0.0000
    74 C33      -3.8940   -2.2191   -3.9985   C.3       1 RES1   0.0000
    75 C34      -2.4278   -2.4371   -4.3752   C.3       1 RES1   0.0000
    76 N5       -1.5775   -2.5145   -3.1934   N.am      1 RES1   0.0000
    77 C35      -1.2654   -1.4545   -2.4393   C.2       1 RES1   0.0000
    78 O3       -0.6950   -1.6241   -1.3334   O.2       1 RES1   0.0000
    79 C36      -1.5325    0.0224   -2.7699   C.ar      1 RES1   0.0000
    80 C37      -2.2686    0.6140   -3.7988   C.ar      1 RES1   0.0000
    81 C38      -2.3816    2.0023   -3.8227   C.ar      1 RES1   0.0000
    82 C39      -1.7934    2.7858   -2.8424   C.ar      1 RES1   0.0000
    83 C40      -1.0674    2.1434   -1.8307   C.ar      1 RES1   0.0000
    84 C41      -0.3788    2.9047   -0.7232   C.ar      1 RES1   0.0000
    85 C42      -0.1963    4.2899   -0.7762   C.ar      1 RES1   0.0000
    86 C43       0.5387    4.8951    0.2340   C.ar      1 RES1   0.0000
    87 C44       1.0718    4.1482    1.2818   C.ar      1 RES1   0.0000
    88 C45       0.7950    2.7791    1.3283   C.ar      1 RES1   0.0000
    89 C46       1.2491    1.6741    2.3015   C.2       1 RES1   0.0000
    90 O4        1.0985    0.5294    1.8134   O.2       1 RES1   0.0000
    91 N6        1.7406    1.8501    3.5359   N.am      1 RES1   0.0000
    92 C47       1.7954    3.1803    4.1273   C.3       1 RES1   0.0000
    93 C48       3.1717    3.8309    3.9793   C.3       1 RES1   0.0000
    94 C49       2.1892    0.7824    4.3966   C.ar      1 RES1   0.0000
    95 C50       2.0444   -0.5701    4.0783   C.ar      1 RES1   0.0000
    96 C51       2.4682   -1.5684    4.9418   C.ar      1 RES1   0.0000
    97 C52       2.3230   -3.0226    4.6208   C.3       1 RES1   0.0000
    98 C53       3.0446   -1.2301    6.1534   C.ar      1 RES1   0.0000
    99 C54       3.2028    0.0955    6.5081   C.ar      1 RES1   0.0000
   100 C55       3.8221    0.4410    7.8220   C.3       1 RES1   0.0000
   101 C56       2.7771    1.0853    5.6294   C.ar      1 RES1   0.0000
   102 N7        0.0896    2.2246    0.3267   N.ar      1 RES1   0.0000
   103 N8       -0.9553    0.8107   -1.8416   N.ar      1 RES1   0.0000
   104 C57      -1.1441   -3.8512   -2.8513   C.ar      1 RES1   0.0000
   105 C58       0.1290   -4.0955   -2.3385   C.ar      1 RES1   0.0000
   106 C59       0.5649   -5.3947   -2.1144   C.ar      1 RES1   0.0000
   107 C60       1.9306   -5.7343   -1.6049   C.3       1 RES1   0.0000
   108 C61      -0.2798   -6.4552   -2.4037   C.ar      1 RES1   0.0000
   109 C62      -1.5399   -6.2490   -2.9317   C.ar      1 RES1   0.0000
   110 C63      -2.3924   -7.4230   -3.2879   C.3       1 RES1   0.0000
   111 C64      -1.9640   -4.9399   -3.1423   C.ar      1 RES1   0.0000
   112 H35      -4.4858   -2.1016   -4.9022   H         1 RES1   0.0000
   113 H36      -4.0152   -1.3381   -3.3718   H         1 RES1   0.0000
   114 H37      -4.3022   -3.0615   -3.4445   H         1 RES1   0.0000
   115 H38      -2.0641   -1.6567   -5.0444   H         1 RES1   0.0000
   116 H39      -2.3185   -3.3705   -4.9272   H         1 RES1   0.0000
   117 H40      -2.7836    0.0693   -4.5708   H         1 RES1   0.0000
   118 H41      -2.9554    2.4757   -4.6071   H         1 RES1   0.0000
   119 H42      -1.9200    3.8576   -2.8759   H         1 RES1   0.0000
   120 H43      -0.5920    4.8814   -1.5868   H         1 RES1   0.0000
   121 H44       0.7160    5.9620    0.2000   H         1 RES1   0.0000
   122 H45       1.6932    4.6661    1.9942   H         1 RES1   0.0000
   123 H46       1.5340    3.0993    5.1828   H         1 RES1   0.0000
   124 H47       1.0136    3.7941    3.6840   H         1 RES1   0.0000
   125 H48       3.9561    3.2745    4.4866   H         1 RES1   0.0000
   126 H49       3.1309    4.8230    4.4197   H         1 RES1   0.0000
   127 H50       3.4800    3.9099    2.9389   H         1 RES1   0.0000
   128 H51       1.5974   -0.8838    3.1555   H         1 RES1   0.0000
   129 H52       1.8425   -3.1853    3.6615   H         1 RES1   0.0000
   130 H53       1.7348   -3.5069    5.3977   H         1 RES1   0.0000
   131 H54       3.3028   -3.4974    4.6130   H         1 RES1   0.0000
   132 H55       3.3716   -2.0080    6.8221   H         1 RES1   0.0000
   133 H56       4.0899   -0.4606    8.3662   H         1 RES1   0.0000
   134 H57       3.1326    1.0170    8.4347   H         1 RES1   0.0000
   135 H58       4.7223    1.0362    7.6876   H         1 RES1   0.0000
   136 H59       2.9434    2.0879    5.9739   H         1 RES1   0.0000
   137 H60       0.8000   -3.2765   -2.1442   H         1 RES1   0.0000
   138 H61       2.5684   -4.8625   -1.5180   H         1 RES1   0.0000
   139 H62       2.4084   -6.4395   -2.2817   H         1 RES1   0.0000
   140 H63       1.8563   -6.2273   -0.6363   H         1 RES1   0.0000
   141 H64       0.0644   -7.4620   -2.2341   H         1 RES1   0.0000
   142 H65      -1.8912   -8.3526   -3.0307   H         1 RES1   0.0000
   143 H66      -2.5967   -7.4382   -4.3564   H         1 RES1   0.0000
   144 H67      -3.3471   -7.3955   -2.7684   H         1 RES1   0.0000
   145 H68      -2.9514   -4.8134   -3.5483   H         1 RES1   0.0000
@<TRIPOS>BOND
     1     1     6    1
     2     1    18    1
     3     1    30    1
     4     1    31    1
     5     1    78    1
     6     1    90    1
     7     1   102    1
     8     1   103    1
     9     2     3    1
    10     2    40    1
    11     2    41    1
    12     2    42    1
    13     3     4    1
    14     3    43    1
    15     3    44    1
    16     4     5    1
    17     4    32    1
    18     5     6    2
    19     5     7    1
    20     7     8    1
    21     7    31    2
    22     8     9    2
    23     8    45    1
    24     9    10    1
    25     9    46    1
    26    10    11    2
    27    10    47    1
    28    11    12    1
    29    11    31    1
    30    12    13    1
    31    12    30    2
    32    13    14    2
    33    13    48    1
    34    14    15    1
    35    14    49    1
    36    15    16    2
    37    15    50    1
    38    16    17    1
    39    16    30    1
    40    17    18    2
    41    17    19    1
    42    19    20    1
    43    19    22    1
    44    20    21    1
    45    20    51    1
    46    20    52    1
    47    21    53    1
    48    21    54    1
    49    21    55    1
    50    22    23    1
    51    22    29    2
    52    23    24    2
    53    23    56    1
    54    24    25    1
    55    24    26    1
    56    25    57    1
    57    25    58    1
    58    25    59    1
    59    26    27    2
    60    26    60    1
    61    27    28    1
    62    27    29    1
    63    28    61    1
    64    28    62    1
    65    28    63    1
    66    29    64    1
    67    32    33    1
    68    32    39    2
    69    33    34    2
    70    33    65    1
    71    34    35    1
    72    34    36    1
    73    35    66    1
    74    35    67    1
    75    35    68    1
    76    36    37    2
    77    36    69    1
    78    37    38    1
    79    37    39    1
    80    38    70    1
    81    38    71    1
    82    38    72    1
    83    39    73    1
    84    74    75    1
    85    74   112    1
    86    74   113    1
    87    74   114    1
    88    75    76    1
    89    75   115    1
    90    75   116    1
    91    76    77    1
    92    76   104    1
    93    77    78    2
    94    77    79    1
    95    79    80    1
    96    79   103    2
    97    80    81    2
    98    80   117    1
    99    81    82    1
   100    81   118    1
   101    82    83    2
   102    82   119    1
   103    83    84    1
   104    83   103    1
   105    84    85    1
   106    84   102    2
   107    85    86    2
   108    85   120    1
   109    86    87    1
   110    86   121    1
   111    87    88    2
   112    87   122    1
   113    88    89    1
   114    88   102    1
   115    89    90    2
   116    89    91    1
   117    91    92    1
   118    91    94    1
   119    92    93    1
   120    92   123    1
   121    92   124    1
   122    93   125    1
   123    93   126    1
   124    93   127    1
   125    94    95    1
   126    94   101    2
   127    95    96    2
   128    95   128    1
   129    96    97    1
   130    96    98    1
   131    97   129    1
   132    97   130    1
   133    97   131    1
   134    98    99    2
   135    98   132    1
   136    99   100    1
   137    99   101    1
   138   100   133    1
   139   100   134    1
   140   100   135    1
   141   101   136    1
   142   104   105    1
   143   104   111    2
   144   105   106    2
   145   105   137    1
   146   106   107    1
   147   106   108    1
   148   107   138    1
   149   107   139    1
   150   107   140    1
   151   108   109    2
   152   108   141    1
   153   109   110    1
   154   109   111    1
   155   110   142    1
   156   110   143    1
   157   110   144    1
   158   111   145    1
@<TRIPOS>SUBSTRUCTURE
     1 RES1      145 GROUP             0 ****  ****    0  
